data_str_m3_o2_o5_pcu_sym.18
_audit_creation_date              2020-01-03
_audit_creation_method            'Materials Studio'
_symmetry_space_group_name_H-M    'P1'
_symmetry_Int_Tables_number       1
_symmetry_cell_setting            triclinic
loop_
_symmetry_equiv_pos_as_xyz
  x,y,z
_cell_length_a                    29.9340
_cell_length_b                    28.5638
_cell_length_c                    26.7863
_cell_angle_alpha                 90.5567
_cell_angle_beta                  92.3926
_cell_angle_gamma                 89.8031
loop_
_atom_site_label
_atom_site_type_symbol
_atom_site_fract_x
_atom_site_fract_y
_atom_site_fract_z
_atom_site_U_iso_or_equiv
_atom_site_adp_type
_atom_site_occupancy
C1     C     0.16395   0.25006   0.16853   0.00000  Uiso   1.00
C2     C     0.20894   0.44714   0.16312   0.00000  Uiso   1.00
C3     C     0.24976   0.24986   0.07291   0.00000  Uiso   1.00
C4     C     0.25018   0.25014   0.26043   0.00000  Uiso   1.00
C5     C     0.24853   0.02699   0.16771   0.00000  Uiso   1.00
C6     C     0.24879   0.47357   0.16795   0.00000  Uiso   1.00
C7     C     0.24985   0.24980   0.02178   0.00000  Uiso   1.00
C8     C     0.25001   0.25021   0.31155   0.00000  Uiso   1.00
C9     C     0.04569   0.29051   0.16916   0.00000  Uiso   1.00
C10    C     0.45376   0.21232   0.15205   0.00000  Uiso   1.00
C11    C     0.45253   0.28331   0.20295   0.00000  Uiso   1.00
C12    C     0.33605   0.24989   0.16673   0.00000  Uiso   1.00
C13    C     0.04897   0.20844   0.19227   0.00000  Uiso   1.00
C14    C     0.09156   0.29112   0.16619   0.00000  Uiso   1.00
C15    C     0.40759   0.21333   0.14710   0.00000  Uiso   1.00
C16    C     0.40653   0.28431   0.19783   0.00000  Uiso   1.00
C17    C     0.09494   0.20914   0.18928   0.00000  Uiso   1.00
C18    C     0.11618   0.25006   0.17440   0.00000  Uiso   1.00
C19    C     0.38407   0.24952   0.16988   0.00000  Uiso   1.00
C20    C     0.02434   0.24892   0.18123   0.00000  Uiso   1.00
C21    C     0.47617   0.24754   0.17973   0.00000  Uiso   1.00
C22    C     0.15263   0.12423   0.10204   0.00000  Uiso   1.00
C23    C     0.22237   0.10249   0.13329   0.00000  Uiso   1.00
C24    C     0.12896   0.16106   0.06974   0.00000  Uiso   1.00
C25    C     0.32738   0.37816   0.24897   0.00000  Uiso   1.00
C26    C     0.36901   0.40441   0.26806   0.00000  Uiso   1.00
C27    C     0.35049   0.12660   0.21313   0.00000  Uiso   1.00
C28    C     0.38103   0.09142   0.24031   0.00000  Uiso   1.00
C29    C     0.17057   0.37429   0.08680   0.00000  Uiso   1.00
C30    C     0.12295   0.38519   0.06816   0.00000  Uiso   1.00
C31    C     0.21581   0.01656   0.05589   0.00000  Uiso   1.00
C32    C     0.18189   0.49647   0.01758   0.00000  Uiso   1.00
C33    C     0.35031   0.46225   0.12656   0.00000  Uiso   1.00
C34    C     0.28826   0.39862   0.17766   0.00000  Uiso   1.00
C35    C     0.38576   0.49928   0.11929   0.00000  Uiso   1.00
C36    C     0.28501   0.03697   0.28655   0.00000  Uiso   1.00
C37    C     0.31326   0.00848   0.32388   0.00000  Uiso   1.00
C38    C     0.15534   0.47803   0.21102   0.00000  Uiso   1.00
C39    C     0.11081   0.00381   0.20974   0.00000  Uiso   1.00
C40    C     0.27765   0.10234   0.19962   0.00000  Uiso   1.00
C41    C     0.21112   0.39803   0.15632   0.00000  Uiso   1.00
C42    C     0.22225   0.05265   0.13212   0.00000  Uiso   1.00
C43    C     0.28924   0.44794   0.17187   0.00000  Uiso   1.00
C44    C     0.27497   0.05283   0.20314   0.00000  Uiso   1.00
H45    H     0.02679   0.32206   0.16062   0.00000  Uiso   1.00
H46    H     0.13966   0.08975   0.08898   0.00000  Uiso   1.00
H47    H     0.13428   0.15353   0.02966   0.00000  Uiso   1.00
H48    H     0.09253   0.16060   0.07603   0.00000  Uiso   1.00
H49    H     0.14217   0.19645   0.07899   0.00000  Uiso   1.00
H50    H     0.32915   0.34187   0.26341   0.00000  Uiso   1.00
H51    H     0.29748   0.39474   0.26571   0.00000  Uiso   1.00
H52    H     0.37147   0.40339   0.30952   0.00000  Uiso   1.00
H53    H     0.39950   0.38815   0.25316   0.00000  Uiso   1.00
H54    H     0.36719   0.44150   0.25626   0.00000  Uiso   1.00
H55    H     0.36520   0.16150   0.22151   0.00000  Uiso   1.00
H56    H     0.47200   0.18493   0.13334   0.00000  Uiso   1.00
H57    H     0.35149   0.12099   0.17187   0.00000  Uiso   1.00
H58    H     0.37634   0.05583   0.22419   0.00000  Uiso   1.00
H59    H     0.41648   0.10119   0.23561   0.00000  Uiso   1.00
H60    H     0.37464   0.09138   0.28085   0.00000  Uiso   1.00
H61    H     0.17943   0.33876   0.07327   0.00000  Uiso   1.00
H62    H     0.19327   0.39973   0.06912   0.00000  Uiso   1.00
H63    H     0.11152   0.41869   0.08478   0.00000  Uiso   1.00
H64    H     0.12172   0.38829   0.02682   0.00000  Uiso   1.00
H65    H     0.09996   0.35677   0.07826   0.00000  Uiso   1.00
H66    H     0.24113   0.48904   0.06512   0.00000  Uiso   1.00
H67    H     0.46971   0.31044   0.22474   0.00000  Uiso   1.00
H68    H     0.23209   0.04737   0.03926   0.00000  Uiso   1.00
H69    H     0.16221   0.02523   0.33296   0.00000  Uiso   1.00
H70    H     0.19912   0.47613   0.32189   0.00000  Uiso   1.00
H71    H     0.15860   0.47271   0.03594   0.00000  Uiso   1.00
H72    H     0.32602   0.46369   0.09386   0.00000  Uiso   1.00
H73    H     0.36674   0.42727   0.12741   0.00000  Uiso   1.00
H74    H     0.37005   0.03458   0.11823   0.00000  Uiso   1.00
H75    H     0.40230   0.49274   0.08353   0.00000  Uiso   1.00
H76    H     0.41132   0.49814   0.15054   0.00000  Uiso   1.00
H77    H     0.24958   0.02600   0.28776   0.00000  Uiso   1.00
H78    H     0.03259   0.17645   0.20279   0.00000  Uiso   1.00
H79    H     0.28777   0.07436   0.29796   0.00000  Uiso   1.00
H80    H     0.30438   0.47085   0.32044   0.00000  Uiso   1.00
H81    H     0.30761   0.02082   0.02913   0.00000  Uiso   1.00
H82    H     0.34935   0.01274   0.31704   0.00000  Uiso   1.00
H83    H     0.18047   0.00072   0.23119   0.00000  Uiso   1.00
H84    H     0.15162   0.44483   0.23193   0.00000  Uiso   1.00
H85    H     0.08464   0.48197   0.19044   0.00000  Uiso   1.00
H86    H     0.10082   0.01136   0.24847   0.00000  Uiso   1.00
H87    H     0.11381   0.03738   0.18955   0.00000  Uiso   1.00
H88    H     0.10750   0.32344   0.15681   0.00000  Uiso   1.00
H89    H     0.39032   0.18634   0.12524   0.00000  Uiso   1.00
H90    H     0.38854   0.31165   0.21639   0.00000  Uiso   1.00
H91    H     0.11371   0.17785   0.19879   0.00000  Uiso   1.00
H92    H     0.14372   0.12961   0.14153   0.00000  Uiso   1.00
N93    N     0.25000   0.12623   0.16667   0.00000  Uiso   1.00
N94    N     0.25000   0.37376   0.16667   0.00000  Uiso   1.00
O95    O     0.18453   0.28974   0.16667   0.00000  Uiso   1.00
O96    O     0.32611   0.37602   0.19595   0.00000  Uiso   1.00
O97    O     0.30672   0.12701   0.23158   0.00000  Uiso   1.00
O98    O     0.17298   0.37485   0.13980   0.00000  Uiso   1.00
O99    O     0.19326   0.02975   0.09878   0.00000  Uiso   1.00
O100   O     0.32971   0.47113   0.17217   0.00000  Uiso   1.00
O101   O     0.30102   0.02909   0.23853   0.00000  Uiso   1.00
O102   O     0.16749   0.46860   0.16159   0.00000  Uiso   1.00
O103   O     0.31547   0.21026   0.16666   0.00000  Uiso   1.00
O104   O     0.31547   0.28974   0.16666   0.00000  Uiso   1.00
O105   O     0.18453   0.21026   0.16667   0.00000  Uiso   1.00
O106   O     0.25000   0.28973   0.09511   0.00000  Uiso   1.00
O107   O     0.25000   0.21027   0.23822   0.00000  Uiso   1.00
O108   O     0.25000   0.28973   0.23822   0.00000  Uiso   1.00
O109   O     0.25000   0.21027   0.09511   0.00000  Uiso   1.00
O110   O     0.19926   0.12766   0.09647   0.00000  Uiso   1.00
Zn111  Zn    0.25000   0.30307   0.16667   0.00000  Uiso   1.00
Zn112  Zn    0.25000   0.19693   0.16667   0.00000  Uiso   1.00
C113   C     0.66395   0.25006   0.16853   0.00000  Uiso   1.00
C114   C     0.70894   0.44714   0.16312   0.00000  Uiso   1.00
C115   C     0.74976   0.24986   0.07291   0.00000  Uiso   1.00
C116   C     0.75018   0.25014   0.26043   0.00000  Uiso   1.00
C117   C     0.74853   0.02699   0.16771   0.00000  Uiso   1.00
C118   C     0.74879   0.47357   0.16795   0.00000  Uiso   1.00
C119   C     0.74985   0.24980   0.02178   0.00000  Uiso   1.00
C120   C     0.75001   0.25021   0.31155   0.00000  Uiso   1.00
C121   C     0.54569   0.29051   0.16916   0.00000  Uiso   1.00
C122   C     0.95376   0.21232   0.15205   0.00000  Uiso   1.00
C123   C     0.95253   0.28331   0.20295   0.00000  Uiso   1.00
C124   C     0.83605   0.24989   0.16673   0.00000  Uiso   1.00
C125   C     0.54897   0.20844   0.19227   0.00000  Uiso   1.00
C126   C     0.59156   0.29112   0.16619   0.00000  Uiso   1.00
C127   C     0.90759   0.21333   0.14710   0.00000  Uiso   1.00
C128   C     0.90653   0.28431   0.19783   0.00000  Uiso   1.00
C129   C     0.59494   0.20914   0.18928   0.00000  Uiso   1.00
C130   C     0.61618   0.25006   0.17440   0.00000  Uiso   1.00
C131   C     0.88407   0.24952   0.16988   0.00000  Uiso   1.00
C132   C     0.52434   0.24892   0.18123   0.00000  Uiso   1.00
C133   C     0.97617   0.24754   0.17973   0.00000  Uiso   1.00
C134   C     0.65263   0.12423   0.10204   0.00000  Uiso   1.00
C135   C     0.72237   0.10249   0.13329   0.00000  Uiso   1.00
C136   C     0.62896   0.16106   0.06974   0.00000  Uiso   1.00
C137   C     0.82738   0.37816   0.24897   0.00000  Uiso   1.00
C138   C     0.86901   0.40441   0.26806   0.00000  Uiso   1.00
C139   C     0.85049   0.12660   0.21313   0.00000  Uiso   1.00
C140   C     0.88103   0.09142   0.24031   0.00000  Uiso   1.00
C141   C     0.67057   0.37429   0.08680   0.00000  Uiso   1.00
C142   C     0.62295   0.38519   0.06816   0.00000  Uiso   1.00
C143   C     0.71581   0.01656   0.05589   0.00000  Uiso   1.00
C144   C     0.68189   0.49647   0.01758   0.00000  Uiso   1.00
C145   C     0.85031   0.46225   0.12656   0.00000  Uiso   1.00
C146   C     0.78826   0.39862   0.17766   0.00000  Uiso   1.00
C147   C     0.88576   0.49928   0.11929   0.00000  Uiso   1.00
C148   C     0.78501   0.03697   0.28655   0.00000  Uiso   1.00
C149   C     0.81326   0.00848   0.32388   0.00000  Uiso   1.00
C150   C     0.65534   0.47803   0.21102   0.00000  Uiso   1.00
C151   C     0.61081   0.00381   0.20974   0.00000  Uiso   1.00
C152   C     0.77765   0.10234   0.19962   0.00000  Uiso   1.00
C153   C     0.71112   0.39803   0.15632   0.00000  Uiso   1.00
C154   C     0.72225   0.05265   0.13212   0.00000  Uiso   1.00
C155   C     0.78924   0.44794   0.17187   0.00000  Uiso   1.00
C156   C     0.77497   0.05283   0.20314   0.00000  Uiso   1.00
H157   H     0.52679   0.32206   0.16062   0.00000  Uiso   1.00
H158   H     0.63966   0.08975   0.08898   0.00000  Uiso   1.00
H159   H     0.63428   0.15353   0.02966   0.00000  Uiso   1.00
H160   H     0.59253   0.16060   0.07603   0.00000  Uiso   1.00
H161   H     0.64217   0.19645   0.07899   0.00000  Uiso   1.00
H162   H     0.82915   0.34187   0.26341   0.00000  Uiso   1.00
H163   H     0.79748   0.39474   0.26571   0.00000  Uiso   1.00
H164   H     0.87147   0.40339   0.30952   0.00000  Uiso   1.00
H165   H     0.89950   0.38815   0.25316   0.00000  Uiso   1.00
H166   H     0.86719   0.44150   0.25626   0.00000  Uiso   1.00
H167   H     0.86520   0.16150   0.22151   0.00000  Uiso   1.00
H168   H     0.97200   0.18493   0.13334   0.00000  Uiso   1.00
H169   H     0.85149   0.12099   0.17187   0.00000  Uiso   1.00
H170   H     0.87634   0.05583   0.22419   0.00000  Uiso   1.00
H171   H     0.91648   0.10119   0.23561   0.00000  Uiso   1.00
H172   H     0.87464   0.09138   0.28085   0.00000  Uiso   1.00
H173   H     0.67943   0.33876   0.07327   0.00000  Uiso   1.00
H174   H     0.69327   0.39973   0.06912   0.00000  Uiso   1.00
H175   H     0.61152   0.41869   0.08478   0.00000  Uiso   1.00
H176   H     0.62172   0.38829   0.02682   0.00000  Uiso   1.00
H177   H     0.59996   0.35677   0.07826   0.00000  Uiso   1.00
H178   H     0.74113   0.48904   0.06512   0.00000  Uiso   1.00
H179   H     0.96971   0.31044   0.22474   0.00000  Uiso   1.00
H180   H     0.73209   0.04737   0.03926   0.00000  Uiso   1.00
H181   H     0.66221   0.02523   0.33296   0.00000  Uiso   1.00
H182   H     0.69912   0.47613   0.32189   0.00000  Uiso   1.00
H183   H     0.65860   0.47271   0.03594   0.00000  Uiso   1.00
H184   H     0.82602   0.46369   0.09386   0.00000  Uiso   1.00
H185   H     0.86674   0.42727   0.12741   0.00000  Uiso   1.00
H186   H     0.87005   0.03458   0.11823   0.00000  Uiso   1.00
H187   H     0.90230   0.49274   0.08353   0.00000  Uiso   1.00
H188   H     0.91132   0.49814   0.15054   0.00000  Uiso   1.00
H189   H     0.74958   0.02600   0.28776   0.00000  Uiso   1.00
H190   H     0.53259   0.17645   0.20279   0.00000  Uiso   1.00
H191   H     0.78777   0.07436   0.29796   0.00000  Uiso   1.00
H192   H     0.80438   0.47085   0.32044   0.00000  Uiso   1.00
H193   H     0.80761   0.02082   0.02913   0.00000  Uiso   1.00
H194   H     0.84935   0.01274   0.31704   0.00000  Uiso   1.00
H195   H     0.68047   0.00072   0.23119   0.00000  Uiso   1.00
H196   H     0.65162   0.44483   0.23193   0.00000  Uiso   1.00
H197   H     0.58464   0.48197   0.19044   0.00000  Uiso   1.00
H198   H     0.60082   0.01136   0.24847   0.00000  Uiso   1.00
H199   H     0.61381   0.03738   0.18955   0.00000  Uiso   1.00
H200   H     0.60750   0.32344   0.15681   0.00000  Uiso   1.00
H201   H     0.89032   0.18634   0.12524   0.00000  Uiso   1.00
H202   H     0.88854   0.31165   0.21639   0.00000  Uiso   1.00
H203   H     0.61371   0.17785   0.19879   0.00000  Uiso   1.00
H204   H     0.64372   0.12961   0.14153   0.00000  Uiso   1.00
N205   N     0.75000   0.12623   0.16667   0.00000  Uiso   1.00
N206   N     0.75000   0.37376   0.16667   0.00000  Uiso   1.00
O207   O     0.68453   0.28974   0.16667   0.00000  Uiso   1.00
O208   O     0.82611   0.37602   0.19595   0.00000  Uiso   1.00
O209   O     0.80672   0.12701   0.23158   0.00000  Uiso   1.00
O210   O     0.67298   0.37485   0.13980   0.00000  Uiso   1.00
O211   O     0.69326   0.02975   0.09878   0.00000  Uiso   1.00
O212   O     0.82971   0.47113   0.17217   0.00000  Uiso   1.00
O213   O     0.80102   0.02909   0.23853   0.00000  Uiso   1.00
O214   O     0.66749   0.46860   0.16159   0.00000  Uiso   1.00
O215   O     0.81547   0.21026   0.16666   0.00000  Uiso   1.00
O216   O     0.81547   0.28974   0.16666   0.00000  Uiso   1.00
O217   O     0.68453   0.21026   0.16667   0.00000  Uiso   1.00
O218   O     0.75000   0.28973   0.09511   0.00000  Uiso   1.00
O219   O     0.75000   0.21027   0.23822   0.00000  Uiso   1.00
O220   O     0.75000   0.28973   0.23822   0.00000  Uiso   1.00
O221   O     0.75000   0.21027   0.09511   0.00000  Uiso   1.00
O222   O     0.69926   0.12766   0.09647   0.00000  Uiso   1.00
Zn223  Zn    0.75000   0.30307   0.16667   0.00000  Uiso   1.00
Zn224  Zn    0.75000   0.19693   0.16667   0.00000  Uiso   1.00
C225   C     0.16395   0.75006   0.16853   0.00000  Uiso   1.00
C226   C     0.20894   0.94714   0.16312   0.00000  Uiso   1.00
C227   C     0.24976   0.74986   0.07291   0.00000  Uiso   1.00
C228   C     0.25018   0.75014   0.26043   0.00000  Uiso   1.00
C229   C     0.24853   0.52699   0.16771   0.00000  Uiso   1.00
C230   C     0.24879   0.97357   0.16795   0.00000  Uiso   1.00
C231   C     0.24985   0.74980   0.02178   0.00000  Uiso   1.00
C232   C     0.25001   0.75021   0.31155   0.00000  Uiso   1.00
C233   C     0.04569   0.79051   0.16916   0.00000  Uiso   1.00
C234   C     0.45376   0.71232   0.15205   0.00000  Uiso   1.00
C235   C     0.45253   0.78331   0.20295   0.00000  Uiso   1.00
C236   C     0.33605   0.74989   0.16673   0.00000  Uiso   1.00
C237   C     0.04897   0.70844   0.19227   0.00000  Uiso   1.00
C238   C     0.09156   0.79112   0.16619   0.00000  Uiso   1.00
C239   C     0.40759   0.71333   0.14710   0.00000  Uiso   1.00
C240   C     0.40653   0.78431   0.19783   0.00000  Uiso   1.00
C241   C     0.09494   0.70914   0.18928   0.00000  Uiso   1.00
C242   C     0.11618   0.75006   0.17440   0.00000  Uiso   1.00
C243   C     0.38407   0.74952   0.16988   0.00000  Uiso   1.00
C244   C     0.02434   0.74892   0.18123   0.00000  Uiso   1.00
C245   C     0.47617   0.74754   0.17973   0.00000  Uiso   1.00
C246   C     0.15263   0.62423   0.10204   0.00000  Uiso   1.00
C247   C     0.22237   0.60249   0.13329   0.00000  Uiso   1.00
C248   C     0.12896   0.66106   0.06974   0.00000  Uiso   1.00
C249   C     0.32738   0.87816   0.24897   0.00000  Uiso   1.00
C250   C     0.36901   0.90441   0.26806   0.00000  Uiso   1.00
C251   C     0.35049   0.62660   0.21313   0.00000  Uiso   1.00
C252   C     0.38103   0.59142   0.24031   0.00000  Uiso   1.00
C253   C     0.17057   0.87429   0.08680   0.00000  Uiso   1.00
C254   C     0.12295   0.88519   0.06816   0.00000  Uiso   1.00
C255   C     0.21581   0.51656   0.05589   0.00000  Uiso   1.00
C256   C     0.18189   0.99647   0.01758   0.00000  Uiso   1.00
C257   C     0.35031   0.96225   0.12656   0.00000  Uiso   1.00
C258   C     0.28826   0.89862   0.17766   0.00000  Uiso   1.00
C259   C     0.38576   0.99928   0.11929   0.00000  Uiso   1.00
C260   C     0.28501   0.53697   0.28655   0.00000  Uiso   1.00
C261   C     0.31326   0.50848   0.32388   0.00000  Uiso   1.00
C262   C     0.15534   0.97803   0.21102   0.00000  Uiso   1.00
C263   C     0.11081   0.50381   0.20974   0.00000  Uiso   1.00
C264   C     0.27765   0.60234   0.19962   0.00000  Uiso   1.00
C265   C     0.21112   0.89803   0.15632   0.00000  Uiso   1.00
C266   C     0.22225   0.55265   0.13212   0.00000  Uiso   1.00
C267   C     0.28924   0.94794   0.17187   0.00000  Uiso   1.00
C268   C     0.27497   0.55283   0.20314   0.00000  Uiso   1.00
H269   H     0.02679   0.82206   0.16062   0.00000  Uiso   1.00
H270   H     0.13966   0.58975   0.08898   0.00000  Uiso   1.00
H271   H     0.13428   0.65353   0.02966   0.00000  Uiso   1.00
H272   H     0.09253   0.66060   0.07603   0.00000  Uiso   1.00
H273   H     0.14217   0.69645   0.07899   0.00000  Uiso   1.00
H274   H     0.32915   0.84187   0.26341   0.00000  Uiso   1.00
H275   H     0.29748   0.89474   0.26571   0.00000  Uiso   1.00
H276   H     0.37147   0.90339   0.30952   0.00000  Uiso   1.00
H277   H     0.39950   0.88815   0.25316   0.00000  Uiso   1.00
H278   H     0.36719   0.94150   0.25626   0.00000  Uiso   1.00
H279   H     0.36520   0.66150   0.22151   0.00000  Uiso   1.00
H280   H     0.47200   0.68493   0.13334   0.00000  Uiso   1.00
H281   H     0.35149   0.62099   0.17187   0.00000  Uiso   1.00
H282   H     0.37634   0.55583   0.22419   0.00000  Uiso   1.00
H283   H     0.41648   0.60119   0.23561   0.00000  Uiso   1.00
H284   H     0.37464   0.59138   0.28085   0.00000  Uiso   1.00
H285   H     0.17943   0.83876   0.07327   0.00000  Uiso   1.00
H286   H     0.19327   0.89973   0.06912   0.00000  Uiso   1.00
H287   H     0.11152   0.91869   0.08478   0.00000  Uiso   1.00
H288   H     0.12172   0.88829   0.02682   0.00000  Uiso   1.00
H289   H     0.09996   0.85677   0.07826   0.00000  Uiso   1.00
H290   H     0.24113   0.98904   0.06512   0.00000  Uiso   1.00
H291   H     0.46971   0.81044   0.22474   0.00000  Uiso   1.00
H292   H     0.23209   0.54737   0.03926   0.00000  Uiso   1.00
H293   H     0.16221   0.52523   0.33296   0.00000  Uiso   1.00
H294   H     0.19912   0.97613   0.32189   0.00000  Uiso   1.00
H295   H     0.15860   0.97271   0.03594   0.00000  Uiso   1.00
H296   H     0.32602   0.96369   0.09386   0.00000  Uiso   1.00
H297   H     0.36674   0.92727   0.12741   0.00000  Uiso   1.00
H298   H     0.37005   0.53458   0.11823   0.00000  Uiso   1.00
H299   H     0.40230   0.99274   0.08353   0.00000  Uiso   1.00
H300   H     0.41132   0.99814   0.15054   0.00000  Uiso   1.00
H301   H     0.24958   0.52600   0.28776   0.00000  Uiso   1.00
H302   H     0.03259   0.67645   0.20279   0.00000  Uiso   1.00
H303   H     0.28777   0.57436   0.29796   0.00000  Uiso   1.00
H304   H     0.30438   0.97085   0.32044   0.00000  Uiso   1.00
H305   H     0.30761   0.52082   0.02913   0.00000  Uiso   1.00
H306   H     0.34935   0.51274   0.31704   0.00000  Uiso   1.00
H307   H     0.18047   0.50072   0.23119   0.00000  Uiso   1.00
H308   H     0.15162   0.94483   0.23193   0.00000  Uiso   1.00
H309   H     0.08464   0.98197   0.19044   0.00000  Uiso   1.00
H310   H     0.10082   0.51136   0.24847   0.00000  Uiso   1.00
H311   H     0.11381   0.53738   0.18955   0.00000  Uiso   1.00
H312   H     0.10750   0.82344   0.15681   0.00000  Uiso   1.00
H313   H     0.39032   0.68634   0.12524   0.00000  Uiso   1.00
H314   H     0.38854   0.81165   0.21639   0.00000  Uiso   1.00
H315   H     0.11371   0.67785   0.19879   0.00000  Uiso   1.00
H316   H     0.14372   0.62961   0.14153   0.00000  Uiso   1.00
N317   N     0.25000   0.62623   0.16667   0.00000  Uiso   1.00
N318   N     0.25000   0.87376   0.16667   0.00000  Uiso   1.00
O319   O     0.18453   0.78974   0.16667   0.00000  Uiso   1.00
O320   O     0.32611   0.87602   0.19595   0.00000  Uiso   1.00
O321   O     0.30672   0.62701   0.23158   0.00000  Uiso   1.00
O322   O     0.17298   0.87485   0.13980   0.00000  Uiso   1.00
O323   O     0.19326   0.52975   0.09878   0.00000  Uiso   1.00
O324   O     0.32971   0.97113   0.17217   0.00000  Uiso   1.00
O325   O     0.30102   0.52909   0.23853   0.00000  Uiso   1.00
O326   O     0.16749   0.96860   0.16159   0.00000  Uiso   1.00
O327   O     0.31547   0.71026   0.16666   0.00000  Uiso   1.00
O328   O     0.31547   0.78974   0.16666   0.00000  Uiso   1.00
O329   O     0.18453   0.71026   0.16667   0.00000  Uiso   1.00
O330   O     0.25000   0.78973   0.09511   0.00000  Uiso   1.00
O331   O     0.25000   0.71027   0.23822   0.00000  Uiso   1.00
O332   O     0.25000   0.78973   0.23822   0.00000  Uiso   1.00
O333   O     0.25000   0.71027   0.09511   0.00000  Uiso   1.00
O334   O     0.19926   0.62766   0.09647   0.00000  Uiso   1.00
Zn335  Zn    0.25000   0.80307   0.16667   0.00000  Uiso   1.00
Zn336  Zn    0.25000   0.69693   0.16667   0.00000  Uiso   1.00
C337   C     0.66395   0.75006   0.16853   0.00000  Uiso   1.00
C338   C     0.70894   0.94714   0.16312   0.00000  Uiso   1.00
C339   C     0.74976   0.74986   0.07291   0.00000  Uiso   1.00
C340   C     0.75018   0.75014   0.26043   0.00000  Uiso   1.00
C341   C     0.74853   0.52699   0.16771   0.00000  Uiso   1.00
C342   C     0.74879   0.97357   0.16795   0.00000  Uiso   1.00
C343   C     0.74985   0.74980   0.02178   0.00000  Uiso   1.00
C344   C     0.75001   0.75021   0.31155   0.00000  Uiso   1.00
C345   C     0.54569   0.79051   0.16916   0.00000  Uiso   1.00
C346   C     0.95376   0.71232   0.15205   0.00000  Uiso   1.00
C347   C     0.95253   0.78331   0.20295   0.00000  Uiso   1.00
C348   C     0.83605   0.74989   0.16673   0.00000  Uiso   1.00
C349   C     0.54897   0.70844   0.19227   0.00000  Uiso   1.00
C350   C     0.59156   0.79112   0.16619   0.00000  Uiso   1.00
C351   C     0.90759   0.71333   0.14710   0.00000  Uiso   1.00
C352   C     0.90653   0.78431   0.19783   0.00000  Uiso   1.00
C353   C     0.59494   0.70914   0.18928   0.00000  Uiso   1.00
C354   C     0.61618   0.75006   0.17440   0.00000  Uiso   1.00
C355   C     0.88407   0.74952   0.16988   0.00000  Uiso   1.00
C356   C     0.52434   0.74892   0.18123   0.00000  Uiso   1.00
C357   C     0.97617   0.74754   0.17973   0.00000  Uiso   1.00
C358   C     0.65263   0.62423   0.10204   0.00000  Uiso   1.00
C359   C     0.72237   0.60249   0.13329   0.00000  Uiso   1.00
C360   C     0.62896   0.66106   0.06974   0.00000  Uiso   1.00
C361   C     0.82738   0.87816   0.24897   0.00000  Uiso   1.00
C362   C     0.86901   0.90441   0.26806   0.00000  Uiso   1.00
C363   C     0.85049   0.62660   0.21313   0.00000  Uiso   1.00
C364   C     0.88103   0.59142   0.24031   0.00000  Uiso   1.00
C365   C     0.67057   0.87429   0.08680   0.00000  Uiso   1.00
C366   C     0.62295   0.88519   0.06816   0.00000  Uiso   1.00
C367   C     0.71581   0.51656   0.05589   0.00000  Uiso   1.00
C368   C     0.68189   0.99647   0.01758   0.00000  Uiso   1.00
C369   C     0.85031   0.96225   0.12656   0.00000  Uiso   1.00
C370   C     0.78826   0.89862   0.17766   0.00000  Uiso   1.00
C371   C     0.88576   0.99928   0.11929   0.00000  Uiso   1.00
C372   C     0.78501   0.53697   0.28655   0.00000  Uiso   1.00
C373   C     0.81326   0.50848   0.32388   0.00000  Uiso   1.00
C374   C     0.65534   0.97803   0.21102   0.00000  Uiso   1.00
C375   C     0.61081   0.50381   0.20974   0.00000  Uiso   1.00
C376   C     0.77765   0.60234   0.19962   0.00000  Uiso   1.00
C377   C     0.71112   0.89803   0.15632   0.00000  Uiso   1.00
C378   C     0.72225   0.55265   0.13212   0.00000  Uiso   1.00
C379   C     0.78924   0.94794   0.17187   0.00000  Uiso   1.00
C380   C     0.77497   0.55283   0.20314   0.00000  Uiso   1.00
H381   H     0.52679   0.82206   0.16062   0.00000  Uiso   1.00
H382   H     0.63966   0.58975   0.08898   0.00000  Uiso   1.00
H383   H     0.63428   0.65353   0.02966   0.00000  Uiso   1.00
H384   H     0.59253   0.66060   0.07603   0.00000  Uiso   1.00
H385   H     0.64217   0.69645   0.07899   0.00000  Uiso   1.00
H386   H     0.82915   0.84187   0.26341   0.00000  Uiso   1.00
H387   H     0.79748   0.89474   0.26571   0.00000  Uiso   1.00
H388   H     0.87147   0.90339   0.30952   0.00000  Uiso   1.00
H389   H     0.89950   0.88815   0.25316   0.00000  Uiso   1.00
H390   H     0.86719   0.94150   0.25626   0.00000  Uiso   1.00
H391   H     0.86520   0.66150   0.22151   0.00000  Uiso   1.00
H392   H     0.97200   0.68493   0.13334   0.00000  Uiso   1.00
H393   H     0.85149   0.62099   0.17187   0.00000  Uiso   1.00
H394   H     0.87634   0.55583   0.22419   0.00000  Uiso   1.00
H395   H     0.91648   0.60119   0.23561   0.00000  Uiso   1.00
H396   H     0.87464   0.59138   0.28085   0.00000  Uiso   1.00
H397   H     0.67943   0.83876   0.07327   0.00000  Uiso   1.00
H398   H     0.69327   0.89973   0.06912   0.00000  Uiso   1.00
H399   H     0.61152   0.91869   0.08478   0.00000  Uiso   1.00
H400   H     0.62172   0.88829   0.02682   0.00000  Uiso   1.00
H401   H     0.59996   0.85677   0.07826   0.00000  Uiso   1.00
H402   H     0.74113   0.98904   0.06512   0.00000  Uiso   1.00
H403   H     0.96971   0.81044   0.22474   0.00000  Uiso   1.00
H404   H     0.73209   0.54737   0.03926   0.00000  Uiso   1.00
H405   H     0.66221   0.52523   0.33296   0.00000  Uiso   1.00
H406   H     0.69912   0.97613   0.32189   0.00000  Uiso   1.00
H407   H     0.65860   0.97271   0.03594   0.00000  Uiso   1.00
H408   H     0.82602   0.96369   0.09386   0.00000  Uiso   1.00
H409   H     0.86674   0.92727   0.12741   0.00000  Uiso   1.00
H410   H     0.87005   0.53458   0.11823   0.00000  Uiso   1.00
H411   H     0.90230   0.99274   0.08353   0.00000  Uiso   1.00
H412   H     0.91132   0.99814   0.15054   0.00000  Uiso   1.00
H413   H     0.74958   0.52600   0.28776   0.00000  Uiso   1.00
H414   H     0.53259   0.67645   0.20279   0.00000  Uiso   1.00
H415   H     0.78777   0.57436   0.29796   0.00000  Uiso   1.00
H416   H     0.80438   0.97085   0.32044   0.00000  Uiso   1.00
H417   H     0.80761   0.52082   0.02913   0.00000  Uiso   1.00
H418   H     0.84935   0.51274   0.31704   0.00000  Uiso   1.00
H419   H     0.68047   0.50072   0.23119   0.00000  Uiso   1.00
H420   H     0.65162   0.94483   0.23193   0.00000  Uiso   1.00
H421   H     0.58464   0.98197   0.19044   0.00000  Uiso   1.00
H422   H     0.60082   0.51136   0.24847   0.00000  Uiso   1.00
H423   H     0.61381   0.53738   0.18955   0.00000  Uiso   1.00
H424   H     0.60750   0.82344   0.15681   0.00000  Uiso   1.00
H425   H     0.89032   0.68634   0.12524   0.00000  Uiso   1.00
H426   H     0.88854   0.81165   0.21639   0.00000  Uiso   1.00
H427   H     0.61371   0.67785   0.19879   0.00000  Uiso   1.00
H428   H     0.64372   0.62961   0.14153   0.00000  Uiso   1.00
N429   N     0.75000   0.62623   0.16667   0.00000  Uiso   1.00
N430   N     0.75000   0.87376   0.16667   0.00000  Uiso   1.00
O431   O     0.68453   0.78974   0.16667   0.00000  Uiso   1.00
O432   O     0.82611   0.87602   0.19595   0.00000  Uiso   1.00
O433   O     0.80672   0.62701   0.23158   0.00000  Uiso   1.00
O434   O     0.67298   0.87485   0.13980   0.00000  Uiso   1.00
O435   O     0.69326   0.52975   0.09878   0.00000  Uiso   1.00
O436   O     0.82971   0.97113   0.17217   0.00000  Uiso   1.00
O437   O     0.80102   0.52909   0.23853   0.00000  Uiso   1.00
O438   O     0.66749   0.96860   0.16159   0.00000  Uiso   1.00
O439   O     0.81547   0.71026   0.16666   0.00000  Uiso   1.00
O440   O     0.81547   0.78974   0.16666   0.00000  Uiso   1.00
O441   O     0.68453   0.71026   0.16667   0.00000  Uiso   1.00
O442   O     0.75000   0.78973   0.09511   0.00000  Uiso   1.00
O443   O     0.75000   0.71027   0.23822   0.00000  Uiso   1.00
O444   O     0.75000   0.78973   0.23822   0.00000  Uiso   1.00
O445   O     0.75000   0.71027   0.09511   0.00000  Uiso   1.00
O446   O     0.69926   0.62766   0.09647   0.00000  Uiso   1.00
Zn447  Zn    0.75000   0.80307   0.16667   0.00000  Uiso   1.00
Zn448  Zn    0.75000   0.69693   0.16667   0.00000  Uiso   1.00
C449   C     0.16395   0.25006   0.50186   0.00000  Uiso   1.00
C450   C     0.20894   0.44714   0.49646   0.00000  Uiso   1.00
C451   C     0.24976   0.24986   0.40624   0.00000  Uiso   1.00
C452   C     0.25018   0.25014   0.59376   0.00000  Uiso   1.00
C453   C     0.24853   0.02699   0.50104   0.00000  Uiso   1.00
C454   C     0.24879   0.47357   0.50129   0.00000  Uiso   1.00
C455   C     0.24985   0.24980   0.35512   0.00000  Uiso   1.00
C456   C     0.25001   0.25021   0.64488   0.00000  Uiso   1.00
C457   C     0.04569   0.29051   0.50249   0.00000  Uiso   1.00
C458   C     0.45376   0.21232   0.48538   0.00000  Uiso   1.00
C459   C     0.45253   0.28331   0.53628   0.00000  Uiso   1.00
C460   C     0.33605   0.24989   0.50007   0.00000  Uiso   1.00
C461   C     0.04897   0.20844   0.52560   0.00000  Uiso   1.00
C462   C     0.09156   0.29112   0.49952   0.00000  Uiso   1.00
C463   C     0.40759   0.21333   0.48043   0.00000  Uiso   1.00
C464   C     0.40653   0.28431   0.53117   0.00000  Uiso   1.00
C465   C     0.09494   0.20914   0.52261   0.00000  Uiso   1.00
C466   C     0.11618   0.25006   0.50773   0.00000  Uiso   1.00
C467   C     0.38407   0.24952   0.50321   0.00000  Uiso   1.00
C468   C     0.02434   0.24892   0.51457   0.00000  Uiso   1.00
C469   C     0.47617   0.24754   0.51306   0.00000  Uiso   1.00
C470   C     0.15263   0.12423   0.43538   0.00000  Uiso   1.00
C471   C     0.22237   0.10249   0.46662   0.00000  Uiso   1.00
C472   C     0.12896   0.16106   0.40308   0.00000  Uiso   1.00
C473   C     0.32738   0.37816   0.58230   0.00000  Uiso   1.00
C474   C     0.36901   0.40441   0.60139   0.00000  Uiso   1.00
C475   C     0.35049   0.12660   0.54646   0.00000  Uiso   1.00
C476   C     0.38103   0.09142   0.57365   0.00000  Uiso   1.00
C477   C     0.17057   0.37429   0.42014   0.00000  Uiso   1.00
C478   C     0.12295   0.38519   0.40149   0.00000  Uiso   1.00
C479   C     0.21581   0.01656   0.38923   0.00000  Uiso   1.00
C480   C     0.18189   0.49647   0.35092   0.00000  Uiso   1.00
C481   C     0.35031   0.46225   0.45989   0.00000  Uiso   1.00
C482   C     0.28826   0.39862   0.51099   0.00000  Uiso   1.00
C483   C     0.38576   0.49928   0.45263   0.00000  Uiso   1.00
C484   C     0.28501   0.03697   0.61988   0.00000  Uiso   1.00
C485   C     0.31326   0.00848   0.65722   0.00000  Uiso   1.00
C486   C     0.15534   0.47803   0.54435   0.00000  Uiso   1.00
C487   C     0.11081   0.00381   0.54308   0.00000  Uiso   1.00
C488   C     0.27765   0.10234   0.53296   0.00000  Uiso   1.00
C489   C     0.21112   0.39803   0.48965   0.00000  Uiso   1.00
C490   C     0.22225   0.05265   0.46545   0.00000  Uiso   1.00
C491   C     0.28924   0.44794   0.50521   0.00000  Uiso   1.00
C492   C     0.27497   0.05283   0.53648   0.00000  Uiso   1.00
H493   H     0.02679   0.32206   0.49396   0.00000  Uiso   1.00
H494   H     0.13966   0.08975   0.42232   0.00000  Uiso   1.00
H495   H     0.13428   0.15353   0.36299   0.00000  Uiso   1.00
H496   H     0.09253   0.16060   0.40936   0.00000  Uiso   1.00
H497   H     0.14217   0.19645   0.41232   0.00000  Uiso   1.00
H498   H     0.32915   0.34187   0.59674   0.00000  Uiso   1.00
H499   H     0.29748   0.39474   0.59904   0.00000  Uiso   1.00
H500   H     0.37147   0.40339   0.64285   0.00000  Uiso   1.00
H501   H     0.39950   0.38815   0.58649   0.00000  Uiso   1.00
H502   H     0.36719   0.44150   0.58959   0.00000  Uiso   1.00
H503   H     0.36520   0.16150   0.55484   0.00000  Uiso   1.00
H504   H     0.47200   0.18493   0.46667   0.00000  Uiso   1.00
H505   H     0.35149   0.12099   0.50520   0.00000  Uiso   1.00
H506   H     0.37634   0.05583   0.55752   0.00000  Uiso   1.00
H507   H     0.41648   0.10119   0.56895   0.00000  Uiso   1.00
H508   H     0.37464   0.09138   0.61418   0.00000  Uiso   1.00
H509   H     0.17943   0.33876   0.40661   0.00000  Uiso   1.00
H510   H     0.19327   0.39973   0.40246   0.00000  Uiso   1.00
H511   H     0.11152   0.41869   0.41811   0.00000  Uiso   1.00
H512   H     0.12172   0.38829   0.36016   0.00000  Uiso   1.00
H513   H     0.09996   0.35677   0.41159   0.00000  Uiso   1.00
H514   H     0.24113   0.48904   0.39845   0.00000  Uiso   1.00
H515   H     0.46971   0.31044   0.55808   0.00000  Uiso   1.00
H516   H     0.23209   0.04737   0.37259   0.00000  Uiso   1.00
H517   H     0.16221   0.02523   0.66630   0.00000  Uiso   1.00
H518   H     0.19912   0.47613   0.65523   0.00000  Uiso   1.00
H519   H     0.15860   0.47271   0.36928   0.00000  Uiso   1.00
H520   H     0.32602   0.46369   0.42719   0.00000  Uiso   1.00
H521   H     0.36674   0.42727   0.46074   0.00000  Uiso   1.00
H522   H     0.37005   0.03458   0.45156   0.00000  Uiso   1.00
H523   H     0.40230   0.49274   0.41686   0.00000  Uiso   1.00
H524   H     0.41132   0.49814   0.48387   0.00000  Uiso   1.00
H525   H     0.24958   0.02600   0.62109   0.00000  Uiso   1.00
H526   H     0.03259   0.17645   0.53612   0.00000  Uiso   1.00
H527   H     0.28777   0.07436   0.63129   0.00000  Uiso   1.00
H528   H     0.30438   0.47085   0.65377   0.00000  Uiso   1.00
H529   H     0.30761   0.02082   0.36247   0.00000  Uiso   1.00
H530   H     0.34935   0.01274   0.65037   0.00000  Uiso   1.00
H531   H     0.18047   0.00072   0.56453   0.00000  Uiso   1.00
H532   H     0.15162   0.44483   0.56526   0.00000  Uiso   1.00
H533   H     0.08464   0.48197   0.52377   0.00000  Uiso   1.00
H534   H     0.10082   0.01136   0.58181   0.00000  Uiso   1.00
H535   H     0.11381   0.03738   0.52289   0.00000  Uiso   1.00
H536   H     0.10750   0.32344   0.49014   0.00000  Uiso   1.00
H537   H     0.39032   0.18634   0.45857   0.00000  Uiso   1.00
H538   H     0.38854   0.31165   0.54973   0.00000  Uiso   1.00
H539   H     0.11371   0.17785   0.53212   0.00000  Uiso   1.00
H540   H     0.14372   0.12961   0.47486   0.00000  Uiso   1.00
N541   N     0.25000   0.12623   0.50000   0.00000  Uiso   1.00
N542   N     0.25000   0.37376   0.50000   0.00000  Uiso   1.00
O543   O     0.18453   0.28974   0.50000   0.00000  Uiso   1.00
O544   O     0.32611   0.37602   0.52928   0.00000  Uiso   1.00
O545   O     0.30672   0.12701   0.56492   0.00000  Uiso   1.00
O546   O     0.17298   0.37485   0.47313   0.00000  Uiso   1.00
O547   O     0.19326   0.02975   0.43212   0.00000  Uiso   1.00
O548   O     0.32971   0.47113   0.50550   0.00000  Uiso   1.00
O549   O     0.30102   0.02909   0.57186   0.00000  Uiso   1.00
O550   O     0.16749   0.46860   0.49492   0.00000  Uiso   1.00
O551   O     0.31547   0.21026   0.50000   0.00000  Uiso   1.00
O552   O     0.31547   0.28974   0.50000   0.00000  Uiso   1.00
O553   O     0.18453   0.21026   0.50000   0.00000  Uiso   1.00
O554   O     0.25000   0.28973   0.42845   0.00000  Uiso   1.00
O555   O     0.25000   0.21027   0.57155   0.00000  Uiso   1.00
O556   O     0.25000   0.28973   0.57155   0.00000  Uiso   1.00
O557   O     0.25000   0.21027   0.42845   0.00000  Uiso   1.00
O558   O     0.19926   0.12766   0.42980   0.00000  Uiso   1.00
Zn559  Zn    0.25000   0.30307   0.50000   0.00000  Uiso   1.00
Zn560  Zn    0.25000   0.19693   0.50000   0.00000  Uiso   1.00
C561   C     0.66395   0.25006   0.50186   0.00000  Uiso   1.00
C562   C     0.70894   0.44714   0.49646   0.00000  Uiso   1.00
C563   C     0.74976   0.24986   0.40624   0.00000  Uiso   1.00
C564   C     0.75018   0.25014   0.59376   0.00000  Uiso   1.00
C565   C     0.74853   0.02699   0.50104   0.00000  Uiso   1.00
C566   C     0.74879   0.47357   0.50129   0.00000  Uiso   1.00
C567   C     0.74985   0.24980   0.35512   0.00000  Uiso   1.00
C568   C     0.75001   0.25021   0.64488   0.00000  Uiso   1.00
C569   C     0.54569   0.29051   0.50249   0.00000  Uiso   1.00
C570   C     0.95376   0.21232   0.48538   0.00000  Uiso   1.00
C571   C     0.95253   0.28331   0.53628   0.00000  Uiso   1.00
C572   C     0.83605   0.24989   0.50007   0.00000  Uiso   1.00
C573   C     0.54897   0.20844   0.52560   0.00000  Uiso   1.00
C574   C     0.59156   0.29112   0.49952   0.00000  Uiso   1.00
C575   C     0.90759   0.21333   0.48043   0.00000  Uiso   1.00
C576   C     0.90653   0.28431   0.53117   0.00000  Uiso   1.00
C577   C     0.59494   0.20914   0.52261   0.00000  Uiso   1.00
C578   C     0.61618   0.25006   0.50773   0.00000  Uiso   1.00
C579   C     0.88407   0.24952   0.50321   0.00000  Uiso   1.00
C580   C     0.52434   0.24892   0.51457   0.00000  Uiso   1.00
C581   C     0.97617   0.24754   0.51306   0.00000  Uiso   1.00
C582   C     0.65263   0.12423   0.43538   0.00000  Uiso   1.00
C583   C     0.72237   0.10249   0.46662   0.00000  Uiso   1.00
C584   C     0.62896   0.16106   0.40308   0.00000  Uiso   1.00
C585   C     0.82738   0.37816   0.58230   0.00000  Uiso   1.00
C586   C     0.86901   0.40441   0.60139   0.00000  Uiso   1.00
C587   C     0.85049   0.12660   0.54646   0.00000  Uiso   1.00
C588   C     0.88103   0.09142   0.57365   0.00000  Uiso   1.00
C589   C     0.67057   0.37429   0.42014   0.00000  Uiso   1.00
C590   C     0.62295   0.38519   0.40149   0.00000  Uiso   1.00
C591   C     0.71581   0.01656   0.38923   0.00000  Uiso   1.00
C592   C     0.68189   0.49647   0.35092   0.00000  Uiso   1.00
C593   C     0.85031   0.46225   0.45989   0.00000  Uiso   1.00
C594   C     0.78826   0.39862   0.51099   0.00000  Uiso   1.00
C595   C     0.88576   0.49928   0.45263   0.00000  Uiso   1.00
C596   C     0.78501   0.03697   0.61988   0.00000  Uiso   1.00
C597   C     0.81326   0.00848   0.65722   0.00000  Uiso   1.00
C598   C     0.65534   0.47803   0.54435   0.00000  Uiso   1.00
C599   C     0.61081   0.00381   0.54308   0.00000  Uiso   1.00
C600   C     0.77765   0.10234   0.53296   0.00000  Uiso   1.00
C601   C     0.71112   0.39803   0.48965   0.00000  Uiso   1.00
C602   C     0.72225   0.05265   0.46545   0.00000  Uiso   1.00
C603   C     0.78924   0.44794   0.50521   0.00000  Uiso   1.00
C604   C     0.77497   0.05283   0.53648   0.00000  Uiso   1.00
H605   H     0.52679   0.32206   0.49396   0.00000  Uiso   1.00
H606   H     0.63966   0.08975   0.42232   0.00000  Uiso   1.00
H607   H     0.63428   0.15353   0.36299   0.00000  Uiso   1.00
H608   H     0.59253   0.16060   0.40936   0.00000  Uiso   1.00
H609   H     0.64217   0.19645   0.41232   0.00000  Uiso   1.00
H610   H     0.82915   0.34187   0.59674   0.00000  Uiso   1.00
H611   H     0.79748   0.39474   0.59904   0.00000  Uiso   1.00
H612   H     0.87147   0.40339   0.64285   0.00000  Uiso   1.00
H613   H     0.89950   0.38815   0.58649   0.00000  Uiso   1.00
H614   H     0.86719   0.44150   0.58959   0.00000  Uiso   1.00
H615   H     0.86520   0.16150   0.55484   0.00000  Uiso   1.00
H616   H     0.97200   0.18493   0.46667   0.00000  Uiso   1.00
H617   H     0.85149   0.12099   0.50520   0.00000  Uiso   1.00
H618   H     0.87634   0.05583   0.55752   0.00000  Uiso   1.00
H619   H     0.91648   0.10119   0.56895   0.00000  Uiso   1.00
H620   H     0.87464   0.09138   0.61418   0.00000  Uiso   1.00
H621   H     0.67943   0.33876   0.40661   0.00000  Uiso   1.00
H622   H     0.69327   0.39973   0.40246   0.00000  Uiso   1.00
H623   H     0.61152   0.41869   0.41811   0.00000  Uiso   1.00
H624   H     0.62172   0.38829   0.36016   0.00000  Uiso   1.00
H625   H     0.59996   0.35677   0.41159   0.00000  Uiso   1.00
H626   H     0.74113   0.48904   0.39845   0.00000  Uiso   1.00
H627   H     0.96971   0.31044   0.55808   0.00000  Uiso   1.00
H628   H     0.73209   0.04737   0.37259   0.00000  Uiso   1.00
H629   H     0.66221   0.02523   0.66630   0.00000  Uiso   1.00
H630   H     0.69912   0.47613   0.65523   0.00000  Uiso   1.00
H631   H     0.65860   0.47271   0.36928   0.00000  Uiso   1.00
H632   H     0.82602   0.46369   0.42719   0.00000  Uiso   1.00
H633   H     0.86674   0.42727   0.46074   0.00000  Uiso   1.00
H634   H     0.87005   0.03458   0.45156   0.00000  Uiso   1.00
H635   H     0.90230   0.49274   0.41686   0.00000  Uiso   1.00
H636   H     0.91132   0.49814   0.48387   0.00000  Uiso   1.00
H637   H     0.74958   0.02600   0.62109   0.00000  Uiso   1.00
H638   H     0.53259   0.17645   0.53612   0.00000  Uiso   1.00
H639   H     0.78777   0.07436   0.63129   0.00000  Uiso   1.00
H640   H     0.80438   0.47085   0.65377   0.00000  Uiso   1.00
H641   H     0.80761   0.02082   0.36247   0.00000  Uiso   1.00
H642   H     0.84935   0.01274   0.65037   0.00000  Uiso   1.00
H643   H     0.68047   0.00072   0.56453   0.00000  Uiso   1.00
H644   H     0.65162   0.44483   0.56526   0.00000  Uiso   1.00
H645   H     0.58464   0.48197   0.52377   0.00000  Uiso   1.00
H646   H     0.60082   0.01136   0.58181   0.00000  Uiso   1.00
H647   H     0.61381   0.03738   0.52289   0.00000  Uiso   1.00
H648   H     0.60750   0.32344   0.49014   0.00000  Uiso   1.00
H649   H     0.89032   0.18634   0.45857   0.00000  Uiso   1.00
H650   H     0.88854   0.31165   0.54973   0.00000  Uiso   1.00
H651   H     0.61371   0.17785   0.53212   0.00000  Uiso   1.00
H652   H     0.64372   0.12961   0.47486   0.00000  Uiso   1.00
N653   N     0.75000   0.12623   0.50000   0.00000  Uiso   1.00
N654   N     0.75000   0.37376   0.50000   0.00000  Uiso   1.00
O655   O     0.68453   0.28974   0.50000   0.00000  Uiso   1.00
O656   O     0.82611   0.37602   0.52928   0.00000  Uiso   1.00
O657   O     0.80672   0.12701   0.56492   0.00000  Uiso   1.00
O658   O     0.67298   0.37485   0.47313   0.00000  Uiso   1.00
O659   O     0.69326   0.02975   0.43212   0.00000  Uiso   1.00
O660   O     0.82971   0.47113   0.50550   0.00000  Uiso   1.00
O661   O     0.80102   0.02909   0.57186   0.00000  Uiso   1.00
O662   O     0.66749   0.46860   0.49492   0.00000  Uiso   1.00
O663   O     0.81547   0.21026   0.50000   0.00000  Uiso   1.00
O664   O     0.81547   0.28974   0.50000   0.00000  Uiso   1.00
O665   O     0.68453   0.21026   0.50000   0.00000  Uiso   1.00
O666   O     0.75000   0.28973   0.42845   0.00000  Uiso   1.00
O667   O     0.75000   0.21027   0.57155   0.00000  Uiso   1.00
O668   O     0.75000   0.28973   0.57155   0.00000  Uiso   1.00
O669   O     0.75000   0.21027   0.42845   0.00000  Uiso   1.00
O670   O     0.69926   0.12766   0.42980   0.00000  Uiso   1.00
Zn671  Zn    0.75000   0.30307   0.50000   0.00000  Uiso   1.00
Zn672  Zn    0.75000   0.19693   0.50000   0.00000  Uiso   1.00
C673   C     0.16395   0.75006   0.50186   0.00000  Uiso   1.00
C674   C     0.20894   0.94714   0.49646   0.00000  Uiso   1.00
C675   C     0.24976   0.74986   0.40624   0.00000  Uiso   1.00
C676   C     0.25018   0.75014   0.59376   0.00000  Uiso   1.00
C677   C     0.24853   0.52699   0.50104   0.00000  Uiso   1.00
C678   C     0.24879   0.97357   0.50129   0.00000  Uiso   1.00
C679   C     0.24985   0.74980   0.35512   0.00000  Uiso   1.00
C680   C     0.25001   0.75021   0.64488   0.00000  Uiso   1.00
C681   C     0.04569   0.79051   0.50249   0.00000  Uiso   1.00
C682   C     0.45376   0.71232   0.48538   0.00000  Uiso   1.00
C683   C     0.45253   0.78331   0.53628   0.00000  Uiso   1.00
C684   C     0.33605   0.74989   0.50007   0.00000  Uiso   1.00
C685   C     0.04897   0.70844   0.52560   0.00000  Uiso   1.00
C686   C     0.09156   0.79112   0.49952   0.00000  Uiso   1.00
C687   C     0.40759   0.71333   0.48043   0.00000  Uiso   1.00
C688   C     0.40653   0.78431   0.53117   0.00000  Uiso   1.00
C689   C     0.09494   0.70914   0.52261   0.00000  Uiso   1.00
C690   C     0.11618   0.75006   0.50773   0.00000  Uiso   1.00
C691   C     0.38407   0.74952   0.50321   0.00000  Uiso   1.00
C692   C     0.02434   0.74892   0.51457   0.00000  Uiso   1.00
C693   C     0.47617   0.74754   0.51306   0.00000  Uiso   1.00
C694   C     0.15263   0.62423   0.43538   0.00000  Uiso   1.00
C695   C     0.22237   0.60249   0.46662   0.00000  Uiso   1.00
C696   C     0.12896   0.66106   0.40308   0.00000  Uiso   1.00
C697   C     0.32738   0.87816   0.58230   0.00000  Uiso   1.00
C698   C     0.36901   0.90441   0.60139   0.00000  Uiso   1.00
C699   C     0.35049   0.62660   0.54646   0.00000  Uiso   1.00
C700   C     0.38103   0.59142   0.57365   0.00000  Uiso   1.00
C701   C     0.17057   0.87429   0.42014   0.00000  Uiso   1.00
C702   C     0.12295   0.88519   0.40149   0.00000  Uiso   1.00
C703   C     0.21581   0.51656   0.38923   0.00000  Uiso   1.00
C704   C     0.18189   0.99647   0.35092   0.00000  Uiso   1.00
C705   C     0.35031   0.96225   0.45989   0.00000  Uiso   1.00
C706   C     0.28826   0.89862   0.51099   0.00000  Uiso   1.00
C707   C     0.38576   0.99928   0.45263   0.00000  Uiso   1.00
C708   C     0.28501   0.53697   0.61988   0.00000  Uiso   1.00
C709   C     0.31326   0.50848   0.65722   0.00000  Uiso   1.00
C710   C     0.15534   0.97803   0.54435   0.00000  Uiso   1.00
C711   C     0.11081   0.50381   0.54308   0.00000  Uiso   1.00
C712   C     0.27765   0.60234   0.53296   0.00000  Uiso   1.00
C713   C     0.21112   0.89803   0.48965   0.00000  Uiso   1.00
C714   C     0.22225   0.55265   0.46545   0.00000  Uiso   1.00
C715   C     0.28924   0.94794   0.50521   0.00000  Uiso   1.00
C716   C     0.27497   0.55283   0.53648   0.00000  Uiso   1.00
H717   H     0.02679   0.82206   0.49396   0.00000  Uiso   1.00
H718   H     0.13966   0.58975   0.42232   0.00000  Uiso   1.00
H719   H     0.13428   0.65353   0.36299   0.00000  Uiso   1.00
H720   H     0.09253   0.66060   0.40936   0.00000  Uiso   1.00
H721   H     0.14217   0.69645   0.41232   0.00000  Uiso   1.00
H722   H     0.32915   0.84187   0.59674   0.00000  Uiso   1.00
H723   H     0.29748   0.89474   0.59904   0.00000  Uiso   1.00
H724   H     0.37147   0.90339   0.64285   0.00000  Uiso   1.00
H725   H     0.39950   0.88815   0.58649   0.00000  Uiso   1.00
H726   H     0.36719   0.94150   0.58959   0.00000  Uiso   1.00
H727   H     0.36520   0.66150   0.55484   0.00000  Uiso   1.00
H728   H     0.47200   0.68493   0.46667   0.00000  Uiso   1.00
H729   H     0.35149   0.62099   0.50520   0.00000  Uiso   1.00
H730   H     0.37634   0.55583   0.55752   0.00000  Uiso   1.00
H731   H     0.41648   0.60119   0.56895   0.00000  Uiso   1.00
H732   H     0.37464   0.59138   0.61418   0.00000  Uiso   1.00
H733   H     0.17943   0.83876   0.40661   0.00000  Uiso   1.00
H734   H     0.19327   0.89973   0.40246   0.00000  Uiso   1.00
H735   H     0.11152   0.91869   0.41811   0.00000  Uiso   1.00
H736   H     0.12172   0.88829   0.36016   0.00000  Uiso   1.00
H737   H     0.09996   0.85677   0.41159   0.00000  Uiso   1.00
H738   H     0.24113   0.98904   0.39845   0.00000  Uiso   1.00
H739   H     0.46971   0.81044   0.55808   0.00000  Uiso   1.00
H740   H     0.23209   0.54737   0.37259   0.00000  Uiso   1.00
H741   H     0.16221   0.52523   0.66630   0.00000  Uiso   1.00
H742   H     0.19912   0.97613   0.65523   0.00000  Uiso   1.00
H743   H     0.15860   0.97271   0.36928   0.00000  Uiso   1.00
H744   H     0.32602   0.96369   0.42719   0.00000  Uiso   1.00
H745   H     0.36674   0.92727   0.46074   0.00000  Uiso   1.00
H746   H     0.37005   0.53458   0.45156   0.00000  Uiso   1.00
H747   H     0.40230   0.99274   0.41686   0.00000  Uiso   1.00
H748   H     0.41132   0.99814   0.48387   0.00000  Uiso   1.00
H749   H     0.24958   0.52600   0.62109   0.00000  Uiso   1.00
H750   H     0.03259   0.67645   0.53612   0.00000  Uiso   1.00
H751   H     0.28777   0.57436   0.63129   0.00000  Uiso   1.00
H752   H     0.30438   0.97085   0.65377   0.00000  Uiso   1.00
H753   H     0.30761   0.52082   0.36247   0.00000  Uiso   1.00
H754   H     0.34935   0.51274   0.65037   0.00000  Uiso   1.00
H755   H     0.18047   0.50072   0.56453   0.00000  Uiso   1.00
H756   H     0.15162   0.94483   0.56526   0.00000  Uiso   1.00
H757   H     0.08464   0.98197   0.52377   0.00000  Uiso   1.00
H758   H     0.10082   0.51136   0.58181   0.00000  Uiso   1.00
H759   H     0.11381   0.53738   0.52289   0.00000  Uiso   1.00
H760   H     0.10750   0.82344   0.49014   0.00000  Uiso   1.00
H761   H     0.39032   0.68634   0.45857   0.00000  Uiso   1.00
H762   H     0.38854   0.81165   0.54973   0.00000  Uiso   1.00
H763   H     0.11371   0.67785   0.53212   0.00000  Uiso   1.00
H764   H     0.14372   0.62961   0.47486   0.00000  Uiso   1.00
N765   N     0.25000   0.62623   0.50000   0.00000  Uiso   1.00
N766   N     0.25000   0.87376   0.50000   0.00000  Uiso   1.00
O767   O     0.18453   0.78974   0.50000   0.00000  Uiso   1.00
O768   O     0.32611   0.87602   0.52928   0.00000  Uiso   1.00
O769   O     0.30672   0.62701   0.56492   0.00000  Uiso   1.00
O770   O     0.17298   0.87485   0.47313   0.00000  Uiso   1.00
O771   O     0.19326   0.52975   0.43212   0.00000  Uiso   1.00
O772   O     0.32971   0.97113   0.50550   0.00000  Uiso   1.00
O773   O     0.30102   0.52909   0.57186   0.00000  Uiso   1.00
O774   O     0.16749   0.96860   0.49492   0.00000  Uiso   1.00
O775   O     0.31547   0.71026   0.50000   0.00000  Uiso   1.00
O776   O     0.31547   0.78974   0.50000   0.00000  Uiso   1.00
O777   O     0.18453   0.71026   0.50000   0.00000  Uiso   1.00
O778   O     0.25000   0.78973   0.42845   0.00000  Uiso   1.00
O779   O     0.25000   0.71027   0.57155   0.00000  Uiso   1.00
O780   O     0.25000   0.78973   0.57155   0.00000  Uiso   1.00
O781   O     0.25000   0.71027   0.42845   0.00000  Uiso   1.00
O782   O     0.19926   0.62766   0.42980   0.00000  Uiso   1.00
Zn783  Zn    0.25000   0.80307   0.50000   0.00000  Uiso   1.00
Zn784  Zn    0.25000   0.69693   0.50000   0.00000  Uiso   1.00
C785   C     0.66395   0.75006   0.50186   0.00000  Uiso   1.00
C786   C     0.70894   0.94714   0.49646   0.00000  Uiso   1.00
C787   C     0.74976   0.74986   0.40624   0.00000  Uiso   1.00
C788   C     0.75018   0.75014   0.59376   0.00000  Uiso   1.00
C789   C     0.74853   0.52699   0.50104   0.00000  Uiso   1.00
C790   C     0.74879   0.97357   0.50129   0.00000  Uiso   1.00
C791   C     0.74985   0.74980   0.35512   0.00000  Uiso   1.00
C792   C     0.75001   0.75021   0.64488   0.00000  Uiso   1.00
C793   C     0.54569   0.79051   0.50249   0.00000  Uiso   1.00
C794   C     0.95376   0.71232   0.48538   0.00000  Uiso   1.00
C795   C     0.95253   0.78331   0.53628   0.00000  Uiso   1.00
C796   C     0.83605   0.74989   0.50007   0.00000  Uiso   1.00
C797   C     0.54897   0.70844   0.52560   0.00000  Uiso   1.00
C798   C     0.59156   0.79112   0.49952   0.00000  Uiso   1.00
C799   C     0.90759   0.71333   0.48043   0.00000  Uiso   1.00
C800   C     0.90653   0.78431   0.53117   0.00000  Uiso   1.00
C801   C     0.59494   0.70914   0.52261   0.00000  Uiso   1.00
C802   C     0.61618   0.75006   0.50773   0.00000  Uiso   1.00
C803   C     0.88407   0.74952   0.50321   0.00000  Uiso   1.00
C804   C     0.52434   0.74892   0.51457   0.00000  Uiso   1.00
C805   C     0.97617   0.74754   0.51306   0.00000  Uiso   1.00
C806   C     0.65263   0.62423   0.43538   0.00000  Uiso   1.00
C807   C     0.72237   0.60249   0.46662   0.00000  Uiso   1.00
C808   C     0.62896   0.66106   0.40308   0.00000  Uiso   1.00
C809   C     0.82738   0.87816   0.58230   0.00000  Uiso   1.00
C810   C     0.86901   0.90441   0.60139   0.00000  Uiso   1.00
C811   C     0.85049   0.62660   0.54646   0.00000  Uiso   1.00
C812   C     0.88103   0.59142   0.57365   0.00000  Uiso   1.00
C813   C     0.67057   0.87429   0.42014   0.00000  Uiso   1.00
C814   C     0.62295   0.88519   0.40149   0.00000  Uiso   1.00
C815   C     0.71581   0.51656   0.38923   0.00000  Uiso   1.00
C816   C     0.68189   0.99647   0.35092   0.00000  Uiso   1.00
C817   C     0.85031   0.96225   0.45989   0.00000  Uiso   1.00
C818   C     0.78826   0.89862   0.51099   0.00000  Uiso   1.00
C819   C     0.88576   0.99928   0.45263   0.00000  Uiso   1.00
C820   C     0.78501   0.53697   0.61988   0.00000  Uiso   1.00
C821   C     0.81326   0.50848   0.65722   0.00000  Uiso   1.00
C822   C     0.65534   0.97803   0.54435   0.00000  Uiso   1.00
C823   C     0.61081   0.50381   0.54308   0.00000  Uiso   1.00
C824   C     0.77765   0.60234   0.53296   0.00000  Uiso   1.00
C825   C     0.71112   0.89803   0.48965   0.00000  Uiso   1.00
C826   C     0.72225   0.55265   0.46545   0.00000  Uiso   1.00
C827   C     0.78924   0.94794   0.50521   0.00000  Uiso   1.00
C828   C     0.77497   0.55283   0.53648   0.00000  Uiso   1.00
H829   H     0.52679   0.82206   0.49396   0.00000  Uiso   1.00
H830   H     0.63966   0.58975   0.42232   0.00000  Uiso   1.00
H831   H     0.63428   0.65353   0.36299   0.00000  Uiso   1.00
H832   H     0.59253   0.66060   0.40936   0.00000  Uiso   1.00
H833   H     0.64217   0.69645   0.41232   0.00000  Uiso   1.00
H834   H     0.82915   0.84187   0.59674   0.00000  Uiso   1.00
H835   H     0.79748   0.89474   0.59904   0.00000  Uiso   1.00
H836   H     0.87147   0.90339   0.64285   0.00000  Uiso   1.00
H837   H     0.89950   0.88815   0.58649   0.00000  Uiso   1.00
H838   H     0.86719   0.94150   0.58959   0.00000  Uiso   1.00
H839   H     0.86520   0.66150   0.55484   0.00000  Uiso   1.00
H840   H     0.97200   0.68493   0.46667   0.00000  Uiso   1.00
H841   H     0.85149   0.62099   0.50520   0.00000  Uiso   1.00
H842   H     0.87634   0.55583   0.55752   0.00000  Uiso   1.00
H843   H     0.91648   0.60119   0.56895   0.00000  Uiso   1.00
H844   H     0.87464   0.59138   0.61418   0.00000  Uiso   1.00
H845   H     0.67943   0.83876   0.40661   0.00000  Uiso   1.00
H846   H     0.69327   0.89973   0.40246   0.00000  Uiso   1.00
H847   H     0.61152   0.91869   0.41811   0.00000  Uiso   1.00
H848   H     0.62172   0.88829   0.36016   0.00000  Uiso   1.00
H849   H     0.59996   0.85677   0.41159   0.00000  Uiso   1.00
H850   H     0.74113   0.98904   0.39845   0.00000  Uiso   1.00
H851   H     0.96971   0.81044   0.55808   0.00000  Uiso   1.00
H852   H     0.73209   0.54737   0.37259   0.00000  Uiso   1.00
H853   H     0.66221   0.52523   0.66630   0.00000  Uiso   1.00
H854   H     0.69912   0.97613   0.65523   0.00000  Uiso   1.00
H855   H     0.65860   0.97271   0.36928   0.00000  Uiso   1.00
H856   H     0.82602   0.96369   0.42719   0.00000  Uiso   1.00
H857   H     0.86674   0.92727   0.46074   0.00000  Uiso   1.00
H858   H     0.87005   0.53458   0.45156   0.00000  Uiso   1.00
H859   H     0.90230   0.99274   0.41686   0.00000  Uiso   1.00
H860   H     0.91132   0.99814   0.48387   0.00000  Uiso   1.00
H861   H     0.74958   0.52600   0.62109   0.00000  Uiso   1.00
H862   H     0.53259   0.67645   0.53612   0.00000  Uiso   1.00
H863   H     0.78777   0.57436   0.63129   0.00000  Uiso   1.00
H864   H     0.80438   0.97085   0.65377   0.00000  Uiso   1.00
H865   H     0.80761   0.52082   0.36247   0.00000  Uiso   1.00
H866   H     0.84935   0.51274   0.65037   0.00000  Uiso   1.00
H867   H     0.68047   0.50072   0.56453   0.00000  Uiso   1.00
H868   H     0.65162   0.94483   0.56526   0.00000  Uiso   1.00
H869   H     0.58464   0.98197   0.52377   0.00000  Uiso   1.00
H870   H     0.60082   0.51136   0.58181   0.00000  Uiso   1.00
H871   H     0.61381   0.53738   0.52289   0.00000  Uiso   1.00
H872   H     0.60750   0.82344   0.49014   0.00000  Uiso   1.00
H873   H     0.89032   0.68634   0.45857   0.00000  Uiso   1.00
H874   H     0.88854   0.81165   0.54973   0.00000  Uiso   1.00
H875   H     0.61371   0.67785   0.53212   0.00000  Uiso   1.00
H876   H     0.64372   0.62961   0.47486   0.00000  Uiso   1.00
N877   N     0.75000   0.62623   0.50000   0.00000  Uiso   1.00
N878   N     0.75000   0.87376   0.50000   0.00000  Uiso   1.00
O879   O     0.68453   0.78974   0.50000   0.00000  Uiso   1.00
O880   O     0.82611   0.87602   0.52928   0.00000  Uiso   1.00
O881   O     0.80672   0.62701   0.56492   0.00000  Uiso   1.00
O882   O     0.67298   0.87485   0.47313   0.00000  Uiso   1.00
O883   O     0.69326   0.52975   0.43212   0.00000  Uiso   1.00
O884   O     0.82971   0.97113   0.50550   0.00000  Uiso   1.00
O885   O     0.80102   0.52909   0.57186   0.00000  Uiso   1.00
O886   O     0.66749   0.96860   0.49492   0.00000  Uiso   1.00
O887   O     0.81547   0.71026   0.50000   0.00000  Uiso   1.00
O888   O     0.81547   0.78974   0.50000   0.00000  Uiso   1.00
O889   O     0.68453   0.71026   0.50000   0.00000  Uiso   1.00
O890   O     0.75000   0.78973   0.42845   0.00000  Uiso   1.00
O891   O     0.75000   0.71027   0.57155   0.00000  Uiso   1.00
O892   O     0.75000   0.78973   0.57155   0.00000  Uiso   1.00
O893   O     0.75000   0.71027   0.42845   0.00000  Uiso   1.00
O894   O     0.69926   0.62766   0.42980   0.00000  Uiso   1.00
Zn895  Zn    0.75000   0.80307   0.50000   0.00000  Uiso   1.00
Zn896  Zn    0.75000   0.69693   0.50000   0.00000  Uiso   1.00
C897   C     0.16395   0.25006   0.83520   0.00000  Uiso   1.00
C898   C     0.20894   0.44714   0.82979   0.00000  Uiso   1.00
C899   C     0.24976   0.24986   0.73958   0.00000  Uiso   1.00
C900   C     0.25018   0.25014   0.92709   0.00000  Uiso   1.00
C901   C     0.24853   0.02699   0.83438   0.00000  Uiso   1.00
C902   C     0.24879   0.47357   0.83462   0.00000  Uiso   1.00
C903   C     0.24985   0.24980   0.68845   0.00000  Uiso   1.00
C904   C     0.25001   0.25021   0.97821   0.00000  Uiso   1.00
C905   C     0.04569   0.29051   0.83582   0.00000  Uiso   1.00
C906   C     0.45376   0.21232   0.81872   0.00000  Uiso   1.00
C907   C     0.45253   0.28331   0.86962   0.00000  Uiso   1.00
C908   C     0.33605   0.24989   0.83340   0.00000  Uiso   1.00
C909   C     0.04897   0.20844   0.85894   0.00000  Uiso   1.00
C910   C     0.09156   0.29112   0.83286   0.00000  Uiso   1.00
C911   C     0.40759   0.21333   0.81377   0.00000  Uiso   1.00
C912   C     0.40653   0.28431   0.86450   0.00000  Uiso   1.00
C913   C     0.09494   0.20914   0.85595   0.00000  Uiso   1.00
C914   C     0.11618   0.25006   0.84106   0.00000  Uiso   1.00
C915   C     0.38407   0.24952   0.83654   0.00000  Uiso   1.00
C916   C     0.02434   0.24892   0.84790   0.00000  Uiso   1.00
C917   C     0.47617   0.24754   0.84640   0.00000  Uiso   1.00
C918   C     0.15263   0.12423   0.76871   0.00000  Uiso   1.00
C919   C     0.22237   0.10249   0.79995   0.00000  Uiso   1.00
C920   C     0.12896   0.16106   0.73641   0.00000  Uiso   1.00
C921   C     0.32738   0.37816   0.91563   0.00000  Uiso   1.00
C922   C     0.36901   0.40441   0.93472   0.00000  Uiso   1.00
C923   C     0.35049   0.12660   0.87980   0.00000  Uiso   1.00
C924   C     0.38103   0.09142   0.90698   0.00000  Uiso   1.00
C925   C     0.17057   0.37429   0.75347   0.00000  Uiso   1.00
C926   C     0.12295   0.38519   0.73483   0.00000  Uiso   1.00
C927   C     0.21581   0.01656   0.72256   0.00000  Uiso   1.00
C928   C     0.18189   0.49647   0.68425   0.00000  Uiso   1.00
C929   C     0.35031   0.46225   0.79322   0.00000  Uiso   1.00
C930   C     0.28826   0.39862   0.84433   0.00000  Uiso   1.00
C931   C     0.38576   0.49928   0.78596   0.00000  Uiso   1.00
C932   C     0.28501   0.03697   0.95321   0.00000  Uiso   1.00
C933   C     0.31326   0.00848   0.99055   0.00000  Uiso   1.00
C934   C     0.15534   0.47803   0.87768   0.00000  Uiso   1.00
C935   C     0.11081   0.00381   0.87641   0.00000  Uiso   1.00
C936   C     0.27765   0.10234   0.86629   0.00000  Uiso   1.00
C937   C     0.21112   0.39803   0.82299   0.00000  Uiso   1.00
C938   C     0.22225   0.05265   0.79878   0.00000  Uiso   1.00
C939   C     0.28924   0.44794   0.83854   0.00000  Uiso   1.00
C940   C     0.27497   0.05283   0.86981   0.00000  Uiso   1.00
H941   H     0.02679   0.32206   0.82729   0.00000  Uiso   1.00
H942   H     0.13966   0.08975   0.75565   0.00000  Uiso   1.00
H943   H     0.13428   0.15353   0.69633   0.00000  Uiso   1.00
H944   H     0.09253   0.16060   0.74269   0.00000  Uiso   1.00
H945   H     0.14217   0.19645   0.74566   0.00000  Uiso   1.00
H946   H     0.32915   0.34187   0.93008   0.00000  Uiso   1.00
H947   H     0.29748   0.39474   0.93238   0.00000  Uiso   1.00
H948   H     0.37147   0.40339   0.97618   0.00000  Uiso   1.00
H949   H     0.39950   0.38815   0.91982   0.00000  Uiso   1.00
H950   H     0.36719   0.44150   0.92293   0.00000  Uiso   1.00
H951   H     0.36520   0.16150   0.88817   0.00000  Uiso   1.00
H952   H     0.47200   0.18493   0.80000   0.00000  Uiso   1.00
H953   H     0.35149   0.12099   0.83853   0.00000  Uiso   1.00
H954   H     0.37634   0.05583   0.89086   0.00000  Uiso   1.00
H955   H     0.41648   0.10119   0.90228   0.00000  Uiso   1.00
H956   H     0.37464   0.09138   0.94751   0.00000  Uiso   1.00
H957   H     0.17943   0.33876   0.73994   0.00000  Uiso   1.00
H958   H     0.19327   0.39973   0.73579   0.00000  Uiso   1.00
H959   H     0.11152   0.41869   0.75144   0.00000  Uiso   1.00
H960   H     0.12172   0.38829   0.69349   0.00000  Uiso   1.00
H961   H     0.09996   0.35677   0.74492   0.00000  Uiso   1.00
H962   H     0.24113   0.48904   0.73178   0.00000  Uiso   1.00
H963   H     0.46971   0.31044   0.89141   0.00000  Uiso   1.00
H964   H     0.23209   0.04737   0.70592   0.00000  Uiso   1.00
H965   H     0.16221   0.02523   0.99963   0.00000  Uiso   1.00
H966   H     0.19912   0.47613   0.98856   0.00000  Uiso   1.00
H967   H     0.15860   0.47271   0.70261   0.00000  Uiso   1.00
H968   H     0.32602   0.46369   0.76052   0.00000  Uiso   1.00
H969   H     0.36674   0.42727   0.79408   0.00000  Uiso   1.00
H970   H     0.37005   0.03458   0.78489   0.00000  Uiso   1.00
H971   H     0.40230   0.49274   0.75020   0.00000  Uiso   1.00
H972   H     0.41132   0.49814   0.81720   0.00000  Uiso   1.00
H973   H     0.24958   0.02600   0.95443   0.00000  Uiso   1.00
H974   H     0.03259   0.17645   0.86945   0.00000  Uiso   1.00
H975   H     0.28777   0.07436   0.96462   0.00000  Uiso   1.00
H976   H     0.30438   0.47085   0.98711   0.00000  Uiso   1.00
H977   H     0.30761   0.02082   0.69580   0.00000  Uiso   1.00
H978   H     0.34935   0.01274   0.98371   0.00000  Uiso   1.00
H979   H     0.18047   0.00072   0.89786   0.00000  Uiso   1.00
H980   H     0.15162   0.44483   0.89860   0.00000  Uiso   1.00
H981   H     0.08464   0.48197   0.85711   0.00000  Uiso   1.00
H982   H     0.10082   0.01136   0.91514   0.00000  Uiso   1.00
H983   H     0.11381   0.03738   0.85622   0.00000  Uiso   1.00
H984   H     0.10750   0.32344   0.82348   0.00000  Uiso   1.00
H985   H     0.39032   0.18634   0.79190   0.00000  Uiso   1.00
H986   H     0.38854   0.31165   0.88306   0.00000  Uiso   1.00
H987   H     0.11371   0.17785   0.86545   0.00000  Uiso   1.00
H988   H     0.14372   0.12961   0.80820   0.00000  Uiso   1.00
N989   N     0.25000   0.12623   0.83333   0.00000  Uiso   1.00
N990   N     0.25000   0.37376   0.83333   0.00000  Uiso   1.00
O991   O     0.18453   0.28974   0.83334   0.00000  Uiso   1.00
O992   O     0.32611   0.37602   0.86261   0.00000  Uiso   1.00
O993   O     0.30672   0.12701   0.89825   0.00000  Uiso   1.00
O994   O     0.17298   0.37485   0.80647   0.00000  Uiso   1.00
O995   O     0.19326   0.02975   0.76545   0.00000  Uiso   1.00
O996   O     0.32971   0.47113   0.83883   0.00000  Uiso   1.00
O997   O     0.30102   0.02909   0.90520   0.00000  Uiso   1.00
O998   O     0.16749   0.46860   0.82825   0.00000  Uiso   1.00
O999   O     0.31547   0.21026   0.83333   0.00000  Uiso   1.00
O1000  O     0.31547   0.28974   0.83333   0.00000  Uiso   1.00
O1001  O     0.18453   0.21026   0.83334   0.00000  Uiso   1.00
O1002  O     0.25000   0.28973   0.76178   0.00000  Uiso   1.00
O1003  O     0.25000   0.21027   0.90489   0.00000  Uiso   1.00
O1004  O     0.25000   0.28973   0.90489   0.00000  Uiso   1.00
O1005  O     0.25000   0.21027   0.76178   0.00000  Uiso   1.00
O1006  O     0.19926   0.12766   0.76313   0.00000  Uiso   1.00
Zn1007 Zn    0.25000   0.30307   0.83333   0.00000  Uiso   1.00
Zn1008 Zn    0.25000   0.19693   0.83333   0.00000  Uiso   1.00
C1009  C     0.66395   0.25006   0.83520   0.00000  Uiso   1.00
C1010  C     0.70894   0.44714   0.82979   0.00000  Uiso   1.00
C1011  C     0.74976   0.24986   0.73958   0.00000  Uiso   1.00
C1012  C     0.75018   0.25014   0.92709   0.00000  Uiso   1.00
C1013  C     0.74853   0.02699   0.83438   0.00000  Uiso   1.00
C1014  C     0.74879   0.47357   0.83462   0.00000  Uiso   1.00
C1015  C     0.74985   0.24980   0.68845   0.00000  Uiso   1.00
C1016  C     0.75001   0.25021   0.97821   0.00000  Uiso   1.00
C1017  C     0.54569   0.29051   0.83582   0.00000  Uiso   1.00
C1018  C     0.95376   0.21232   0.81872   0.00000  Uiso   1.00
C1019  C     0.95253   0.28331   0.86962   0.00000  Uiso   1.00
C1020  C     0.83605   0.24989   0.83340   0.00000  Uiso   1.00
C1021  C     0.54897   0.20844   0.85894   0.00000  Uiso   1.00
C1022  C     0.59156   0.29112   0.83286   0.00000  Uiso   1.00
C1023  C     0.90759   0.21333   0.81377   0.00000  Uiso   1.00
C1024  C     0.90653   0.28431   0.86450   0.00000  Uiso   1.00
C1025  C     0.59494   0.20914   0.85595   0.00000  Uiso   1.00
C1026  C     0.61618   0.25006   0.84106   0.00000  Uiso   1.00
C1027  C     0.88407   0.24952   0.83654   0.00000  Uiso   1.00
C1028  C     0.52434   0.24892   0.84790   0.00000  Uiso   1.00
C1029  C     0.97617   0.24754   0.84640   0.00000  Uiso   1.00
C1030  C     0.65263   0.12423   0.76871   0.00000  Uiso   1.00
C1031  C     0.72237   0.10249   0.79995   0.00000  Uiso   1.00
C1032  C     0.62896   0.16106   0.73641   0.00000  Uiso   1.00
C1033  C     0.82738   0.37816   0.91563   0.00000  Uiso   1.00
C1034  C     0.86901   0.40441   0.93472   0.00000  Uiso   1.00
C1035  C     0.85049   0.12660   0.87980   0.00000  Uiso   1.00
C1036  C     0.88103   0.09142   0.90698   0.00000  Uiso   1.00
C1037  C     0.67057   0.37429   0.75347   0.00000  Uiso   1.00
C1038  C     0.62295   0.38519   0.73483   0.00000  Uiso   1.00
C1039  C     0.71581   0.01656   0.72256   0.00000  Uiso   1.00
C1040  C     0.68189   0.49647   0.68425   0.00000  Uiso   1.00
C1041  C     0.85031   0.46225   0.79322   0.00000  Uiso   1.00
C1042  C     0.78826   0.39862   0.84433   0.00000  Uiso   1.00
C1043  C     0.88576   0.49928   0.78596   0.00000  Uiso   1.00
C1044  C     0.78501   0.03697   0.95321   0.00000  Uiso   1.00
C1045  C     0.81326   0.00848   0.99055   0.00000  Uiso   1.00
C1046  C     0.65534   0.47803   0.87768   0.00000  Uiso   1.00
C1047  C     0.61081   0.00381   0.87641   0.00000  Uiso   1.00
C1048  C     0.77765   0.10234   0.86629   0.00000  Uiso   1.00
C1049  C     0.71112   0.39803   0.82299   0.00000  Uiso   1.00
C1050  C     0.72225   0.05265   0.79878   0.00000  Uiso   1.00
C1051  C     0.78924   0.44794   0.83854   0.00000  Uiso   1.00
C1052  C     0.77497   0.05283   0.86981   0.00000  Uiso   1.00
H1053  H     0.52679   0.32206   0.82729   0.00000  Uiso   1.00
H1054  H     0.63966   0.08975   0.75565   0.00000  Uiso   1.00
H1055  H     0.63428   0.15353   0.69633   0.00000  Uiso   1.00
H1056  H     0.59253   0.16060   0.74269   0.00000  Uiso   1.00
H1057  H     0.64217   0.19645   0.74566   0.00000  Uiso   1.00
H1058  H     0.82915   0.34187   0.93008   0.00000  Uiso   1.00
H1059  H     0.79748   0.39474   0.93238   0.00000  Uiso   1.00
H1060  H     0.87147   0.40339   0.97618   0.00000  Uiso   1.00
H1061  H     0.89950   0.38815   0.91982   0.00000  Uiso   1.00
H1062  H     0.86719   0.44150   0.92293   0.00000  Uiso   1.00
H1063  H     0.86520   0.16150   0.88817   0.00000  Uiso   1.00
H1064  H     0.97200   0.18493   0.80000   0.00000  Uiso   1.00
H1065  H     0.85149   0.12099   0.83853   0.00000  Uiso   1.00
H1066  H     0.87634   0.05583   0.89086   0.00000  Uiso   1.00
H1067  H     0.91648   0.10119   0.90228   0.00000  Uiso   1.00
H1068  H     0.87464   0.09138   0.94751   0.00000  Uiso   1.00
H1069  H     0.67943   0.33876   0.73994   0.00000  Uiso   1.00
H1070  H     0.69327   0.39973   0.73579   0.00000  Uiso   1.00
H1071  H     0.61152   0.41869   0.75144   0.00000  Uiso   1.00
H1072  H     0.62172   0.38829   0.69349   0.00000  Uiso   1.00
H1073  H     0.59996   0.35677   0.74492   0.00000  Uiso   1.00
H1074  H     0.74113   0.48904   0.73178   0.00000  Uiso   1.00
H1075  H     0.96971   0.31044   0.89141   0.00000  Uiso   1.00
H1076  H     0.73209   0.04737   0.70592   0.00000  Uiso   1.00
H1077  H     0.66221   0.02523   0.99963   0.00000  Uiso   1.00
H1078  H     0.69912   0.47613   0.98856   0.00000  Uiso   1.00
H1079  H     0.65860   0.47271   0.70261   0.00000  Uiso   1.00
H1080  H     0.82602   0.46369   0.76052   0.00000  Uiso   1.00
H1081  H     0.86674   0.42727   0.79408   0.00000  Uiso   1.00
H1082  H     0.87005   0.03458   0.78489   0.00000  Uiso   1.00
H1083  H     0.90230   0.49274   0.75020   0.00000  Uiso   1.00
H1084  H     0.91132   0.49814   0.81720   0.00000  Uiso   1.00
H1085  H     0.74958   0.02600   0.95443   0.00000  Uiso   1.00
H1086  H     0.53259   0.17645   0.86945   0.00000  Uiso   1.00
H1087  H     0.78777   0.07436   0.96462   0.00000  Uiso   1.00
H1088  H     0.80438   0.47085   0.98711   0.00000  Uiso   1.00
H1089  H     0.80761   0.02082   0.69580   0.00000  Uiso   1.00
H1090  H     0.84935   0.01274   0.98371   0.00000  Uiso   1.00
H1091  H     0.68047   0.00072   0.89786   0.00000  Uiso   1.00
H1092  H     0.65162   0.44483   0.89860   0.00000  Uiso   1.00
H1093  H     0.58464   0.48197   0.85711   0.00000  Uiso   1.00
H1094  H     0.60082   0.01136   0.91514   0.00000  Uiso   1.00
H1095  H     0.61381   0.03738   0.85622   0.00000  Uiso   1.00
H1096  H     0.60750   0.32344   0.82348   0.00000  Uiso   1.00
H1097  H     0.89032   0.18634   0.79190   0.00000  Uiso   1.00
H1098  H     0.88854   0.31165   0.88306   0.00000  Uiso   1.00
H1099  H     0.61371   0.17785   0.86545   0.00000  Uiso   1.00
H1100  H     0.64372   0.12961   0.80820   0.00000  Uiso   1.00
N1101  N     0.75000   0.12623   0.83333   0.00000  Uiso   1.00
N1102  N     0.75000   0.37376   0.83333   0.00000  Uiso   1.00
O1103  O     0.68453   0.28974   0.83334   0.00000  Uiso   1.00
O1104  O     0.82611   0.37602   0.86261   0.00000  Uiso   1.00
O1105  O     0.80672   0.12701   0.89825   0.00000  Uiso   1.00
O1106  O     0.67298   0.37485   0.80647   0.00000  Uiso   1.00
O1107  O     0.69326   0.02975   0.76545   0.00000  Uiso   1.00
O1108  O     0.82971   0.47113   0.83883   0.00000  Uiso   1.00
O1109  O     0.80102   0.02909   0.90520   0.00000  Uiso   1.00
O1110  O     0.66749   0.46860   0.82825   0.00000  Uiso   1.00
O1111  O     0.81547   0.21026   0.83333   0.00000  Uiso   1.00
O1112  O     0.81547   0.28974   0.83333   0.00000  Uiso   1.00
O1113  O     0.68453   0.21026   0.83334   0.00000  Uiso   1.00
O1114  O     0.75000   0.28973   0.76178   0.00000  Uiso   1.00
O1115  O     0.75000   0.21027   0.90489   0.00000  Uiso   1.00
O1116  O     0.75000   0.28973   0.90489   0.00000  Uiso   1.00
O1117  O     0.75000   0.21027   0.76178   0.00000  Uiso   1.00
O1118  O     0.69926   0.12766   0.76313   0.00000  Uiso   1.00
Zn1119 Zn    0.75000   0.30307   0.83333   0.00000  Uiso   1.00
Zn1120 Zn    0.75000   0.19693   0.83333   0.00000  Uiso   1.00
C1121  C     0.16395   0.75006   0.83520   0.00000  Uiso   1.00
C1122  C     0.20894   0.94714   0.82979   0.00000  Uiso   1.00
C1123  C     0.24976   0.74986   0.73958   0.00000  Uiso   1.00
C1124  C     0.25018   0.75014   0.92709   0.00000  Uiso   1.00
C1125  C     0.24853   0.52699   0.83438   0.00000  Uiso   1.00
C1126  C     0.24879   0.97357   0.83462   0.00000  Uiso   1.00
C1127  C     0.24985   0.74980   0.68845   0.00000  Uiso   1.00
C1128  C     0.25001   0.75021   0.97821   0.00000  Uiso   1.00
C1129  C     0.04569   0.79051   0.83582   0.00000  Uiso   1.00
C1130  C     0.45376   0.71232   0.81872   0.00000  Uiso   1.00
C1131  C     0.45253   0.78331   0.86962   0.00000  Uiso   1.00
C1132  C     0.33605   0.74989   0.83340   0.00000  Uiso   1.00
C1133  C     0.04897   0.70844   0.85894   0.00000  Uiso   1.00
C1134  C     0.09156   0.79112   0.83286   0.00000  Uiso   1.00
C1135  C     0.40759   0.71333   0.81377   0.00000  Uiso   1.00
C1136  C     0.40653   0.78431   0.86450   0.00000  Uiso   1.00
C1137  C     0.09494   0.70914   0.85595   0.00000  Uiso   1.00
C1138  C     0.11618   0.75006   0.84106   0.00000  Uiso   1.00
C1139  C     0.38407   0.74952   0.83654   0.00000  Uiso   1.00
C1140  C     0.02434   0.74892   0.84790   0.00000  Uiso   1.00
C1141  C     0.47617   0.74754   0.84640   0.00000  Uiso   1.00
C1142  C     0.15263   0.62423   0.76871   0.00000  Uiso   1.00
C1143  C     0.22237   0.60249   0.79995   0.00000  Uiso   1.00
C1144  C     0.12896   0.66106   0.73641   0.00000  Uiso   1.00
C1145  C     0.32738   0.87816   0.91563   0.00000  Uiso   1.00
C1146  C     0.36901   0.90441   0.93472   0.00000  Uiso   1.00
C1147  C     0.35049   0.62660   0.87980   0.00000  Uiso   1.00
C1148  C     0.38103   0.59142   0.90698   0.00000  Uiso   1.00
C1149  C     0.17057   0.87429   0.75347   0.00000  Uiso   1.00
C1150  C     0.12295   0.88519   0.73483   0.00000  Uiso   1.00
C1151  C     0.21581   0.51656   0.72256   0.00000  Uiso   1.00
C1152  C     0.18189   0.99647   0.68425   0.00000  Uiso   1.00
C1153  C     0.35031   0.96225   0.79322   0.00000  Uiso   1.00
C1154  C     0.28826   0.89862   0.84433   0.00000  Uiso   1.00
C1155  C     0.38576   0.99928   0.78596   0.00000  Uiso   1.00
C1156  C     0.28501   0.53697   0.95321   0.00000  Uiso   1.00
C1157  C     0.31326   0.50848   0.99055   0.00000  Uiso   1.00
C1158  C     0.15534   0.97803   0.87768   0.00000  Uiso   1.00
C1159  C     0.11081   0.50381   0.87641   0.00000  Uiso   1.00
C1160  C     0.27765   0.60234   0.86629   0.00000  Uiso   1.00
C1161  C     0.21112   0.89803   0.82299   0.00000  Uiso   1.00
C1162  C     0.22225   0.55265   0.79878   0.00000  Uiso   1.00
C1163  C     0.28924   0.94794   0.83854   0.00000  Uiso   1.00
C1164  C     0.27497   0.55283   0.86981   0.00000  Uiso   1.00
H1165  H     0.02679   0.82206   0.82729   0.00000  Uiso   1.00
H1166  H     0.13966   0.58975   0.75565   0.00000  Uiso   1.00
H1167  H     0.13428   0.65353   0.69633   0.00000  Uiso   1.00
H1168  H     0.09253   0.66060   0.74269   0.00000  Uiso   1.00
H1169  H     0.14217   0.69645   0.74566   0.00000  Uiso   1.00
H1170  H     0.32915   0.84187   0.93008   0.00000  Uiso   1.00
H1171  H     0.29748   0.89474   0.93238   0.00000  Uiso   1.00
H1172  H     0.37147   0.90339   0.97618   0.00000  Uiso   1.00
H1173  H     0.39950   0.88815   0.91982   0.00000  Uiso   1.00
H1174  H     0.36719   0.94150   0.92293   0.00000  Uiso   1.00
H1175  H     0.36520   0.66150   0.88817   0.00000  Uiso   1.00
H1176  H     0.47200   0.68493   0.80000   0.00000  Uiso   1.00
H1177  H     0.35149   0.62099   0.83853   0.00000  Uiso   1.00
H1178  H     0.37634   0.55583   0.89086   0.00000  Uiso   1.00
H1179  H     0.41648   0.60119   0.90228   0.00000  Uiso   1.00
H1180  H     0.37464   0.59138   0.94751   0.00000  Uiso   1.00
H1181  H     0.17943   0.83876   0.73994   0.00000  Uiso   1.00
H1182  H     0.19327   0.89973   0.73579   0.00000  Uiso   1.00
H1183  H     0.11152   0.91869   0.75144   0.00000  Uiso   1.00
H1184  H     0.12172   0.88829   0.69349   0.00000  Uiso   1.00
H1185  H     0.09996   0.85677   0.74492   0.00000  Uiso   1.00
H1186  H     0.24113   0.98904   0.73178   0.00000  Uiso   1.00
H1187  H     0.46971   0.81044   0.89141   0.00000  Uiso   1.00
H1188  H     0.23209   0.54737   0.70592   0.00000  Uiso   1.00
H1189  H     0.16221   0.52523   0.99963   0.00000  Uiso   1.00
H1190  H     0.19912   0.97613   0.98856   0.00000  Uiso   1.00
H1191  H     0.15860   0.97271   0.70261   0.00000  Uiso   1.00
H1192  H     0.32602   0.96369   0.76052   0.00000  Uiso   1.00
H1193  H     0.36674   0.92727   0.79408   0.00000  Uiso   1.00
H1194  H     0.37005   0.53458   0.78489   0.00000  Uiso   1.00
H1195  H     0.40230   0.99274   0.75020   0.00000  Uiso   1.00
H1196  H     0.41132   0.99814   0.81720   0.00000  Uiso   1.00
H1197  H     0.24958   0.52600   0.95443   0.00000  Uiso   1.00
H1198  H     0.03259   0.67645   0.86945   0.00000  Uiso   1.00
H1199  H     0.28777   0.57436   0.96462   0.00000  Uiso   1.00
H1200  H     0.30438   0.97085   0.98711   0.00000  Uiso   1.00
H1201  H     0.30761   0.52082   0.69580   0.00000  Uiso   1.00
H1202  H     0.34935   0.51274   0.98371   0.00000  Uiso   1.00
H1203  H     0.18047   0.50072   0.89786   0.00000  Uiso   1.00
H1204  H     0.15162   0.94483   0.89860   0.00000  Uiso   1.00
H1205  H     0.08464   0.98197   0.85711   0.00000  Uiso   1.00
H1206  H     0.10082   0.51136   0.91514   0.00000  Uiso   1.00
H1207  H     0.11381   0.53738   0.85622   0.00000  Uiso   1.00
H1208  H     0.10750   0.82344   0.82348   0.00000  Uiso   1.00
H1209  H     0.39032   0.68634   0.79190   0.00000  Uiso   1.00
H1210  H     0.38854   0.81165   0.88306   0.00000  Uiso   1.00
H1211  H     0.11371   0.67785   0.86545   0.00000  Uiso   1.00
H1212  H     0.14372   0.62961   0.80820   0.00000  Uiso   1.00
N1213  N     0.25000   0.62623   0.83333   0.00000  Uiso   1.00
N1214  N     0.25000   0.87376   0.83333   0.00000  Uiso   1.00
O1215  O     0.18453   0.78974   0.83334   0.00000  Uiso   1.00
O1216  O     0.32611   0.87602   0.86261   0.00000  Uiso   1.00
O1217  O     0.30672   0.62701   0.89825   0.00000  Uiso   1.00
O1218  O     0.17298   0.87485   0.80647   0.00000  Uiso   1.00
O1219  O     0.19326   0.52975   0.76545   0.00000  Uiso   1.00
O1220  O     0.32971   0.97113   0.83883   0.00000  Uiso   1.00
O1221  O     0.30102   0.52909   0.90520   0.00000  Uiso   1.00
O1222  O     0.16749   0.96860   0.82825   0.00000  Uiso   1.00
O1223  O     0.31547   0.71026   0.83333   0.00000  Uiso   1.00
O1224  O     0.31547   0.78974   0.83333   0.00000  Uiso   1.00
O1225  O     0.18453   0.71026   0.83334   0.00000  Uiso   1.00
O1226  O     0.25000   0.78973   0.76178   0.00000  Uiso   1.00
O1227  O     0.25000   0.71027   0.90489   0.00000  Uiso   1.00
O1228  O     0.25000   0.78973   0.90489   0.00000  Uiso   1.00
O1229  O     0.25000   0.71027   0.76178   0.00000  Uiso   1.00
O1230  O     0.19926   0.62766   0.76313   0.00000  Uiso   1.00
Zn1231 Zn    0.25000   0.80307   0.83333   0.00000  Uiso   1.00
Zn1232 Zn    0.25000   0.69693   0.83333   0.00000  Uiso   1.00
C1233  C     0.66395   0.75006   0.83520   0.00000  Uiso   1.00
C1234  C     0.70894   0.94714   0.82979   0.00000  Uiso   1.00
C1235  C     0.74976   0.74986   0.73958   0.00000  Uiso   1.00
C1236  C     0.75018   0.75014   0.92709   0.00000  Uiso   1.00
C1237  C     0.74853   0.52699   0.83438   0.00000  Uiso   1.00
C1238  C     0.74879   0.97357   0.83462   0.00000  Uiso   1.00
C1239  C     0.74985   0.74980   0.68845   0.00000  Uiso   1.00
C1240  C     0.75001   0.75021   0.97821   0.00000  Uiso   1.00
C1241  C     0.54569   0.79051   0.83582   0.00000  Uiso   1.00
C1242  C     0.95376   0.71232   0.81872   0.00000  Uiso   1.00
C1243  C     0.95253   0.78331   0.86962   0.00000  Uiso   1.00
C1244  C     0.83605   0.74989   0.83340   0.00000  Uiso   1.00
C1245  C     0.54897   0.70844   0.85894   0.00000  Uiso   1.00
C1246  C     0.59156   0.79112   0.83286   0.00000  Uiso   1.00
C1247  C     0.90759   0.71333   0.81377   0.00000  Uiso   1.00
C1248  C     0.90653   0.78431   0.86450   0.00000  Uiso   1.00
C1249  C     0.59494   0.70914   0.85595   0.00000  Uiso   1.00
C1250  C     0.61618   0.75006   0.84106   0.00000  Uiso   1.00
C1251  C     0.88407   0.74952   0.83654   0.00000  Uiso   1.00
C1252  C     0.52434   0.74892   0.84790   0.00000  Uiso   1.00
C1253  C     0.97617   0.74754   0.84640   0.00000  Uiso   1.00
C1254  C     0.65263   0.62423   0.76871   0.00000  Uiso   1.00
C1255  C     0.72237   0.60249   0.79995   0.00000  Uiso   1.00
C1256  C     0.62896   0.66106   0.73641   0.00000  Uiso   1.00
C1257  C     0.82738   0.87816   0.91563   0.00000  Uiso   1.00
C1258  C     0.86901   0.90441   0.93472   0.00000  Uiso   1.00
C1259  C     0.85049   0.62660   0.87980   0.00000  Uiso   1.00
C1260  C     0.88103   0.59142   0.90698   0.00000  Uiso   1.00
C1261  C     0.67057   0.87429   0.75347   0.00000  Uiso   1.00
C1262  C     0.62295   0.88519   0.73483   0.00000  Uiso   1.00
C1263  C     0.71581   0.51656   0.72256   0.00000  Uiso   1.00
C1264  C     0.68189   0.99647   0.68425   0.00000  Uiso   1.00
C1265  C     0.85031   0.96225   0.79322   0.00000  Uiso   1.00
C1266  C     0.78826   0.89862   0.84433   0.00000  Uiso   1.00
C1267  C     0.88576   0.99928   0.78596   0.00000  Uiso   1.00
C1268  C     0.78501   0.53697   0.95321   0.00000  Uiso   1.00
C1269  C     0.81326   0.50848   0.99055   0.00000  Uiso   1.00
C1270  C     0.65534   0.97803   0.87768   0.00000  Uiso   1.00
C1271  C     0.61081   0.50381   0.87641   0.00000  Uiso   1.00
C1272  C     0.77765   0.60234   0.86629   0.00000  Uiso   1.00
C1273  C     0.71112   0.89803   0.82299   0.00000  Uiso   1.00
C1274  C     0.72225   0.55265   0.79878   0.00000  Uiso   1.00
C1275  C     0.78924   0.94794   0.83854   0.00000  Uiso   1.00
C1276  C     0.77497   0.55283   0.86981   0.00000  Uiso   1.00
H1277  H     0.52679   0.82206   0.82729   0.00000  Uiso   1.00
H1278  H     0.63966   0.58975   0.75565   0.00000  Uiso   1.00
H1279  H     0.63428   0.65353   0.69633   0.00000  Uiso   1.00
H1280  H     0.59253   0.66060   0.74269   0.00000  Uiso   1.00
H1281  H     0.64217   0.69645   0.74566   0.00000  Uiso   1.00
H1282  H     0.82915   0.84187   0.93008   0.00000  Uiso   1.00
H1283  H     0.79748   0.89474   0.93238   0.00000  Uiso   1.00
H1284  H     0.87147   0.90339   0.97618   0.00000  Uiso   1.00
H1285  H     0.89950   0.88815   0.91982   0.00000  Uiso   1.00
H1286  H     0.86719   0.94150   0.92293   0.00000  Uiso   1.00
H1287  H     0.86520   0.66150   0.88817   0.00000  Uiso   1.00
H1288  H     0.97200   0.68493   0.80000   0.00000  Uiso   1.00
H1289  H     0.85149   0.62099   0.83853   0.00000  Uiso   1.00
H1290  H     0.87634   0.55583   0.89086   0.00000  Uiso   1.00
H1291  H     0.91648   0.60119   0.90228   0.00000  Uiso   1.00
H1292  H     0.87464   0.59138   0.94751   0.00000  Uiso   1.00
H1293  H     0.67943   0.83876   0.73994   0.00000  Uiso   1.00
H1294  H     0.69327   0.89973   0.73579   0.00000  Uiso   1.00
H1295  H     0.61152   0.91869   0.75144   0.00000  Uiso   1.00
H1296  H     0.62172   0.88829   0.69349   0.00000  Uiso   1.00
H1297  H     0.59996   0.85677   0.74492   0.00000  Uiso   1.00
H1298  H     0.74113   0.98904   0.73178   0.00000  Uiso   1.00
H1299  H     0.96971   0.81044   0.89141   0.00000  Uiso   1.00
H1300  H     0.73209   0.54737   0.70592   0.00000  Uiso   1.00
H1301  H     0.66221   0.52523   0.99963   0.00000  Uiso   1.00
H1302  H     0.69912   0.97613   0.98856   0.00000  Uiso   1.00
H1303  H     0.65860   0.97271   0.70261   0.00000  Uiso   1.00
H1304  H     0.82602   0.96369   0.76052   0.00000  Uiso   1.00
H1305  H     0.86674   0.92727   0.79408   0.00000  Uiso   1.00
H1306  H     0.87005   0.53458   0.78489   0.00000  Uiso   1.00
H1307  H     0.90230   0.99274   0.75020   0.00000  Uiso   1.00
H1308  H     0.91132   0.99814   0.81720   0.00000  Uiso   1.00
H1309  H     0.74958   0.52600   0.95443   0.00000  Uiso   1.00
H1310  H     0.53259   0.67645   0.86945   0.00000  Uiso   1.00
H1311  H     0.78777   0.57436   0.96462   0.00000  Uiso   1.00
H1312  H     0.80438   0.97085   0.98711   0.00000  Uiso   1.00
H1313  H     0.80761   0.52082   0.69580   0.00000  Uiso   1.00
H1314  H     0.84935   0.51274   0.98371   0.00000  Uiso   1.00
H1315  H     0.68047   0.50072   0.89786   0.00000  Uiso   1.00
H1316  H     0.65162   0.94483   0.89860   0.00000  Uiso   1.00
H1317  H     0.58464   0.98197   0.85711   0.00000  Uiso   1.00
H1318  H     0.60082   0.51136   0.91514   0.00000  Uiso   1.00
H1319  H     0.61381   0.53738   0.85622   0.00000  Uiso   1.00
H1320  H     0.60750   0.82344   0.82348   0.00000  Uiso   1.00
H1321  H     0.89032   0.68634   0.79190   0.00000  Uiso   1.00
H1322  H     0.88854   0.81165   0.88306   0.00000  Uiso   1.00
H1323  H     0.61371   0.67785   0.86545   0.00000  Uiso   1.00
H1324  H     0.64372   0.62961   0.80820   0.00000  Uiso   1.00
N1325  N     0.75000   0.62623   0.83333   0.00000  Uiso   1.00
N1326  N     0.75000   0.87376   0.83333   0.00000  Uiso   1.00
O1327  O     0.68453   0.78974   0.83334   0.00000  Uiso   1.00
O1328  O     0.82611   0.87602   0.86261   0.00000  Uiso   1.00
O1329  O     0.80672   0.62701   0.89825   0.00000  Uiso   1.00
O1330  O     0.67298   0.87485   0.80647   0.00000  Uiso   1.00
O1331  O     0.69326   0.52975   0.76545   0.00000  Uiso   1.00
O1332  O     0.82971   0.97113   0.83883   0.00000  Uiso   1.00
O1333  O     0.80102   0.52909   0.90520   0.00000  Uiso   1.00
O1334  O     0.66749   0.96860   0.82825   0.00000  Uiso   1.00
O1335  O     0.81547   0.71026   0.83333   0.00000  Uiso   1.00
O1336  O     0.81547   0.78974   0.83333   0.00000  Uiso   1.00
O1337  O     0.68453   0.71026   0.83334   0.00000  Uiso   1.00
O1338  O     0.75000   0.78973   0.76178   0.00000  Uiso   1.00
O1339  O     0.75000   0.71027   0.90489   0.00000  Uiso   1.00
O1340  O     0.75000   0.78973   0.90489   0.00000  Uiso   1.00
O1341  O     0.75000   0.71027   0.76178   0.00000  Uiso   1.00
O1342  O     0.69926   0.62766   0.76313   0.00000  Uiso   1.00
Zn1343 Zn    0.75000   0.80307   0.83333   0.00000  Uiso   1.00
Zn1344 Zn    0.75000   0.69693   0.83333   0.00000  Uiso   1.00
loop_
_geom_bond_atom_site_label_1
_geom_bond_atom_site_label_2
_geom_bond_distance
_geom_bond_site_symmetry_2
_ccdc_geom_bond_type
C1     C18     1.445   .     S
C1     O95     1.294   .     A
C1     O105    1.293   .     A
C2     O102    1.381   .     S
C2     C41     1.415   .     A
C2     C6      1.415   .     A
C3     C7      1.370   .     S
C3     O106    1.280   .     A
C3     O109    1.283   .     A
C4     C8      1.370   .     S
C4     O108    1.283   .     A
C4     O107    1.280   .     A
C5     C42     1.419   .     A
C5     C44     1.414   .     A
C5     C230    1.526   1_545 S
C6     C43     1.413   .     A
C6     C229    1.526   .     S
C7     C904    1.167   1_554 S
C8     C455    1.167   .     S
C9     C14     1.379   .     A
C9     C20     1.398   .     A
C9     H45     1.084   .     S
C10    C15     1.383   .     A
C10    H56     1.083   .     S
C10    C21     1.400   .     A
C11    H67     1.084   .     S
C11    C21     1.397   .     A
C11    C16     1.378   .     A
C12    O104    1.292   .     A
C12    O103    1.291   .     A
C12    C19     1.436   .     S
C13    H78     1.084   .     S
C13    C20     1.397   .     A
C13    C17     1.382   .     A
C14    C18     1.398   .     A
C14    H88     1.077   .     S
C15    C19     1.398   .     A
C15    H89     1.083   .     S
C16    H90     1.077   .     S
C16    C19     1.396   .     A
C17    H91     1.081   .     S
C17    C18     1.402   .     A
C20    C133    1.442   1_455 S
C21    C132    1.442   .     S
C22    O110    1.414   .     S
C22    H46     1.108   .     S
C22    C24     1.523   .     S
C22    H92     1.111   .     S
C23    C42     1.424   .     A
C23    N93     1.369   .     A
C23    O110    1.386   .     S
C24    H48     1.111   .     S
C24    H49     1.109   .     S
C24    H47     1.111   .     S
C25    H50     1.110   .     S
C25    C26     1.524   .     S
C25    H51     1.119   .     S
C25    O96     1.420   .     S
C26    H54     1.109   .     S
C26    H52     1.111   .     S
C26    H53     1.110   .     S
C27    H55     1.108   .     S
C27    H57     1.117   .     S
C27    O97     1.419   .     S
C27    C28     1.526   .     S
C28    H60     1.110   .     S
C28    H59     1.111   .     S
C28    H58     1.108   .     S
C29    O98     1.418   .     S
C29    H61     1.109   .     S
C29    C30     1.523   .     S
C29    H62     1.118   .     S
C30    H64     1.111   .     S
C30    H63     1.111   .     S
C30    H65     1.109   .     S
C31    O99     1.404   .     S
C31    H68     1.113   .     S
C31    C256    1.523   1_545 S
C31    H290    1.112   1_545 S
C32    H71     1.108   .     S
C32    C255    1.523   .     S
C32    H1189   1.111   1_554 S
C32    H966    1.109   1_554 S
C33    H72     1.116   .     S
C33    H73     1.112   .     S
C33    O100    1.412   .     S
C33    C35     1.520   .     S
C34    O96     1.377   .     S
C34    C43     1.419   .     A
C34    N94     1.370   .     A
C35    H75     1.111   .     S
C35    H76     1.111   .     S
C35    H298    1.111   .     S
C36    C37     1.523   .     S
C36    H79     1.110   .     S
C36    H77     1.109   .     S
C36    O101    1.407   .     S
C37    H82     1.110   .     S
C37    H304    1.110   1_545 S
C37    H529    1.108   .     S
C38    H84     1.114   .     S
C38    O102    1.411   .     S
C38    C263    1.520   .     S
C38    H307    1.114   .     S
C39    H87     1.111   .     S
C39    H86     1.111   .     S
C39    C262    1.520   1_545 S
C39    H309    1.111   1_545 S
C40    N93     1.370   .     A
C40    O97     1.384   .     S
C40    C44     1.421   .     A
C41    N94     1.372   .     A
C41    O98     1.376   .     S
C42    O99     1.381   .     S
C43    O100    1.382   .     S
C44    O101    1.383   .     S
H66    C255    1.112   .     S
H69    C704    1.111   1_545 S
H70    C480    1.109   .     S
H74    C259    1.111   1_545 S
H80    C261    1.110   .     S
H81    C933    1.108   1_554 S
H83    C262    1.114   1_545 S
H85    C263    1.111   .     S
N93    Zn112   2.019   .     S
N94    Zn111   2.019   .     S
O95    Zn111   1.998   .     S
O103   Zn112   1.998   .     S
O104   Zn111   1.995   .     S
O105   Zn112   1.995   .     S
O106   Zn111   1.951   .     S
O107   Zn112   1.951   .     S
O108   Zn111   1.958   .     S
O109   Zn112   1.958   .     S
C113   C130    1.445   .     S
C113   O207    1.294   .     A
C113   O217    1.293   .     A
C114   O214    1.381   .     S
C114   C153    1.415   .     A
C114   C118    1.415   .     A
C115   C119    1.370   .     S
C115   O218    1.280   .     A
C115   O221    1.283   .     A
C116   C120    1.370   .     S
C116   O220    1.283   .     A
C116   O219    1.280   .     A
C117   C154    1.419   .     A
C117   C156    1.414   .     A
C117   C342    1.526   1_545 S
C118   C155    1.413   .     A
C118   C341    1.526   .     S
C119   C1016   1.167   1_554 S
C120   C567    1.167   .     S
C121   C126    1.379   .     A
C121   C132    1.398   .     A
C121   H157    1.084   .     S
C122   C127    1.383   .     A
C122   H168    1.083   .     S
C122   C133    1.400   .     A
C123   H179    1.084   .     S
C123   C133    1.397   .     A
C123   C128    1.378   .     A
C124   O216    1.292   .     A
C124   O215    1.291   .     A
C124   C131    1.436   .     S
C125   H190    1.084   .     S
C125   C132    1.397   .     A
C125   C129    1.382   .     A
C126   C130    1.398   .     A
C126   H200    1.077   .     S
C127   C131    1.398   .     A
C127   H201    1.083   .     S
C128   H202    1.077   .     S
C128   C131    1.396   .     A
C129   H203    1.081   .     S
C129   C130    1.402   .     A
C133   C20     1.442   1_655 S
C134   O222    1.414   .     S
C134   H158    1.108   .     S
C134   C136    1.523   .     S
C134   H204    1.111   .     S
C135   C154    1.424   .     A
C135   N205    1.369   .     A
C135   O222    1.386   .     S
C136   H160    1.111   .     S
C136   H161    1.109   .     S
C136   H159    1.111   .     S
C137   H162    1.110   .     S
C137   C138    1.524   .     S
C137   H163    1.119   .     S
C137   O208    1.420   .     S
C138   H166    1.109   .     S
C138   H164    1.111   .     S
C138   H165    1.110   .     S
C139   H167    1.108   .     S
C139   H169    1.117   .     S
C139   O209    1.419   .     S
C139   C140    1.526   .     S
C140   H172    1.110   .     S
C140   H171    1.111   .     S
C140   H170    1.108   .     S
C141   O210    1.418   .     S
C141   H173    1.109   .     S
C141   C142    1.523   .     S
C141   H174    1.118   .     S
C142   H176    1.111   .     S
C142   H175    1.111   .     S
C142   H177    1.109   .     S
C143   O211    1.404   .     S
C143   H180    1.113   .     S
C143   C368    1.523   1_545 S
C143   H402    1.112   1_545 S
C144   H183    1.108   .     S
C144   C367    1.523   .     S
C144   H1301   1.111   1_554 S
C144   H1078   1.109   1_554 S
C145   H184    1.116   .     S
C145   H185    1.112   .     S
C145   O212    1.412   .     S
C145   C147    1.520   .     S
C146   O208    1.377   .     S
C146   C155    1.419   .     A
C146   N206    1.370   .     A
C147   H187    1.111   .     S
C147   H188    1.111   .     S
C147   H410    1.111   .     S
C148   C149    1.523   .     S
C148   H191    1.110   .     S
C148   H189    1.109   .     S
C148   O213    1.407   .     S
C149   H194    1.110   .     S
C149   H416    1.110   1_545 S
C149   H641    1.108   .     S
C150   H196    1.114   .     S
C150   O214    1.411   .     S
C150   C375    1.520   .     S
C150   H419    1.114   .     S
C151   H199    1.111   .     S
C151   H198    1.111   .     S
C151   C374    1.520   1_545 S
C151   H421    1.111   1_545 S
C152   N205    1.370   .     A
C152   O209    1.384   .     S
C152   C156    1.421   .     A
C153   N206    1.372   .     A
C153   O210    1.376   .     S
C154   O211    1.381   .     S
C155   O212    1.382   .     S
C156   O213    1.383   .     S
H178   C367    1.112   .     S
H181   C816    1.111   1_545 S
H182   C592    1.109   .     S
H186   C371    1.111   1_545 S
H192   C373    1.110   .     S
H193   C1045   1.108   1_554 S
H195   C374    1.114   1_545 S
H197   C375    1.111   .     S
N205   Zn224   2.019   .     S
N206   Zn223   2.019   .     S
O207   Zn223   1.998   .     S
O215   Zn224   1.998   .     S
O216   Zn223   1.995   .     S
O217   Zn224   1.995   .     S
O218   Zn223   1.951   .     S
O219   Zn224   1.951   .     S
O220   Zn223   1.958   .     S
O221   Zn224   1.958   .     S
C225   C242    1.445   .     S
C225   O319    1.294   .     A
C225   O329    1.293   .     A
C226   O326    1.381   .     S
C226   C265    1.415   .     A
C226   C230    1.415   .     A
C227   C231    1.370   .     S
C227   O330    1.280   .     A
C227   O333    1.283   .     A
C228   C232    1.370   .     S
C228   O332    1.283   .     A
C228   O331    1.280   .     A
C229   C266    1.419   .     A
C229   C268    1.414   .     A
C230   C267    1.413   .     A
C230   C5      1.526   1_565 S
C231   C1128   1.167   1_554 S
C232   C679    1.167   .     S
C233   C238    1.379   .     A
C233   C244    1.398   .     A
C233   H269    1.084   .     S
C234   C239    1.383   .     A
C234   H280    1.083   .     S
C234   C245    1.400   .     A
C235   H291    1.084   .     S
C235   C245    1.397   .     A
C235   C240    1.378   .     A
C236   O328    1.292   .     A
C236   O327    1.291   .     A
C236   C243    1.436   .     S
C237   H302    1.084   .     S
C237   C244    1.397   .     A
C237   C241    1.382   .     A
C238   C242    1.398   .     A
C238   H312    1.077   .     S
C239   C243    1.398   .     A
C239   H313    1.083   .     S
C240   H314    1.077   .     S
C240   C243    1.396   .     A
C241   H315    1.081   .     S
C241   C242    1.402   .     A
C244   C357    1.442   1_455 S
C245   C356    1.442   .     S
C246   O334    1.414   .     S
C246   H270    1.108   .     S
C246   C248    1.523   .     S
C246   H316    1.111   .     S
C247   C266    1.424   .     A
C247   N317    1.369   .     A
C247   O334    1.386   .     S
C248   H272    1.111   .     S
C248   H273    1.109   .     S
C248   H271    1.111   .     S
C249   H274    1.110   .     S
C249   C250    1.524   .     S
C249   H275    1.119   .     S
C249   O320    1.420   .     S
C250   H278    1.109   .     S
C250   H276    1.111   .     S
C250   H277    1.110   .     S
C251   H279    1.108   .     S
C251   H281    1.117   .     S
C251   O321    1.419   .     S
C251   C252    1.526   .     S
C252   H284    1.110   .     S
C252   H283    1.111   .     S
C252   H282    1.108   .     S
C253   O322    1.418   .     S
C253   H285    1.109   .     S
C253   C254    1.523   .     S
C253   H286    1.118   .     S
C254   H288    1.111   .     S
C254   H287    1.111   .     S
C254   H289    1.109   .     S
C255   O323    1.404   .     S
C255   H292    1.113   .     S
C256   H295    1.108   .     S
C256   C31     1.523   1_565 S
C256   H965    1.111   1_564 S
C256   H1190   1.109   1_554 S
C257   H296    1.116   .     S
C257   H297    1.112   .     S
C257   O324    1.412   .     S
C257   C259    1.520   .     S
C258   O320    1.377   .     S
C258   C267    1.419   .     A
C258   N318    1.370   .     A
C259   H299    1.111   .     S
C259   H300    1.111   .     S
C259   H74     1.111   1_565 S
C260   C261    1.523   .     S
C260   H303    1.110   .     S
C260   H301    1.109   .     S
C260   O325    1.407   .     S
C261   H306    1.110   .     S
C261   H753    1.108   .     S
C262   H308    1.114   .     S
C262   O326    1.411   .     S
C262   C39     1.520   1_565 S
C262   H83     1.114   1_565 S
C263   H311    1.111   .     S
C263   H310    1.111   .     S
C264   N317    1.370   .     A
C264   O321    1.384   .     S
C264   C268    1.421   .     A
C265   N318    1.372   .     A
C265   O322    1.376   .     S
C266   O323    1.381   .     S
C267   O324    1.382   .     S
C268   O325    1.383   .     S
H290   C31     1.112   1_565 S
H293   C480    1.111   .     S
H294   C704    1.109   .     S
H304   C37     1.110   1_565 S
H305   C1157   1.108   1_554 S
H309   C39     1.111   1_565 S
N317   Zn336   2.019   .     S
N318   Zn335   2.019   .     S
O319   Zn335   1.998   .     S
O327   Zn336   1.998   .     S
O328   Zn335   1.995   .     S
O329   Zn336   1.995   .     S
O330   Zn335   1.951   .     S
O331   Zn336   1.951   .     S
O332   Zn335   1.958   .     S
O333   Zn336   1.958   .     S
C337   C354    1.445   .     S
C337   O431    1.294   .     A
C337   O441    1.293   .     A
C338   O438    1.381   .     S
C338   C377    1.415   .     A
C338   C342    1.415   .     A
C339   C343    1.370   .     S
C339   O442    1.280   .     A
C339   O445    1.283   .     A
C340   C344    1.370   .     S
C340   O444    1.283   .     A
C340   O443    1.280   .     A
C341   C378    1.419   .     A
C341   C380    1.414   .     A
C342   C379    1.413   .     A
C342   C117    1.526   1_565 S
C343   C1240   1.167   1_554 S
C344   C791    1.167   .     S
C345   C350    1.379   .     A
C345   C356    1.398   .     A
C345   H381    1.084   .     S
C346   C351    1.383   .     A
C346   H392    1.083   .     S
C346   C357    1.400   .     A
C347   H403    1.084   .     S
C347   C357    1.397   .     A
C347   C352    1.378   .     A
C348   O440    1.292   .     A
C348   O439    1.291   .     A
C348   C355    1.436   .     S
C349   H414    1.084   .     S
C349   C356    1.397   .     A
C349   C353    1.382   .     A
C350   C354    1.398   .     A
C350   H424    1.077   .     S
C351   C355    1.398   .     A
C351   H425    1.083   .     S
C352   H426    1.077   .     S
C352   C355    1.396   .     A
C353   H427    1.081   .     S
C353   C354    1.402   .     A
C357   C244    1.442   1_655 S
C358   O446    1.414   .     S
C358   H382    1.108   .     S
C358   C360    1.523   .     S
C358   H428    1.111   .     S
C359   C378    1.424   .     A
C359   N429    1.369   .     A
C359   O446    1.386   .     S
C360   H384    1.111   .     S
C360   H385    1.109   .     S
C360   H383    1.111   .     S
C361   H386    1.110   .     S
C361   C362    1.524   .     S
C361   H387    1.119   .     S
C361   O432    1.420   .     S
C362   H390    1.109   .     S
C362   H388    1.111   .     S
C362   H389    1.110   .     S
C363   H391    1.108   .     S
C363   H393    1.117   .     S
C363   O433    1.419   .     S
C363   C364    1.526   .     S
C364   H396    1.110   .     S
C364   H395    1.111   .     S
C364   H394    1.108   .     S
C365   O434    1.418   .     S
C365   H397    1.109   .     S
C365   C366    1.523   .     S
C365   H398    1.118   .     S
C366   H400    1.111   .     S
C366   H399    1.111   .     S
C366   H401    1.109   .     S
C367   O435    1.404   .     S
C367   H404    1.113   .     S
C368   H407    1.108   .     S
C368   C143    1.523   1_565 S
C368   H1077   1.111   1_564 S
C368   H1302   1.109   1_554 S
C369   H408    1.116   .     S
C369   H409    1.112   .     S
C369   O436    1.412   .     S
C369   C371    1.520   .     S
C370   O432    1.377   .     S
C370   C379    1.419   .     A
C370   N430    1.370   .     A
C371   H411    1.111   .     S
C371   H412    1.111   .     S
C371   H186    1.111   1_565 S
C372   C373    1.523   .     S
C372   H415    1.110   .     S
C372   H413    1.109   .     S
C372   O437    1.407   .     S
C373   H418    1.110   .     S
C373   H865    1.108   .     S
C374   H420    1.114   .     S
C374   O438    1.411   .     S
C374   C151    1.520   1_565 S
C374   H195    1.114   1_565 S
C375   H423    1.111   .     S
C375   H422    1.111   .     S
C376   N429    1.370   .     A
C376   O433    1.384   .     S
C376   C380    1.421   .     A
C377   N430    1.372   .     A
C377   O434    1.376   .     S
C378   O435    1.381   .     S
C379   O436    1.382   .     S
C380   O437    1.383   .     S
H402   C143    1.112   1_565 S
H405   C592    1.111   .     S
H406   C816    1.109   .     S
H416   C149    1.110   1_565 S
H417   C1269   1.108   1_554 S
H421   C151    1.111   1_565 S
N429   Zn448   2.019   .     S
N430   Zn447   2.019   .     S
O431   Zn447   1.998   .     S
O439   Zn448   1.998   .     S
O440   Zn447   1.995   .     S
O441   Zn448   1.995   .     S
O442   Zn447   1.951   .     S
O443   Zn448   1.951   .     S
O444   Zn447   1.958   .     S
O445   Zn448   1.958   .     S
C449   C466    1.445   .     S
C449   O543    1.294   .     A
C449   O553    1.293   .     A
C450   O550    1.381   .     S
C450   C489    1.415   .     A
C450   C454    1.415   .     A
C451   C455    1.370   .     S
C451   O554    1.280   .     A
C451   O557    1.283   .     A
C452   C456    1.370   .     S
C452   O556    1.283   .     A
C452   O555    1.280   .     A
C453   C490    1.419   .     A
C453   C492    1.414   .     A
C453   C678    1.526   1_545 S
C454   C491    1.413   .     A
C454   C677    1.526   .     S
C456   C903    1.167   .     S
C457   C462    1.379   .     A
C457   C468    1.398   .     A
C457   H493    1.084   .     S
C458   C463    1.383   .     A
C458   H504    1.083   .     S
C458   C469    1.400   .     A
C459   H515    1.084   .     S
C459   C469    1.397   .     A
C459   C464    1.378   .     A
C460   O552    1.292   .     A
C460   O551    1.291   .     A
C460   C467    1.436   .     S
C461   H526    1.084   .     S
C461   C468    1.397   .     A
C461   C465    1.382   .     A
C462   C466    1.398   .     A
C462   H536    1.077   .     S
C463   C467    1.398   .     A
C463   H537    1.083   .     S
C464   H538    1.077   .     S
C464   C467    1.396   .     A
C465   H539    1.081   .     S
C465   C466    1.402   .     A
C468   C581    1.442   1_455 S
C469   C580    1.442   .     S
C470   O558    1.414   .     S
C470   H494    1.108   .     S
C470   C472    1.523   .     S
C470   H540    1.111   .     S
C471   C490    1.424   .     A
C471   N541    1.369   .     A
C471   O558    1.386   .     S
C472   H496    1.111   .     S
C472   H497    1.109   .     S
C472   H495    1.111   .     S
C473   H498    1.110   .     S
C473   C474    1.524   .     S
C473   H499    1.119   .     S
C473   O544    1.420   .     S
C474   H502    1.109   .     S
C474   H500    1.111   .     S
C474   H501    1.110   .     S
C475   H503    1.108   .     S
C475   H505    1.117   .     S
C475   O545    1.419   .     S
C475   C476    1.526   .     S
C476   H508    1.110   .     S
C476   H507    1.111   .     S
C476   H506    1.108   .     S
C477   O546    1.418   .     S
C477   H509    1.109   .     S
C477   C478    1.523   .     S
C477   H510    1.118   .     S
C478   H512    1.111   .     S
C478   H511    1.111   .     S
C478   H513    1.109   .     S
C479   O547    1.404   .     S
C479   H516    1.113   .     S
C479   C704    1.523   1_545 S
C479   H738    1.112   1_545 S
C480   H519    1.108   .     S
C480   C703    1.523   .     S
C481   H520    1.116   .     S
C481   H521    1.112   .     S
C481   O548    1.412   .     S
C481   C483    1.520   .     S
C482   O544    1.377   .     S
C482   C491    1.419   .     A
C482   N542    1.370   .     A
C483   H523    1.111   .     S
C483   H524    1.111   .     S
C483   H746    1.111   .     S
C484   C485    1.523   .     S
C484   H527    1.110   .     S
C484   H525    1.109   .     S
C484   O549    1.407   .     S
C485   H530    1.110   .     S
C485   H752    1.110   1_545 S
C485   H977    1.108   .     S
C486   H532    1.114   .     S
C486   O550    1.411   .     S
C486   C711    1.520   .     S
C486   H755    1.114   .     S
C487   H535    1.111   .     S
C487   H534    1.111   .     S
C487   C710    1.520   1_545 S
C487   H757    1.111   1_545 S
C488   N541    1.370   .     A
C488   O545    1.384   .     S
C488   C492    1.421   .     A
C489   N542    1.372   .     A
C489   O546    1.376   .     S
C490   O547    1.381   .     S
C491   O548    1.382   .     S
C492   O549    1.383   .     S
H514   C703    1.112   .     S
H517   C1152   1.111   1_545 S
H518   C928    1.109   .     S
H522   C707    1.111   1_545 S
H528   C709    1.110   .     S
H531   C710    1.114   1_545 S
H533   C711    1.111   .     S
N541   Zn560   2.019   .     S
N542   Zn559   2.019   .     S
O543   Zn559   1.998   .     S
O551   Zn560   1.998   .     S
O552   Zn559   1.995   .     S
O553   Zn560   1.995   .     S
O554   Zn559   1.951   .     S
O555   Zn560   1.951   .     S
O556   Zn559   1.958   .     S
O557   Zn560   1.958   .     S
C561   C578    1.445   .     S
C561   O655    1.294   .     A
C561   O665    1.293   .     A
C562   O662    1.381   .     S
C562   C601    1.415   .     A
C562   C566    1.415   .     A
C563   C567    1.370   .     S
C563   O666    1.280   .     A
C563   O669    1.283   .     A
C564   C568    1.370   .     S
C564   O668    1.283   .     A
C564   O667    1.280   .     A
C565   C602    1.419   .     A
C565   C604    1.414   .     A
C565   C790    1.526   1_545 S
C566   C603    1.413   .     A
C566   C789    1.526   .     S
C568   C1015   1.167   .     S
C569   C574    1.379   .     A
C569   C580    1.398   .     A
C569   H605    1.084   .     S
C570   C575    1.383   .     A
C570   H616    1.083   .     S
C570   C581    1.400   .     A
C571   H627    1.084   .     S
C571   C581    1.397   .     A
C571   C576    1.378   .     A
C572   O664    1.292   .     A
C572   O663    1.291   .     A
C572   C579    1.436   .     S
C573   H638    1.084   .     S
C573   C580    1.397   .     A
C573   C577    1.382   .     A
C574   C578    1.398   .     A
C574   H648    1.077   .     S
C575   C579    1.398   .     A
C575   H649    1.083   .     S
C576   H650    1.077   .     S
C576   C579    1.396   .     A
C577   H651    1.081   .     S
C577   C578    1.402   .     A
C581   C468    1.442   1_655 S
C582   O670    1.414   .     S
C582   H606    1.108   .     S
C582   C584    1.523   .     S
C582   H652    1.111   .     S
C583   C602    1.424   .     A
C583   N653    1.369   .     A
C583   O670    1.386   .     S
C584   H608    1.111   .     S
C584   H609    1.109   .     S
C584   H607    1.111   .     S
C585   H610    1.110   .     S
C585   C586    1.524   .     S
C585   H611    1.119   .     S
C585   O656    1.420   .     S
C586   H614    1.109   .     S
C586   H612    1.111   .     S
C586   H613    1.110   .     S
C587   H615    1.108   .     S
C587   H617    1.117   .     S
C587   O657    1.419   .     S
C587   C588    1.526   .     S
C588   H620    1.110   .     S
C588   H619    1.111   .     S
C588   H618    1.108   .     S
C589   O658    1.418   .     S
C589   H621    1.109   .     S
C589   C590    1.523   .     S
C589   H622    1.118   .     S
C590   H624    1.111   .     S
C590   H623    1.111   .     S
C590   H625    1.109   .     S
C591   O659    1.404   .     S
C591   H628    1.113   .     S
C591   C816    1.523   1_545 S
C591   H850    1.112   1_545 S
C592   H631    1.108   .     S
C592   C815    1.523   .     S
C593   H632    1.116   .     S
C593   H633    1.112   .     S
C593   O660    1.412   .     S
C593   C595    1.520   .     S
C594   O656    1.377   .     S
C594   C603    1.419   .     A
C594   N654    1.370   .     A
C595   H635    1.111   .     S
C595   H636    1.111   .     S
C595   H858    1.111   .     S
C596   C597    1.523   .     S
C596   H639    1.110   .     S
C596   H637    1.109   .     S
C596   O661    1.407   .     S
C597   H642    1.110   .     S
C597   H864    1.110   1_545 S
C597   H1089   1.108   .     S
C598   H644    1.114   .     S
C598   O662    1.411   .     S
C598   C823    1.520   .     S
C598   H867    1.114   .     S
C599   H647    1.111   .     S
C599   H646    1.111   .     S
C599   C822    1.520   1_545 S
C599   H869    1.111   1_545 S
C600   N653    1.370   .     A
C600   O657    1.384   .     S
C600   C604    1.421   .     A
C601   N654    1.372   .     A
C601   O658    1.376   .     S
C602   O659    1.381   .     S
C603   O660    1.382   .     S
C604   O661    1.383   .     S
H626   C815    1.112   .     S
H629   C1264   1.111   1_545 S
H630   C1040   1.109   .     S
H634   C819    1.111   1_545 S
H640   C821    1.110   .     S
H643   C822    1.114   1_545 S
H645   C823    1.111   .     S
N653   Zn672   2.019   .     S
N654   Zn671   2.019   .     S
O655   Zn671   1.998   .     S
O663   Zn672   1.998   .     S
O664   Zn671   1.995   .     S
O665   Zn672   1.995   .     S
O666   Zn671   1.951   .     S
O667   Zn672   1.951   .     S
O668   Zn671   1.958   .     S
O669   Zn672   1.958   .     S
C673   C690    1.445   .     S
C673   O767    1.294   .     A
C673   O777    1.293   .     A
C674   O774    1.381   .     S
C674   C713    1.415   .     A
C674   C678    1.415   .     A
C675   C679    1.370   .     S
C675   O778    1.280   .     A
C675   O781    1.283   .     A
C676   C680    1.370   .     S
C676   O780    1.283   .     A
C676   O779    1.280   .     A
C677   C714    1.419   .     A
C677   C716    1.414   .     A
C678   C715    1.413   .     A
C678   C453    1.526   1_565 S
C680   C1127   1.167   .     S
C681   C686    1.379   .     A
C681   C692    1.398   .     A
C681   H717    1.084   .     S
C682   C687    1.383   .     A
C682   H728    1.083   .     S
C682   C693    1.400   .     A
C683   H739    1.084   .     S
C683   C693    1.397   .     A
C683   C688    1.378   .     A
C684   O776    1.292   .     A
C684   O775    1.291   .     A
C684   C691    1.436   .     S
C685   H750    1.084   .     S
C685   C692    1.397   .     A
C685   C689    1.382   .     A
C686   C690    1.398   .     A
C686   H760    1.077   .     S
C687   C691    1.398   .     A
C687   H761    1.083   .     S
C688   H762    1.077   .     S
C688   C691    1.396   .     A
C689   H763    1.081   .     S
C689   C690    1.402   .     A
C692   C805    1.442   1_455 S
C693   C804    1.442   .     S
C694   O782    1.414   .     S
C694   H718    1.108   .     S
C694   C696    1.523   .     S
C694   H764    1.111   .     S
C695   C714    1.424   .     A
C695   N765    1.369   .     A
C695   O782    1.386   .     S
C696   H720    1.111   .     S
C696   H721    1.109   .     S
C696   H719    1.111   .     S
C697   H722    1.110   .     S
C697   C698    1.524   .     S
C697   H723    1.119   .     S
C697   O768    1.420   .     S
C698   H726    1.109   .     S
C698   H724    1.111   .     S
C698   H725    1.110   .     S
C699   H727    1.108   .     S
C699   H729    1.117   .     S
C699   O769    1.419   .     S
C699   C700    1.526   .     S
C700   H732    1.110   .     S
C700   H731    1.111   .     S
C700   H730    1.108   .     S
C701   O770    1.418   .     S
C701   H733    1.109   .     S
C701   C702    1.523   .     S
C701   H734    1.118   .     S
C702   H736    1.111   .     S
C702   H735    1.111   .     S
C702   H737    1.109   .     S
C703   O771    1.404   .     S
C703   H740    1.113   .     S
C704   H743    1.108   .     S
C704   C479    1.523   1_565 S
C704   H69     1.111   1_565 S
C705   H744    1.116   .     S
C705   H745    1.112   .     S
C705   O772    1.412   .     S
C705   C707    1.520   .     S
C706   O768    1.377   .     S
C706   C715    1.419   .     A
C706   N766    1.370   .     A
C707   H747    1.111   .     S
C707   H748    1.111   .     S
C707   H522    1.111   1_565 S
C708   C709    1.523   .     S
C708   H751    1.110   .     S
C708   H749    1.109   .     S
C708   O773    1.407   .     S
C709   H754    1.110   .     S
C709   H1201   1.108   .     S
C710   H756    1.114   .     S
C710   O774    1.411   .     S
C710   C487    1.520   1_565 S
C710   H531    1.114   1_565 S
C711   H759    1.111   .     S
C711   H758    1.111   .     S
C712   N765    1.370   .     A
C712   O769    1.384   .     S
C712   C716    1.421   .     A
C713   N766    1.372   .     A
C713   O770    1.376   .     S
C714   O771    1.381   .     S
C715   O772    1.382   .     S
C716   O773    1.383   .     S
H738   C479    1.112   1_565 S
H741   C928    1.111   .     S
H742   C1152   1.109   .     S
H752   C485    1.110   1_565 S
H757   C487    1.111   1_565 S
N765   Zn784   2.019   .     S
N766   Zn783   2.019   .     S
O767   Zn783   1.998   .     S
O775   Zn784   1.998   .     S
O776   Zn783   1.995   .     S
O777   Zn784   1.995   .     S
O778   Zn783   1.951   .     S
O779   Zn784   1.951   .     S
O780   Zn783   1.958   .     S
O781   Zn784   1.958   .     S
C785   C802    1.445   .     S
C785   O879    1.294   .     A
C785   O889    1.293   .     A
C786   O886    1.381   .     S
C786   C825    1.415   .     A
C786   C790    1.415   .     A
C787   C791    1.370   .     S
C787   O890    1.280   .     A
C787   O893    1.283   .     A
C788   C792    1.370   .     S
C788   O892    1.283   .     A
C788   O891    1.280   .     A
C789   C826    1.419   .     A
C789   C828    1.414   .     A
C790   C827    1.413   .     A
C790   C565    1.526   1_565 S
C792   C1239   1.167   .     S
C793   C798    1.379   .     A
C793   C804    1.398   .     A
C793   H829    1.084   .     S
C794   C799    1.383   .     A
C794   H840    1.083   .     S
C794   C805    1.400   .     A
C795   H851    1.084   .     S
C795   C805    1.397   .     A
C795   C800    1.378   .     A
C796   O888    1.292   .     A
C796   O887    1.291   .     A
C796   C803    1.436   .     S
C797   H862    1.084   .     S
C797   C804    1.397   .     A
C797   C801    1.382   .     A
C798   C802    1.398   .     A
C798   H872    1.077   .     S
C799   C803    1.398   .     A
C799   H873    1.083   .     S
C800   H874    1.077   .     S
C800   C803    1.396   .     A
C801   H875    1.081   .     S
C801   C802    1.402   .     A
C805   C692    1.442   1_655 S
C806   O894    1.414   .     S
C806   H830    1.108   .     S
C806   C808    1.523   .     S
C806   H876    1.111   .     S
C807   C826    1.424   .     A
C807   N877    1.369   .     A
C807   O894    1.386   .     S
C808   H832    1.111   .     S
C808   H833    1.109   .     S
C808   H831    1.111   .     S
C809   H834    1.110   .     S
C809   C810    1.524   .     S
C809   H835    1.119   .     S
C809   O880    1.420   .     S
C810   H838    1.109   .     S
C810   H836    1.111   .     S
C810   H837    1.110   .     S
C811   H839    1.108   .     S
C811   H841    1.117   .     S
C811   O881    1.419   .     S
C811   C812    1.526   .     S
C812   H844    1.110   .     S
C812   H843    1.111   .     S
C812   H842    1.108   .     S
C813   O882    1.418   .     S
C813   H845    1.109   .     S
C813   C814    1.523   .     S
C813   H846    1.118   .     S
C814   H848    1.111   .     S
C814   H847    1.111   .     S
C814   H849    1.109   .     S
C815   O883    1.404   .     S
C815   H852    1.113   .     S
C816   H855    1.108   .     S
C816   C591    1.523   1_565 S
C816   H181    1.111   1_565 S
C817   H856    1.116   .     S
C817   H857    1.112   .     S
C817   O884    1.412   .     S
C817   C819    1.520   .     S
C818   O880    1.377   .     S
C818   C827    1.419   .     A
C818   N878    1.370   .     A
C819   H859    1.111   .     S
C819   H860    1.111   .     S
C819   H634    1.111   1_565 S
C820   C821    1.523   .     S
C820   H863    1.110   .     S
C820   H861    1.109   .     S
C820   O885    1.407   .     S
C821   H866    1.110   .     S
C821   H1313   1.108   .     S
C822   H868    1.114   .     S
C822   O886    1.411   .     S
C822   C599    1.520   1_565 S
C822   H643    1.114   1_565 S
C823   H871    1.111   .     S
C823   H870    1.111   .     S
C824   N877    1.370   .     A
C824   O881    1.384   .     S
C824   C828    1.421   .     A
C825   N878    1.372   .     A
C825   O882    1.376   .     S
C826   O883    1.381   .     S
C827   O884    1.382   .     S
C828   O885    1.383   .     S
H850   C591    1.112   1_565 S
H853   C1040   1.111   .     S
H854   C1264   1.109   .     S
H864   C597    1.110   1_565 S
H869   C599    1.111   1_565 S
N877   Zn896   2.019   .     S
N878   Zn895   2.019   .     S
O879   Zn895   1.998   .     S
O887   Zn896   1.998   .     S
O888   Zn895   1.995   .     S
O889   Zn896   1.995   .     S
O890   Zn895   1.951   .     S
O891   Zn896   1.951   .     S
O892   Zn895   1.958   .     S
O893   Zn896   1.958   .     S
C897   C914    1.445   .     S
C897   O991    1.294   .     A
C897   O1001   1.293   .     A
C898   O998    1.381   .     S
C898   C937    1.415   .     A
C898   C902    1.415   .     A
C899   C903    1.370   .     S
C899   O1002   1.280   .     A
C899   O1005   1.283   .     A
C900   C904    1.370   .     S
C900   O1004   1.283   .     A
C900   O1003   1.280   .     A
C901   C938    1.419   .     A
C901   C940    1.414   .     A
C901   C1126   1.526   1_545 S
C902   C939    1.413   .     A
C902   C1125   1.526   .     S
C904   C7      1.167   1_556 S
C905   C910    1.379   .     A
C905   C916    1.398   .     A
C905   H941    1.084   .     S
C906   C911    1.383   .     A
C906   H952    1.083   .     S
C906   C917    1.400   .     A
C907   H963    1.084   .     S
C907   C917    1.397   .     A
C907   C912    1.378   .     A
C908   O1000   1.292   .     A
C908   O999    1.291   .     A
C908   C915    1.436   .     S
C909   H974    1.084   .     S
C909   C916    1.397   .     A
C909   C913    1.382   .     A
C910   C914    1.398   .     A
C910   H984    1.077   .     S
C911   C915    1.398   .     A
C911   H985    1.083   .     S
C912   H986    1.077   .     S
C912   C915    1.396   .     A
C913   H987    1.081   .     S
C913   C914    1.402   .     A
C916   C1029   1.442   1_455 S
C917   C1028   1.442   .     S
C918   O1006   1.414   .     S
C918   H942    1.108   .     S
C918   C920    1.523   .     S
C918   H988    1.111   .     S
C919   C938    1.424   .     A
C919   N989    1.369   .     A
C919   O1006   1.386   .     S
C920   H944    1.111   .     S
C920   H945    1.109   .     S
C920   H943    1.111   .     S
C921   H946    1.110   .     S
C921   C922    1.524   .     S
C921   H947    1.119   .     S
C921   O992    1.420   .     S
C922   H950    1.109   .     S
C922   H948    1.111   .     S
C922   H949    1.110   .     S
C923   H951    1.108   .     S
C923   H953    1.117   .     S
C923   O993    1.419   .     S
C923   C924    1.526   .     S
C924   H956    1.110   .     S
C924   H955    1.111   .     S
C924   H954    1.108   .     S
C925   O994    1.418   .     S
C925   H957    1.109   .     S
C925   C926    1.523   .     S
C925   H958    1.118   .     S
C926   H960    1.111   .     S
C926   H959    1.111   .     S
C926   H961    1.109   .     S
C927   O995    1.404   .     S
C927   H964    1.113   .     S
C927   C1152   1.523   1_545 S
C927   H1186   1.112   1_545 S
C928   H967    1.108   .     S
C928   C1151   1.523   .     S
C929   H968    1.116   .     S
C929   H969    1.112   .     S
C929   O996    1.412   .     S
C929   C931    1.520   .     S
C930   O992    1.377   .     S
C930   C939    1.419   .     A
C930   N990    1.370   .     A
C931   H971    1.111   .     S
C931   H972    1.111   .     S
C931   H1194   1.111   .     S
C932   C933    1.523   .     S
C932   H975    1.110   .     S
C932   H973    1.109   .     S
C932   O997    1.407   .     S
C933   H978    1.110   .     S
C933   H1200   1.110   1_545 S
C933   H81     1.108   1_556 S
C934   H980    1.114   .     S
C934   O998    1.411   .     S
C934   C1159   1.520   .     S
C934   H1203   1.114   .     S
C935   H983    1.111   .     S
C935   H982    1.111   .     S
C935   C1158   1.520   1_545 S
C935   H1205   1.111   1_545 S
C936   N989    1.370   .     A
C936   O993    1.384   .     S
C936   C940    1.421   .     A
C937   N990    1.372   .     A
C937   O994    1.376   .     S
C938   O995    1.381   .     S
C939   O996    1.382   .     S
C940   O997    1.383   .     S
H962   C1151   1.112   .     S
H965   C256    1.111   1_546 S
H966   C32     1.109   1_556 S
H970   C1155   1.111   1_545 S
H976   C1157   1.110   .     S
H979   C1158   1.114   1_545 S
H981   C1159   1.111   .     S
N989   Zn1008  2.019   .     S
N990   Zn1007  2.019   .     S
O991   Zn1007  1.998   .     S
O999   Zn1008  1.998   .     S
O1000  Zn1007  1.995   .     S
O1001  Zn1008  1.995   .     S
O1002  Zn1007  1.951   .     S
O1003  Zn1008  1.951   .     S
O1004  Zn1007  1.958   .     S
O1005  Zn1008  1.958   .     S
C1009  C1026   1.445   .     S
C1009  O1103   1.294   .     A
C1009  O1113   1.293   .     A
C1010  O1110   1.381   .     S
C1010  C1049   1.415   .     A
C1010  C1014   1.415   .     A
C1011  C1015   1.370   .     S
C1011  O1114   1.280   .     A
C1011  O1117   1.283   .     A
C1012  C1016   1.370   .     S
C1012  O1116   1.283   .     A
C1012  O1115   1.280   .     A
C1013  C1050   1.419   .     A
C1013  C1052   1.414   .     A
C1013  C1238   1.526   1_545 S
C1014  C1051   1.413   .     A
C1014  C1237   1.526   .     S
C1016  C119    1.167   1_556 S
C1017  C1022   1.379   .     A
C1017  C1028   1.398   .     A
C1017  H1053   1.084   .     S
C1018  C1023   1.383   .     A
C1018  H1064   1.083   .     S
C1018  C1029   1.400   .     A
C1019  H1075   1.084   .     S
C1019  C1029   1.397   .     A
C1019  C1024   1.378   .     A
C1020  O1112   1.292   .     A
C1020  O1111   1.291   .     A
C1020  C1027   1.436   .     S
C1021  H1086   1.084   .     S
C1021  C1028   1.397   .     A
C1021  C1025   1.382   .     A
C1022  C1026   1.398   .     A
C1022  H1096   1.077   .     S
C1023  C1027   1.398   .     A
C1023  H1097   1.083   .     S
C1024  H1098   1.077   .     S
C1024  C1027   1.396   .     A
C1025  H1099   1.081   .     S
C1025  C1026   1.402   .     A
C1029  C916    1.442   1_655 S
C1030  O1118   1.414   .     S
C1030  H1054   1.108   .     S
C1030  C1032   1.523   .     S
C1030  H1100   1.111   .     S
C1031  C1050   1.424   .     A
C1031  N1101   1.369   .     A
C1031  O1118   1.386   .     S
C1032  H1056   1.111   .     S
C1032  H1057   1.109   .     S
C1032  H1055   1.111   .     S
C1033  H1058   1.110   .     S
C1033  C1034   1.524   .     S
C1033  H1059   1.119   .     S
C1033  O1104   1.420   .     S
C1034  H1062   1.109   .     S
C1034  H1060   1.111   .     S
C1034  H1061   1.110   .     S
C1035  H1063   1.108   .     S
C1035  H1065   1.117   .     S
C1035  O1105   1.419   .     S
C1035  C1036   1.526   .     S
C1036  H1068   1.110   .     S
C1036  H1067   1.111   .     S
C1036  H1066   1.108   .     S
C1037  O1106   1.418   .     S
C1037  H1069   1.109   .     S
C1037  C1038   1.523   .     S
C1037  H1070   1.118   .     S
C1038  H1072   1.111   .     S
C1038  H1071   1.111   .     S
C1038  H1073   1.109   .     S
C1039  O1107   1.404   .     S
C1039  H1076   1.113   .     S
C1039  C1264   1.523   1_545 S
C1039  H1298   1.112   1_545 S
C1040  H1079   1.108   .     S
C1040  C1263   1.523   .     S
C1041  H1080   1.116   .     S
C1041  H1081   1.112   .     S
C1041  O1108   1.412   .     S
C1041  C1043   1.520   .     S
C1042  O1104   1.377   .     S
C1042  C1051   1.419   .     A
C1042  N1102   1.370   .     A
C1043  H1083   1.111   .     S
C1043  H1084   1.111   .     S
C1043  H1306   1.111   .     S
C1044  C1045   1.523   .     S
C1044  H1087   1.110   .     S
C1044  H1085   1.109   .     S
C1044  O1109   1.407   .     S
C1045  H1090   1.110   .     S
C1045  H1312   1.110   1_545 S
C1045  H193    1.108   1_556 S
C1046  H1092   1.114   .     S
C1046  O1110   1.411   .     S
C1046  C1271   1.520   .     S
C1046  H1315   1.114   .     S
C1047  H1095   1.111   .     S
C1047  H1094   1.111   .     S
C1047  C1270   1.520   1_545 S
C1047  H1317   1.111   1_545 S
C1048  N1101   1.370   .     A
C1048  O1105   1.384   .     S
C1048  C1052   1.421   .     A
C1049  N1102   1.372   .     A
C1049  O1106   1.376   .     S
C1050  O1107   1.381   .     S
C1051  O1108   1.382   .     S
C1052  O1109   1.383   .     S
H1074  C1263   1.112   .     S
H1077  C368    1.111   1_546 S
H1078  C144    1.109   1_556 S
H1082  C1267   1.111   1_545 S
H1088  C1269   1.110   .     S
H1091  C1270   1.114   1_545 S
H1093  C1271   1.111   .     S
N1101  Zn1120  2.019   .     S
N1102  Zn1119  2.019   .     S
O1103  Zn1119  1.998   .     S
O1111  Zn1120  1.998   .     S
O1112  Zn1119  1.995   .     S
O1113  Zn1120  1.995   .     S
O1114  Zn1119  1.951   .     S
O1115  Zn1120  1.951   .     S
O1116  Zn1119  1.958   .     S
O1117  Zn1120  1.958   .     S
C1121  C1138   1.445   .     S
C1121  O1215   1.294   .     A
C1121  O1225   1.293   .     A
C1122  O1222   1.381   .     S
C1122  C1161   1.415   .     A
C1122  C1126   1.415   .     A
C1123  C1127   1.370   .     S
C1123  O1226   1.280   .     A
C1123  O1229   1.283   .     A
C1124  C1128   1.370   .     S
C1124  O1228   1.283   .     A
C1124  O1227   1.280   .     A
C1125  C1162   1.419   .     A
C1125  C1164   1.414   .     A
C1126  C1163   1.413   .     A
C1126  C901    1.526   1_565 S
C1128  C231    1.167   1_556 S
C1129  C1134   1.379   .     A
C1129  C1140   1.398   .     A
C1129  H1165   1.084   .     S
C1130  C1135   1.383   .     A
C1130  H1176   1.083   .     S
C1130  C1141   1.400   .     A
C1131  H1187   1.084   .     S
C1131  C1141   1.397   .     A
C1131  C1136   1.378   .     A
C1132  O1224   1.292   .     A
C1132  O1223   1.291   .     A
C1132  C1139   1.436   .     S
C1133  H1198   1.084   .     S
C1133  C1140   1.397   .     A
C1133  C1137   1.382   .     A
C1134  C1138   1.398   .     A
C1134  H1208   1.077   .     S
C1135  C1139   1.398   .     A
C1135  H1209   1.083   .     S
C1136  H1210   1.077   .     S
C1136  C1139   1.396   .     A
C1137  H1211   1.081   .     S
C1137  C1138   1.402   .     A
C1140  C1253   1.442   1_455 S
C1141  C1252   1.442   .     S
C1142  O1230   1.414   .     S
C1142  H1166   1.108   .     S
C1142  C1144   1.523   .     S
C1142  H1212   1.111   .     S
C1143  C1162   1.424   .     A
C1143  N1213   1.369   .     A
C1143  O1230   1.386   .     S
C1144  H1168   1.111   .     S
C1144  H1169   1.109   .     S
C1144  H1167   1.111   .     S
C1145  H1170   1.110   .     S
C1145  C1146   1.524   .     S
C1145  H1171   1.119   .     S
C1145  O1216   1.420   .     S
C1146  H1174   1.109   .     S
C1146  H1172   1.111   .     S
C1146  H1173   1.110   .     S
C1147  H1175   1.108   .     S
C1147  H1177   1.117   .     S
C1147  O1217   1.419   .     S
C1147  C1148   1.526   .     S
C1148  H1180   1.110   .     S
C1148  H1179   1.111   .     S
C1148  H1178   1.108   .     S
C1149  O1218   1.418   .     S
C1149  H1181   1.109   .     S
C1149  C1150   1.523   .     S
C1149  H1182   1.118   .     S
C1150  H1184   1.111   .     S
C1150  H1183   1.111   .     S
C1150  H1185   1.109   .     S
C1151  O1219   1.404   .     S
C1151  H1188   1.113   .     S
C1152  H1191   1.108   .     S
C1152  C927    1.523   1_565 S
C1152  H517    1.111   1_565 S
C1153  H1192   1.116   .     S
C1153  H1193   1.112   .     S
C1153  O1220   1.412   .     S
C1153  C1155   1.520   .     S
C1154  O1216   1.377   .     S
C1154  C1163   1.419   .     A
C1154  N1214   1.370   .     A
C1155  H1195   1.111   .     S
C1155  H1196   1.111   .     S
C1155  H970    1.111   1_565 S
C1156  C1157   1.523   .     S
C1156  H1199   1.110   .     S
C1156  H1197   1.109   .     S
C1156  O1221   1.407   .     S
C1157  H1202   1.110   .     S
C1157  H305    1.108   1_556 S
C1158  H1204   1.114   .     S
C1158  O1222   1.411   .     S
C1158  C935    1.520   1_565 S
C1158  H979    1.114   1_565 S
C1159  H1207   1.111   .     S
C1159  H1206   1.111   .     S
C1160  N1213   1.370   .     A
C1160  O1217   1.384   .     S
C1160  C1164   1.421   .     A
C1161  N1214   1.372   .     A
C1161  O1218   1.376   .     S
C1162  O1219   1.381   .     S
C1163  O1220   1.382   .     S
C1164  O1221   1.383   .     S
H1186  C927    1.112   1_565 S
H1189  C32     1.111   1_556 S
H1190  C256    1.109   1_556 S
H1200  C933    1.110   1_565 S
H1205  C935    1.111   1_565 S
N1213  Zn1232  2.019   .     S
N1214  Zn1231  2.019   .     S
O1215  Zn1231  1.998   .     S
O1223  Zn1232  1.998   .     S
O1224  Zn1231  1.995   .     S
O1225  Zn1232  1.995   .     S
O1226  Zn1231  1.951   .     S
O1227  Zn1232  1.951   .     S
O1228  Zn1231  1.958   .     S
O1229  Zn1232  1.958   .     S
C1233  C1250   1.445   .     S
C1233  O1327   1.294   .     A
C1233  O1337   1.293   .     A
C1234  O1334   1.381   .     S
C1234  C1273   1.415   .     A
C1234  C1238   1.415   .     A
C1235  C1239   1.370   .     S
C1235  O1338   1.280   .     A
C1235  O1341   1.283   .     A
C1236  C1240   1.370   .     S
C1236  O1340   1.283   .     A
C1236  O1339   1.280   .     A
C1237  C1274   1.419   .     A
C1237  C1276   1.414   .     A
C1238  C1275   1.413   .     A
C1238  C1013   1.526   1_565 S
C1240  C343    1.167   1_556 S
C1241  C1246   1.379   .     A
C1241  C1252   1.398   .     A
C1241  H1277   1.084   .     S
C1242  C1247   1.383   .     A
C1242  H1288   1.083   .     S
C1242  C1253   1.400   .     A
C1243  H1299   1.084   .     S
C1243  C1253   1.397   .     A
C1243  C1248   1.378   .     A
C1244  O1336   1.292   .     A
C1244  O1335   1.291   .     A
C1244  C1251   1.436   .     S
C1245  H1310   1.084   .     S
C1245  C1252   1.397   .     A
C1245  C1249   1.382   .     A
C1246  C1250   1.398   .     A
C1246  H1320   1.077   .     S
C1247  C1251   1.398   .     A
C1247  H1321   1.083   .     S
C1248  H1322   1.077   .     S
C1248  C1251   1.396   .     A
C1249  H1323   1.081   .     S
C1249  C1250   1.402   .     A
C1253  C1140   1.442   1_655 S
C1254  O1342   1.414   .     S
C1254  H1278   1.108   .     S
C1254  C1256   1.523   .     S
C1254  H1324   1.111   .     S
C1255  C1274   1.424   .     A
C1255  N1325   1.369   .     A
C1255  O1342   1.386   .     S
C1256  H1280   1.111   .     S
C1256  H1281   1.109   .     S
C1256  H1279   1.111   .     S
C1257  H1282   1.110   .     S
C1257  C1258   1.524   .     S
C1257  H1283   1.119   .     S
C1257  O1328   1.420   .     S
C1258  H1286   1.109   .     S
C1258  H1284   1.111   .     S
C1258  H1285   1.110   .     S
C1259  H1287   1.108   .     S
C1259  H1289   1.117   .     S
C1259  O1329   1.419   .     S
C1259  C1260   1.526   .     S
C1260  H1292   1.110   .     S
C1260  H1291   1.111   .     S
C1260  H1290   1.108   .     S
C1261  O1330   1.418   .     S
C1261  H1293   1.109   .     S
C1261  C1262   1.523   .     S
C1261  H1294   1.118   .     S
C1262  H1296   1.111   .     S
C1262  H1295   1.111   .     S
C1262  H1297   1.109   .     S
C1263  O1331   1.404   .     S
C1263  H1300   1.113   .     S
C1264  H1303   1.108   .     S
C1264  C1039   1.523   1_565 S
C1264  H629    1.111   1_565 S
C1265  H1304   1.116   .     S
C1265  H1305   1.112   .     S
C1265  O1332   1.412   .     S
C1265  C1267   1.520   .     S
C1266  O1328   1.377   .     S
C1266  C1275   1.419   .     A
C1266  N1326   1.370   .     A
C1267  H1307   1.111   .     S
C1267  H1308   1.111   .     S
C1267  H1082   1.111   1_565 S
C1268  C1269   1.523   .     S
C1268  H1311   1.110   .     S
C1268  H1309   1.109   .     S
C1268  O1333   1.407   .     S
C1269  H1314   1.110   .     S
C1269  H417    1.108   1_556 S
C1270  H1316   1.114   .     S
C1270  O1334   1.411   .     S
C1270  C1047   1.520   1_565 S
C1270  H1091   1.114   1_565 S
C1271  H1319   1.111   .     S
C1271  H1318   1.111   .     S
C1272  N1325   1.370   .     A
C1272  O1329   1.384   .     S
C1272  C1276   1.421   .     A
C1273  N1326   1.372   .     A
C1273  O1330   1.376   .     S
C1274  O1331   1.381   .     S
C1275  O1332   1.382   .     S
C1276  O1333   1.383   .     S
H1298  C1039   1.112   1_565 S
H1301  C144    1.111   1_556 S
H1302  C368    1.109   1_556 S
H1312  C1045   1.110   1_565 S
H1317  C1047   1.111   1_565 S
N1325  Zn1344  2.019   .     S
N1326  Zn1343  2.019   .     S
O1327  Zn1343  1.998   .     S
O1335  Zn1344  1.998   .     S
O1336  Zn1343  1.995   .     S
O1337  Zn1344  1.995   .     S
O1338  Zn1343  1.951   .     S
O1339  Zn1344  1.951   .     S
O1340  Zn1343  1.958   .     S
O1341  Zn1344  1.958   .     S
