data_str_m3_o1_o16_pcu_sym.5
_audit_creation_date              2020-01-03
_audit_creation_method            'Materials Studio'
_symmetry_space_group_name_H-M    'P1'
_symmetry_Int_Tables_number       1
_symmetry_cell_setting            triclinic
loop_
_symmetry_equiv_pos_as_xyz
  x,y,z
_cell_length_a                    29.6789
_cell_length_b                    32.1555
_cell_length_c                    26.3685
_cell_angle_alpha                 90.4811
_cell_angle_beta                  71.9750
_cell_angle_gamma                 88.0021
loop_
_atom_site_label
_atom_site_type_symbol
_atom_site_fract_x
_atom_site_fract_y
_atom_site_fract_z
_atom_site_U_iso_or_equiv
_atom_site_adp_type
_atom_site_occupancy
O1     O     0.12846   0.22775   0.25001   0.00000  Uiso   1.00
O2     O     0.20490   0.22774   0.25001   0.00000  Uiso   1.00
C3     C     0.16562   0.24688   0.25060   0.00000  Uiso   1.00
O4     O     0.10947   0.16666   0.32681   0.00000  Uiso   1.00
O5     O     0.18591   0.16665   0.32681   0.00000  Uiso   1.00
C6     C     0.14175   0.16027   0.35040   0.00000  Uiso   1.00
Zn7    Zn    0.11562   0.16667   0.25000   0.00000  Uiso   1.00
Zn8    Zn    0.21771   0.16666   0.25000   0.00000  Uiso   1.00
O9     O     0.12843   0.10559   0.25000   0.00000  Uiso   1.00
O10    O     0.20488   0.10558   0.25000   0.00000  Uiso   1.00
O11    O     0.14742   0.16668   0.17319   0.00000  Uiso   1.00
O12    O     0.22387   0.16667   0.17319   0.00000  Uiso   1.00
C13    C     0.16653   0.08693   0.25274   0.00000  Uiso   1.00
C14    C     0.19252   0.16855   0.14823   0.00000  Uiso   1.00
C15    C     0.26664   0.16664   0.00277   0.00000  Uiso   1.00
H16    H     0.28348   0.13393   0.40630   0.00000  Uiso   1.00
H17    H     0.30276   0.16983   0.47728   0.00000  Uiso   1.00
C18    C     0.20767   0.16897   0.08986   0.00000  Uiso   1.00
C19    C     0.08043   0.14335   0.43460   0.00000  Uiso   1.00
C20    C     0.06692   0.13727   0.48919   0.00000  Uiso   1.00
C21    C     0.10033   0.13942   0.01618   0.00000  Uiso   1.00
C22    C     0.14909   0.14298   0.48765   0.00000  Uiso   1.00
C23    C     0.16336   0.13820   0.43173   0.00000  Uiso   1.00
C24    C     0.18427   0.15169   0.01197   0.00000  Uiso   1.00
C25    C     0.23238   0.15308   0.48061   0.00000  Uiso   1.00
C26    C     0.24607   0.13865   0.42813   0.00000  Uiso   1.00
C27    C     0.21196   0.12668   0.40516   0.00000  Uiso   1.00
C28    C     0.17288   0.16030   0.06615   0.00000  Uiso   1.00
C29    C     0.25462   0.17605   0.05740   0.00000  Uiso   1.00
C30    C     0.12856   0.14608   0.40568   0.00000  Uiso   1.00
H31    H     0.13665   0.15988   0.09092   0.00000  Uiso   1.00
H32    H     0.05326   0.14622   0.41516   0.00000  Uiso   1.00
H33    H     0.08690   0.13751   0.05893   0.00000  Uiso   1.00
H34    H     0.03007   0.13313   0.01113   0.00000  Uiso   1.00
C35    C     0.20652   0.31099   0.23172   0.00000  Uiso   1.00
H36    H     0.23926   0.29342   0.21227   0.00000  Uiso   1.00
C37    C     0.20752   0.02007   0.23285   0.00000  Uiso   1.00
H38    H     0.24053   0.03487   0.21334   0.00000  Uiso   1.00
C39    C     0.16601   0.04314   0.25799   0.00000  Uiso   1.00
C40    C     0.12327   0.02431   0.28422   0.00000  Uiso   1.00
C41    C     0.12046   0.31505   0.27668   0.00000  Uiso   1.00
C42    C     0.16346   0.29156   0.25261   0.00000  Uiso   1.00
C43    C     0.31925   0.14100   0.21624   0.00000  Uiso   1.00
H44    H     0.30900   0.12034   0.18949   0.00000  Uiso   1.00
C45    C     0.03361   0.14079   0.21619   0.00000  Uiso   1.00
N46    N     0.04760   0.16668   0.25002   0.00000  Uiso   1.00
C47    C     0.01403   0.19127   0.28496   0.00000  Uiso   1.00
H48    H     0.02430   0.20988   0.31353   0.00000  Uiso   1.00
C49    C     0.29963   0.19250   0.28467   0.00000  Uiso   1.00
N50    N     0.28573   0.16665   0.25001   0.00000  Uiso   1.00
C51    C     0.29190   0.19456   0.07846   0.00000  Uiso   1.00
C52    C     0.27760   0.23889   0.10036   0.00000  Uiso   1.00
H53    H     0.24385   0.23994   0.13367   0.00000  Uiso   1.00
H54    H     0.30568   0.25124   0.11538   0.00000  Uiso   1.00
H55    H     0.27340   0.25934   0.06823   0.00000  Uiso   1.00
H56    H     0.29962   0.17440   0.10889   0.00000  Uiso   1.00
H57    H     0.32605   0.19659   0.04602   0.00000  Uiso   1.00
Br58   Br    0.07013   0.05644   0.33246   0.00000  Uiso   1.00
C59    C     0.07194   0.29684   0.28748   0.00000  Uiso   1.00
C60    C     0.06058   0.29191   0.23483   0.00000  Uiso   1.00
H61    H     0.04959   0.32264   0.22261   0.00000  Uiso   1.00
H62    H     0.09164   0.27943   0.20208   0.00000  Uiso   1.00
H63    H     0.03158   0.27026   0.23931   0.00000  Uiso   1.00
H64    H     0.06963   0.26750   0.30952   0.00000  Uiso   1.00
H65    H     0.04306   0.31657   0.31439   0.00000  Uiso   1.00
Br66   Br    0.07663   0.10141   0.16917   0.00000  Uiso   1.00
C67    C     0.26546   0.22156   0.32569   0.00000  Uiso   1.00
C68    C     0.27814   0.26716   0.31876   0.00000  Uiso   1.00
H69    H     0.28288   0.27670   0.27715   0.00000  Uiso   1.00
H70    H     0.24899   0.28700   0.34575   0.00000  Uiso   1.00
H71    H     0.31056   0.27250   0.32977   0.00000  Uiso   1.00
H72    H     0.22929   0.22104   0.32469   0.00000  Uiso   1.00
H73    H     0.26488   0.21202   0.36627   0.00000  Uiso   1.00
C74    C     0.22770   0.09295   0.36201   0.00000  Uiso   1.00
C75    C     0.19455   0.05651   0.37247   0.00000  Uiso   1.00
H76    H     0.18974   0.04433   0.41304   0.00000  Uiso   1.00
H77    H     0.15951   0.06625   0.36891   0.00000  Uiso   1.00
H78    H     0.21015   0.03104   0.34292   0.00000  Uiso   1.00
H79    H     0.23295   0.10568   0.32240   0.00000  Uiso   1.00
H80    H     0.26331   0.07965   0.36021   0.00000  Uiso   1.00
O81    O     0.46179   0.22775   0.25001   0.00000  Uiso   1.00
O82    O     0.53823   0.22774   0.25001   0.00000  Uiso   1.00
C83    C     0.49895   0.24688   0.25060   0.00000  Uiso   1.00
O84    O     0.44280   0.16666   0.32681   0.00000  Uiso   1.00
O85    O     0.51924   0.16665   0.32681   0.00000  Uiso   1.00
C86    C     0.47508   0.16027   0.35040   0.00000  Uiso   1.00
Zn87   Zn    0.44896   0.16667   0.25000   0.00000  Uiso   1.00
Zn88   Zn    0.55104   0.16666   0.25000   0.00000  Uiso   1.00
O89    O     0.46177   0.10559   0.25000   0.00000  Uiso   1.00
O90    O     0.53821   0.10558   0.25000   0.00000  Uiso   1.00
O91    O     0.48076   0.16668   0.17319   0.00000  Uiso   1.00
O92    O     0.55720   0.16667   0.17319   0.00000  Uiso   1.00
C93    C     0.49986   0.08693   0.25274   0.00000  Uiso   1.00
C94    C     0.52586   0.16855   0.14823   0.00000  Uiso   1.00
C95    C     0.59997   0.16664   0.00277   0.00000  Uiso   1.00
H96    H     0.61682   0.13393   0.40630   0.00000  Uiso   1.00
H97    H     0.63609   0.16983   0.47728   0.00000  Uiso   1.00
C98    C     0.54100   0.16897   0.08986   0.00000  Uiso   1.00
C99    C     0.41377   0.14335   0.43460   0.00000  Uiso   1.00
C100   C     0.40025   0.13727   0.48919   0.00000  Uiso   1.00
C101   C     0.43366   0.13942   0.01618   0.00000  Uiso   1.00
C102   C     0.48242   0.14298   0.48765   0.00000  Uiso   1.00
C103   C     0.49670   0.13820   0.43173   0.00000  Uiso   1.00
C104   C     0.51760   0.15169   0.01197   0.00000  Uiso   1.00
C105   C     0.56572   0.15308   0.48061   0.00000  Uiso   1.00
C106   C     0.57941   0.13865   0.42813   0.00000  Uiso   1.00
C107   C     0.54530   0.12668   0.40516   0.00000  Uiso   1.00
C108   C     0.50622   0.16030   0.06615   0.00000  Uiso   1.00
C109   C     0.58795   0.17605   0.05740   0.00000  Uiso   1.00
C110   C     0.46190   0.14608   0.40568   0.00000  Uiso   1.00
H111   H     0.46998   0.15988   0.09092   0.00000  Uiso   1.00
H112   H     0.38659   0.14622   0.41516   0.00000  Uiso   1.00
H113   H     0.42023   0.13751   0.05893   0.00000  Uiso   1.00
H114   H     0.36341   0.13313   0.01113   0.00000  Uiso   1.00
C115   C     0.53986   0.31099   0.23172   0.00000  Uiso   1.00
H116   H     0.57259   0.29342   0.21227   0.00000  Uiso   1.00
C117   C     0.54086   0.02007   0.23285   0.00000  Uiso   1.00
H118   H     0.57387   0.03487   0.21334   0.00000  Uiso   1.00
C119   C     0.49934   0.04314   0.25799   0.00000  Uiso   1.00
C120   C     0.45660   0.02431   0.28422   0.00000  Uiso   1.00
C121   C     0.45380   0.31505   0.27668   0.00000  Uiso   1.00
C122   C     0.49679   0.29156   0.25261   0.00000  Uiso   1.00
C123   C     0.65259   0.14100   0.21624   0.00000  Uiso   1.00
H124   H     0.64233   0.12034   0.18949   0.00000  Uiso   1.00
C125   C     0.36694   0.14079   0.21619   0.00000  Uiso   1.00
N126   N     0.38093   0.16668   0.25002   0.00000  Uiso   1.00
C127   C     0.34736   0.19127   0.28496   0.00000  Uiso   1.00
H128   H     0.35763   0.20988   0.31353   0.00000  Uiso   1.00
C129   C     0.63297   0.19250   0.28467   0.00000  Uiso   1.00
N130   N     0.61906   0.16665   0.25001   0.00000  Uiso   1.00
C131   C     0.62524   0.19456   0.07846   0.00000  Uiso   1.00
C132   C     0.61093   0.23889   0.10036   0.00000  Uiso   1.00
H133   H     0.57718   0.23994   0.13367   0.00000  Uiso   1.00
H134   H     0.63901   0.25124   0.11538   0.00000  Uiso   1.00
H135   H     0.60673   0.25934   0.06823   0.00000  Uiso   1.00
H136   H     0.63296   0.17440   0.10889   0.00000  Uiso   1.00
H137   H     0.65938   0.19659   0.04602   0.00000  Uiso   1.00
Br138  Br    0.40346   0.05644   0.33246   0.00000  Uiso   1.00
C139   C     0.40527   0.29684   0.28748   0.00000  Uiso   1.00
C140   C     0.39391   0.29191   0.23483   0.00000  Uiso   1.00
H141   H     0.38293   0.32264   0.22261   0.00000  Uiso   1.00
H142   H     0.42497   0.27943   0.20208   0.00000  Uiso   1.00
H143   H     0.36491   0.27026   0.23931   0.00000  Uiso   1.00
H144   H     0.40297   0.26750   0.30952   0.00000  Uiso   1.00
H145   H     0.37639   0.31657   0.31439   0.00000  Uiso   1.00
Br146  Br    0.40996   0.10141   0.16917   0.00000  Uiso   1.00
C147   C     0.59879   0.22156   0.32569   0.00000  Uiso   1.00
C148   C     0.61147   0.26716   0.31876   0.00000  Uiso   1.00
H149   H     0.61621   0.27670   0.27715   0.00000  Uiso   1.00
H150   H     0.58233   0.28700   0.34575   0.00000  Uiso   1.00
H151   H     0.64389   0.27250   0.32977   0.00000  Uiso   1.00
H152   H     0.56262   0.22104   0.32469   0.00000  Uiso   1.00
H153   H     0.59821   0.21202   0.36627   0.00000  Uiso   1.00
C154   C     0.56103   0.09295   0.36201   0.00000  Uiso   1.00
C155   C     0.52789   0.05651   0.37247   0.00000  Uiso   1.00
H156   H     0.52307   0.04433   0.41304   0.00000  Uiso   1.00
H157   H     0.49284   0.06625   0.36891   0.00000  Uiso   1.00
H158   H     0.54348   0.03104   0.34292   0.00000  Uiso   1.00
H159   H     0.56628   0.10568   0.32240   0.00000  Uiso   1.00
H160   H     0.59664   0.07965   0.36021   0.00000  Uiso   1.00
O161   O     0.79512   0.22775   0.25001   0.00000  Uiso   1.00
O162   O     0.87157   0.22774   0.25001   0.00000  Uiso   1.00
C163   C     0.83228   0.24688   0.25060   0.00000  Uiso   1.00
O164   O     0.77613   0.16666   0.32681   0.00000  Uiso   1.00
O165   O     0.85258   0.16665   0.32681   0.00000  Uiso   1.00
C166   C     0.80841   0.16027   0.35040   0.00000  Uiso   1.00
Zn167  Zn    0.78229   0.16667   0.25000   0.00000  Uiso   1.00
Zn168  Zn    0.88438   0.16666   0.25000   0.00000  Uiso   1.00
O169   O     0.79510   0.10559   0.25000   0.00000  Uiso   1.00
O170   O     0.87154   0.10558   0.25000   0.00000  Uiso   1.00
O171   O     0.81409   0.16668   0.17319   0.00000  Uiso   1.00
O172   O     0.89053   0.16667   0.17319   0.00000  Uiso   1.00
C173   C     0.83320   0.08693   0.25274   0.00000  Uiso   1.00
C174   C     0.85919   0.16855   0.14823   0.00000  Uiso   1.00
C175   C     0.93330   0.16664   0.00277   0.00000  Uiso   1.00
H176   H     0.95015   0.13393   0.40630   0.00000  Uiso   1.00
H177   H     0.96942   0.16983   0.47728   0.00000  Uiso   1.00
C178   C     0.87433   0.16897   0.08986   0.00000  Uiso   1.00
C179   C     0.74710   0.14335   0.43460   0.00000  Uiso   1.00
C180   C     0.73358   0.13727   0.48919   0.00000  Uiso   1.00
C181   C     0.76700   0.13942   0.01618   0.00000  Uiso   1.00
C182   C     0.81576   0.14298   0.48765   0.00000  Uiso   1.00
C183   C     0.83003   0.13820   0.43173   0.00000  Uiso   1.00
C184   C     0.85094   0.15169   0.01197   0.00000  Uiso   1.00
C185   C     0.89905   0.15308   0.48061   0.00000  Uiso   1.00
C186   C     0.91274   0.13865   0.42813   0.00000  Uiso   1.00
C187   C     0.87863   0.12668   0.40516   0.00000  Uiso   1.00
C188   C     0.83955   0.16030   0.06615   0.00000  Uiso   1.00
C189   C     0.92129   0.17605   0.05740   0.00000  Uiso   1.00
C190   C     0.79523   0.14608   0.40568   0.00000  Uiso   1.00
H191   H     0.80331   0.15988   0.09092   0.00000  Uiso   1.00
H192   H     0.71992   0.14622   0.41516   0.00000  Uiso   1.00
H193   H     0.75356   0.13751   0.05893   0.00000  Uiso   1.00
H194   H     0.69674   0.13313   0.01113   0.00000  Uiso   1.00
C195   C     0.87319   0.31099   0.23172   0.00000  Uiso   1.00
H196   H     0.90592   0.29342   0.21227   0.00000  Uiso   1.00
C197   C     0.87419   0.02007   0.23285   0.00000  Uiso   1.00
H198   H     0.90720   0.03487   0.21334   0.00000  Uiso   1.00
C199   C     0.83267   0.04314   0.25799   0.00000  Uiso   1.00
C200   C     0.78993   0.02431   0.28422   0.00000  Uiso   1.00
C201   C     0.78713   0.31505   0.27668   0.00000  Uiso   1.00
C202   C     0.83013   0.29156   0.25261   0.00000  Uiso   1.00
C203   C     0.98592   0.14100   0.21624   0.00000  Uiso   1.00
H204   H     0.97566   0.12034   0.18949   0.00000  Uiso   1.00
C205   C     0.70027   0.14079   0.21619   0.00000  Uiso   1.00
N206   N     0.71426   0.16668   0.25002   0.00000  Uiso   1.00
C207   C     0.68069   0.19127   0.28496   0.00000  Uiso   1.00
H208   H     0.69096   0.20988   0.31353   0.00000  Uiso   1.00
C209   C     0.96630   0.19250   0.28467   0.00000  Uiso   1.00
N210   N     0.95239   0.16665   0.25001   0.00000  Uiso   1.00
C211   C     0.95857   0.19456   0.07846   0.00000  Uiso   1.00
C212   C     0.94426   0.23889   0.10036   0.00000  Uiso   1.00
H213   H     0.91052   0.23994   0.13367   0.00000  Uiso   1.00
H214   H     0.97234   0.25124   0.11538   0.00000  Uiso   1.00
H215   H     0.94006   0.25934   0.06823   0.00000  Uiso   1.00
H216   H     0.96629   0.17440   0.10889   0.00000  Uiso   1.00
H217   H     0.99272   0.19659   0.04602   0.00000  Uiso   1.00
Br218  Br    0.73679   0.05644   0.33246   0.00000  Uiso   1.00
C219   C     0.73860   0.29684   0.28748   0.00000  Uiso   1.00
C220   C     0.72725   0.29191   0.23483   0.00000  Uiso   1.00
H221   H     0.71626   0.32264   0.22261   0.00000  Uiso   1.00
H222   H     0.75830   0.27943   0.20208   0.00000  Uiso   1.00
H223   H     0.69825   0.27026   0.23931   0.00000  Uiso   1.00
H224   H     0.73630   0.26750   0.30952   0.00000  Uiso   1.00
H225   H     0.70973   0.31657   0.31439   0.00000  Uiso   1.00
Br226  Br    0.74329   0.10141   0.16917   0.00000  Uiso   1.00
C227   C     0.93213   0.22156   0.32569   0.00000  Uiso   1.00
C228   C     0.94481   0.26716   0.31876   0.00000  Uiso   1.00
H229   H     0.94954   0.27670   0.27715   0.00000  Uiso   1.00
H230   H     0.91566   0.28700   0.34575   0.00000  Uiso   1.00
H231   H     0.97722   0.27250   0.32977   0.00000  Uiso   1.00
H232   H     0.89595   0.22104   0.32469   0.00000  Uiso   1.00
H233   H     0.93154   0.21202   0.36627   0.00000  Uiso   1.00
C234   C     0.89437   0.09295   0.36201   0.00000  Uiso   1.00
C235   C     0.86122   0.05651   0.37247   0.00000  Uiso   1.00
H236   H     0.85640   0.04433   0.41304   0.00000  Uiso   1.00
H237   H     0.82617   0.06625   0.36891   0.00000  Uiso   1.00
H238   H     0.87681   0.03104   0.34292   0.00000  Uiso   1.00
H239   H     0.89962   0.10568   0.32240   0.00000  Uiso   1.00
H240   H     0.92997   0.07965   0.36021   0.00000  Uiso   1.00
O241   O     0.12846   0.56108   0.25001   0.00000  Uiso   1.00
O242   O     0.20490   0.56107   0.25001   0.00000  Uiso   1.00
C243   C     0.16562   0.58021   0.25060   0.00000  Uiso   1.00
O244   O     0.10947   0.50000   0.32681   0.00000  Uiso   1.00
O245   O     0.18591   0.49999   0.32681   0.00000  Uiso   1.00
C246   C     0.14175   0.49360   0.35040   0.00000  Uiso   1.00
Zn247  Zn    0.11562   0.50001   0.25000   0.00000  Uiso   1.00
Zn248  Zn    0.21771   0.49999   0.25000   0.00000  Uiso   1.00
O249   O     0.12843   0.43893   0.25000   0.00000  Uiso   1.00
O250   O     0.20488   0.43892   0.25000   0.00000  Uiso   1.00
O251   O     0.14742   0.50001   0.17319   0.00000  Uiso   1.00
O252   O     0.22387   0.50000   0.17319   0.00000  Uiso   1.00
C253   C     0.16653   0.42026   0.25274   0.00000  Uiso   1.00
C254   C     0.19252   0.50188   0.14823   0.00000  Uiso   1.00
C255   C     0.26664   0.49998   0.00277   0.00000  Uiso   1.00
H256   H     0.28348   0.46726   0.40630   0.00000  Uiso   1.00
H257   H     0.30276   0.50317   0.47728   0.00000  Uiso   1.00
C258   C     0.20767   0.50231   0.08986   0.00000  Uiso   1.00
C259   C     0.08043   0.47668   0.43460   0.00000  Uiso   1.00
C260   C     0.06692   0.47060   0.48919   0.00000  Uiso   1.00
C261   C     0.10033   0.47275   0.01618   0.00000  Uiso   1.00
C262   C     0.14909   0.47631   0.48765   0.00000  Uiso   1.00
C263   C     0.16336   0.47154   0.43173   0.00000  Uiso   1.00
C264   C     0.18427   0.48503   0.01197   0.00000  Uiso   1.00
C265   C     0.23238   0.48641   0.48061   0.00000  Uiso   1.00
C266   C     0.24607   0.47199   0.42813   0.00000  Uiso   1.00
C267   C     0.21196   0.46001   0.40516   0.00000  Uiso   1.00
C268   C     0.17288   0.49363   0.06615   0.00000  Uiso   1.00
C269   C     0.25462   0.50938   0.05740   0.00000  Uiso   1.00
C270   C     0.12856   0.47941   0.40568   0.00000  Uiso   1.00
H271   H     0.13665   0.49322   0.09092   0.00000  Uiso   1.00
H272   H     0.05326   0.47955   0.41516   0.00000  Uiso   1.00
H273   H     0.08690   0.47084   0.05893   0.00000  Uiso   1.00
H274   H     0.03007   0.46647   0.01113   0.00000  Uiso   1.00
C275   C     0.20652   0.64432   0.23172   0.00000  Uiso   1.00
H276   H     0.23926   0.62675   0.21227   0.00000  Uiso   1.00
C277   C     0.20752   0.35341   0.23285   0.00000  Uiso   1.00
H278   H     0.24053   0.36820   0.21334   0.00000  Uiso   1.00
C279   C     0.16601   0.37647   0.25799   0.00000  Uiso   1.00
C280   C     0.12327   0.35764   0.28422   0.00000  Uiso   1.00
C281   C     0.12046   0.64838   0.27668   0.00000  Uiso   1.00
C282   C     0.16346   0.62489   0.25261   0.00000  Uiso   1.00
C283   C     0.31925   0.47434   0.21624   0.00000  Uiso   1.00
H284   H     0.30900   0.45367   0.18949   0.00000  Uiso   1.00
C285   C     0.03361   0.47412   0.21619   0.00000  Uiso   1.00
N286   N     0.04760   0.50001   0.25002   0.00000  Uiso   1.00
C287   C     0.01403   0.52461   0.28496   0.00000  Uiso   1.00
H288   H     0.02430   0.54322   0.31353   0.00000  Uiso   1.00
C289   C     0.29963   0.52584   0.28467   0.00000  Uiso   1.00
N290   N     0.28573   0.49998   0.25001   0.00000  Uiso   1.00
C291   C     0.29190   0.52789   0.07846   0.00000  Uiso   1.00
C292   C     0.27760   0.57222   0.10036   0.00000  Uiso   1.00
H293   H     0.24385   0.57327   0.13367   0.00000  Uiso   1.00
H294   H     0.30568   0.58457   0.11538   0.00000  Uiso   1.00
H295   H     0.27340   0.59267   0.06823   0.00000  Uiso   1.00
H296   H     0.29962   0.50773   0.10889   0.00000  Uiso   1.00
H297   H     0.32605   0.52992   0.04602   0.00000  Uiso   1.00
Br298  Br    0.07013   0.38977   0.33246   0.00000  Uiso   1.00
C299   C     0.07194   0.63018   0.28748   0.00000  Uiso   1.00
C300   C     0.06058   0.62524   0.23483   0.00000  Uiso   1.00
H301   H     0.04959   0.65597   0.22261   0.00000  Uiso   1.00
H302   H     0.09164   0.61276   0.20208   0.00000  Uiso   1.00
H303   H     0.03158   0.60360   0.23931   0.00000  Uiso   1.00
H304   H     0.06963   0.60084   0.30952   0.00000  Uiso   1.00
H305   H     0.04306   0.64990   0.31439   0.00000  Uiso   1.00
Br306  Br    0.07663   0.43474   0.16917   0.00000  Uiso   1.00
C307   C     0.26546   0.55489   0.32569   0.00000  Uiso   1.00
C308   C     0.27814   0.60050   0.31876   0.00000  Uiso   1.00
H309   H     0.28288   0.61003   0.27715   0.00000  Uiso   1.00
H310   H     0.24899   0.62033   0.34575   0.00000  Uiso   1.00
H311   H     0.31056   0.60583   0.32977   0.00000  Uiso   1.00
H312   H     0.22929   0.55437   0.32469   0.00000  Uiso   1.00
H313   H     0.26488   0.54536   0.36627   0.00000  Uiso   1.00
C314   C     0.22770   0.42628   0.36201   0.00000  Uiso   1.00
C315   C     0.19455   0.38984   0.37247   0.00000  Uiso   1.00
H316   H     0.18974   0.37767   0.41304   0.00000  Uiso   1.00
H317   H     0.15951   0.39959   0.36891   0.00000  Uiso   1.00
H318   H     0.21015   0.36437   0.34292   0.00000  Uiso   1.00
H319   H     0.23295   0.43901   0.32240   0.00000  Uiso   1.00
H320   H     0.26331   0.41298   0.36021   0.00000  Uiso   1.00
O321   O     0.46179   0.56108   0.25001   0.00000  Uiso   1.00
O322   O     0.53823   0.56107   0.25001   0.00000  Uiso   1.00
C323   C     0.49895   0.58021   0.25060   0.00000  Uiso   1.00
O324   O     0.44280   0.50000   0.32681   0.00000  Uiso   1.00
O325   O     0.51924   0.49999   0.32681   0.00000  Uiso   1.00
C326   C     0.47508   0.49360   0.35040   0.00000  Uiso   1.00
Zn327  Zn    0.44896   0.50001   0.25000   0.00000  Uiso   1.00
Zn328  Zn    0.55104   0.49999   0.25000   0.00000  Uiso   1.00
O329   O     0.46177   0.43893   0.25000   0.00000  Uiso   1.00
O330   O     0.53821   0.43892   0.25000   0.00000  Uiso   1.00
O331   O     0.48076   0.50001   0.17319   0.00000  Uiso   1.00
O332   O     0.55720   0.50000   0.17319   0.00000  Uiso   1.00
C333   C     0.49986   0.42026   0.25274   0.00000  Uiso   1.00
C334   C     0.52586   0.50188   0.14823   0.00000  Uiso   1.00
C335   C     0.59997   0.49998   0.00277   0.00000  Uiso   1.00
H336   H     0.61682   0.46726   0.40630   0.00000  Uiso   1.00
H337   H     0.63609   0.50317   0.47728   0.00000  Uiso   1.00
C338   C     0.54100   0.50231   0.08986   0.00000  Uiso   1.00
C339   C     0.41377   0.47668   0.43460   0.00000  Uiso   1.00
C340   C     0.40025   0.47060   0.48919   0.00000  Uiso   1.00
C341   C     0.43366   0.47275   0.01618   0.00000  Uiso   1.00
C342   C     0.48242   0.47631   0.48765   0.00000  Uiso   1.00
C343   C     0.49670   0.47154   0.43173   0.00000  Uiso   1.00
C344   C     0.51760   0.48503   0.01197   0.00000  Uiso   1.00
C345   C     0.56572   0.48641   0.48061   0.00000  Uiso   1.00
C346   C     0.57941   0.47199   0.42813   0.00000  Uiso   1.00
C347   C     0.54530   0.46001   0.40516   0.00000  Uiso   1.00
C348   C     0.50622   0.49363   0.06615   0.00000  Uiso   1.00
C349   C     0.58795   0.50938   0.05740   0.00000  Uiso   1.00
C350   C     0.46190   0.47941   0.40568   0.00000  Uiso   1.00
H351   H     0.46998   0.49322   0.09092   0.00000  Uiso   1.00
H352   H     0.38659   0.47955   0.41516   0.00000  Uiso   1.00
H353   H     0.42023   0.47084   0.05893   0.00000  Uiso   1.00
H354   H     0.36341   0.46647   0.01113   0.00000  Uiso   1.00
C355   C     0.53986   0.64432   0.23172   0.00000  Uiso   1.00
H356   H     0.57259   0.62675   0.21227   0.00000  Uiso   1.00
C357   C     0.54086   0.35341   0.23285   0.00000  Uiso   1.00
H358   H     0.57387   0.36820   0.21334   0.00000  Uiso   1.00
C359   C     0.49934   0.37647   0.25799   0.00000  Uiso   1.00
C360   C     0.45660   0.35764   0.28422   0.00000  Uiso   1.00
C361   C     0.45380   0.64838   0.27668   0.00000  Uiso   1.00
C362   C     0.49679   0.62489   0.25261   0.00000  Uiso   1.00
C363   C     0.65259   0.47434   0.21624   0.00000  Uiso   1.00
H364   H     0.64233   0.45367   0.18949   0.00000  Uiso   1.00
C365   C     0.36694   0.47412   0.21619   0.00000  Uiso   1.00
N366   N     0.38093   0.50001   0.25002   0.00000  Uiso   1.00
C367   C     0.34736   0.52461   0.28496   0.00000  Uiso   1.00
H368   H     0.35763   0.54322   0.31353   0.00000  Uiso   1.00
C369   C     0.63297   0.52584   0.28467   0.00000  Uiso   1.00
N370   N     0.61906   0.49998   0.25001   0.00000  Uiso   1.00
C371   C     0.62524   0.52789   0.07846   0.00000  Uiso   1.00
C372   C     0.61093   0.57222   0.10036   0.00000  Uiso   1.00
H373   H     0.57718   0.57327   0.13367   0.00000  Uiso   1.00
H374   H     0.63901   0.58457   0.11538   0.00000  Uiso   1.00
H375   H     0.60673   0.59267   0.06823   0.00000  Uiso   1.00
H376   H     0.63296   0.50773   0.10889   0.00000  Uiso   1.00
H377   H     0.65938   0.52992   0.04602   0.00000  Uiso   1.00
Br378  Br    0.40346   0.38977   0.33246   0.00000  Uiso   1.00
C379   C     0.40527   0.63018   0.28748   0.00000  Uiso   1.00
C380   C     0.39391   0.62524   0.23483   0.00000  Uiso   1.00
H381   H     0.38293   0.65597   0.22261   0.00000  Uiso   1.00
H382   H     0.42497   0.61276   0.20208   0.00000  Uiso   1.00
H383   H     0.36491   0.60360   0.23931   0.00000  Uiso   1.00
H384   H     0.40297   0.60084   0.30952   0.00000  Uiso   1.00
H385   H     0.37639   0.64990   0.31439   0.00000  Uiso   1.00
Br386  Br    0.40996   0.43474   0.16917   0.00000  Uiso   1.00
C387   C     0.59879   0.55489   0.32569   0.00000  Uiso   1.00
C388   C     0.61147   0.60050   0.31876   0.00000  Uiso   1.00
H389   H     0.61621   0.61003   0.27715   0.00000  Uiso   1.00
H390   H     0.58233   0.62033   0.34575   0.00000  Uiso   1.00
H391   H     0.64389   0.60583   0.32977   0.00000  Uiso   1.00
H392   H     0.56262   0.55437   0.32469   0.00000  Uiso   1.00
H393   H     0.59821   0.54536   0.36627   0.00000  Uiso   1.00
C394   C     0.56103   0.42628   0.36201   0.00000  Uiso   1.00
C395   C     0.52789   0.38984   0.37247   0.00000  Uiso   1.00
H396   H     0.52307   0.37767   0.41304   0.00000  Uiso   1.00
H397   H     0.49284   0.39959   0.36891   0.00000  Uiso   1.00
H398   H     0.54348   0.36437   0.34292   0.00000  Uiso   1.00
H399   H     0.56628   0.43901   0.32240   0.00000  Uiso   1.00
H400   H     0.59664   0.41298   0.36021   0.00000  Uiso   1.00
O401   O     0.79512   0.56108   0.25001   0.00000  Uiso   1.00
O402   O     0.87157   0.56107   0.25001   0.00000  Uiso   1.00
C403   C     0.83228   0.58021   0.25060   0.00000  Uiso   1.00
O404   O     0.77613   0.50000   0.32681   0.00000  Uiso   1.00
O405   O     0.85258   0.49999   0.32681   0.00000  Uiso   1.00
C406   C     0.80841   0.49360   0.35040   0.00000  Uiso   1.00
Zn407  Zn    0.78229   0.50001   0.25000   0.00000  Uiso   1.00
Zn408  Zn    0.88438   0.49999   0.25000   0.00000  Uiso   1.00
O409   O     0.79510   0.43893   0.25000   0.00000  Uiso   1.00
O410   O     0.87154   0.43892   0.25000   0.00000  Uiso   1.00
O411   O     0.81409   0.50001   0.17319   0.00000  Uiso   1.00
O412   O     0.89053   0.50000   0.17319   0.00000  Uiso   1.00
C413   C     0.83320   0.42026   0.25274   0.00000  Uiso   1.00
C414   C     0.85919   0.50188   0.14823   0.00000  Uiso   1.00
C415   C     0.93330   0.49998   0.00277   0.00000  Uiso   1.00
H416   H     0.95015   0.46726   0.40630   0.00000  Uiso   1.00
H417   H     0.96942   0.50317   0.47728   0.00000  Uiso   1.00
C418   C     0.87433   0.50231   0.08986   0.00000  Uiso   1.00
C419   C     0.74710   0.47668   0.43460   0.00000  Uiso   1.00
C420   C     0.73358   0.47060   0.48919   0.00000  Uiso   1.00
C421   C     0.76700   0.47275   0.01618   0.00000  Uiso   1.00
C422   C     0.81576   0.47631   0.48765   0.00000  Uiso   1.00
C423   C     0.83003   0.47154   0.43173   0.00000  Uiso   1.00
C424   C     0.85094   0.48503   0.01197   0.00000  Uiso   1.00
C425   C     0.89905   0.48641   0.48061   0.00000  Uiso   1.00
C426   C     0.91274   0.47199   0.42813   0.00000  Uiso   1.00
C427   C     0.87863   0.46001   0.40516   0.00000  Uiso   1.00
C428   C     0.83955   0.49363   0.06615   0.00000  Uiso   1.00
C429   C     0.92129   0.50938   0.05740   0.00000  Uiso   1.00
C430   C     0.79523   0.47941   0.40568   0.00000  Uiso   1.00
H431   H     0.80331   0.49322   0.09092   0.00000  Uiso   1.00
H432   H     0.71992   0.47955   0.41516   0.00000  Uiso   1.00
H433   H     0.75356   0.47084   0.05893   0.00000  Uiso   1.00
H434   H     0.69674   0.46647   0.01113   0.00000  Uiso   1.00
C435   C     0.87319   0.64432   0.23172   0.00000  Uiso   1.00
H436   H     0.90592   0.62675   0.21227   0.00000  Uiso   1.00
C437   C     0.87419   0.35341   0.23285   0.00000  Uiso   1.00
H438   H     0.90720   0.36820   0.21334   0.00000  Uiso   1.00
C439   C     0.83267   0.37647   0.25799   0.00000  Uiso   1.00
C440   C     0.78993   0.35764   0.28422   0.00000  Uiso   1.00
C441   C     0.78713   0.64838   0.27668   0.00000  Uiso   1.00
C442   C     0.83013   0.62489   0.25261   0.00000  Uiso   1.00
C443   C     0.98592   0.47434   0.21624   0.00000  Uiso   1.00
H444   H     0.97566   0.45367   0.18949   0.00000  Uiso   1.00
C445   C     0.70027   0.47412   0.21619   0.00000  Uiso   1.00
N446   N     0.71426   0.50001   0.25002   0.00000  Uiso   1.00
C447   C     0.68069   0.52461   0.28496   0.00000  Uiso   1.00
H448   H     0.69096   0.54322   0.31353   0.00000  Uiso   1.00
C449   C     0.96630   0.52584   0.28467   0.00000  Uiso   1.00
N450   N     0.95239   0.49998   0.25001   0.00000  Uiso   1.00
C451   C     0.95857   0.52789   0.07846   0.00000  Uiso   1.00
C452   C     0.94426   0.57222   0.10036   0.00000  Uiso   1.00
H453   H     0.91052   0.57327   0.13367   0.00000  Uiso   1.00
H454   H     0.97234   0.58457   0.11538   0.00000  Uiso   1.00
H455   H     0.94006   0.59267   0.06823   0.00000  Uiso   1.00
H456   H     0.96629   0.50773   0.10889   0.00000  Uiso   1.00
H457   H     0.99272   0.52992   0.04602   0.00000  Uiso   1.00
Br458  Br    0.73679   0.38977   0.33246   0.00000  Uiso   1.00
C459   C     0.73860   0.63018   0.28748   0.00000  Uiso   1.00
C460   C     0.72725   0.62524   0.23483   0.00000  Uiso   1.00
H461   H     0.71626   0.65597   0.22261   0.00000  Uiso   1.00
H462   H     0.75830   0.61276   0.20208   0.00000  Uiso   1.00
H463   H     0.69825   0.60360   0.23931   0.00000  Uiso   1.00
H464   H     0.73630   0.60084   0.30952   0.00000  Uiso   1.00
H465   H     0.70973   0.64990   0.31439   0.00000  Uiso   1.00
Br466  Br    0.74329   0.43474   0.16917   0.00000  Uiso   1.00
C467   C     0.93213   0.55489   0.32569   0.00000  Uiso   1.00
C468   C     0.94481   0.60050   0.31876   0.00000  Uiso   1.00
H469   H     0.94954   0.61003   0.27715   0.00000  Uiso   1.00
H470   H     0.91566   0.62033   0.34575   0.00000  Uiso   1.00
H471   H     0.97722   0.60583   0.32977   0.00000  Uiso   1.00
H472   H     0.89595   0.55437   0.32469   0.00000  Uiso   1.00
H473   H     0.93154   0.54536   0.36627   0.00000  Uiso   1.00
C474   C     0.89437   0.42628   0.36201   0.00000  Uiso   1.00
C475   C     0.86122   0.38984   0.37247   0.00000  Uiso   1.00
H476   H     0.85640   0.37767   0.41304   0.00000  Uiso   1.00
H477   H     0.82617   0.39959   0.36891   0.00000  Uiso   1.00
H478   H     0.87681   0.36437   0.34292   0.00000  Uiso   1.00
H479   H     0.89962   0.43901   0.32240   0.00000  Uiso   1.00
H480   H     0.92997   0.41298   0.36021   0.00000  Uiso   1.00
O481   O     0.12846   0.89442   0.25001   0.00000  Uiso   1.00
O482   O     0.20490   0.89441   0.25001   0.00000  Uiso   1.00
C483   C     0.16562   0.91354   0.25060   0.00000  Uiso   1.00
O484   O     0.10947   0.83333   0.32681   0.00000  Uiso   1.00
O485   O     0.18591   0.83332   0.32681   0.00000  Uiso   1.00
C486   C     0.14175   0.82693   0.35040   0.00000  Uiso   1.00
Zn487  Zn    0.11562   0.83334   0.25000   0.00000  Uiso   1.00
Zn488  Zn    0.21771   0.83333   0.25000   0.00000  Uiso   1.00
O489   O     0.12843   0.77226   0.25000   0.00000  Uiso   1.00
O490   O     0.20488   0.77225   0.25000   0.00000  Uiso   1.00
O491   O     0.14742   0.83335   0.17319   0.00000  Uiso   1.00
O492   O     0.22387   0.83334   0.17319   0.00000  Uiso   1.00
C493   C     0.16653   0.75359   0.25274   0.00000  Uiso   1.00
C494   C     0.19252   0.83522   0.14823   0.00000  Uiso   1.00
C495   C     0.26664   0.83331   0.00277   0.00000  Uiso   1.00
H496   H     0.28348   0.80060   0.40630   0.00000  Uiso   1.00
H497   H     0.30276   0.83650   0.47728   0.00000  Uiso   1.00
C498   C     0.20767   0.83564   0.08986   0.00000  Uiso   1.00
C499   C     0.08043   0.81002   0.43460   0.00000  Uiso   1.00
C500   C     0.06692   0.80394   0.48919   0.00000  Uiso   1.00
C501   C     0.10033   0.80608   0.01618   0.00000  Uiso   1.00
C502   C     0.14909   0.80965   0.48765   0.00000  Uiso   1.00
C503   C     0.16336   0.80487   0.43173   0.00000  Uiso   1.00
C504   C     0.18427   0.81836   0.01197   0.00000  Uiso   1.00
C505   C     0.23238   0.81974   0.48061   0.00000  Uiso   1.00
C506   C     0.24607   0.80532   0.42813   0.00000  Uiso   1.00
C507   C     0.21196   0.79335   0.40516   0.00000  Uiso   1.00
C508   C     0.17288   0.82697   0.06615   0.00000  Uiso   1.00
C509   C     0.25462   0.84271   0.05740   0.00000  Uiso   1.00
C510   C     0.12856   0.81274   0.40568   0.00000  Uiso   1.00
H511   H     0.13665   0.82655   0.09092   0.00000  Uiso   1.00
H512   H     0.05326   0.81289   0.41516   0.00000  Uiso   1.00
H513   H     0.08690   0.80418   0.05893   0.00000  Uiso   1.00
H514   H     0.03007   0.79980   0.01113   0.00000  Uiso   1.00
C515   C     0.20652   0.97766   0.23172   0.00000  Uiso   1.00
H516   H     0.23926   0.96008   0.21227   0.00000  Uiso   1.00
C517   C     0.20752   0.68674   0.23285   0.00000  Uiso   1.00
H518   H     0.24053   0.70154   0.21334   0.00000  Uiso   1.00
C519   C     0.16601   0.70980   0.25799   0.00000  Uiso   1.00
C520   C     0.12327   0.69098   0.28422   0.00000  Uiso   1.00
C521   C     0.12046   0.98172   0.27668   0.00000  Uiso   1.00
C522   C     0.16346   0.95823   0.25261   0.00000  Uiso   1.00
C523   C     0.31925   0.80767   0.21624   0.00000  Uiso   1.00
H524   H     0.30900   0.78700   0.18949   0.00000  Uiso   1.00
C525   C     0.03361   0.80746   0.21619   0.00000  Uiso   1.00
N526   N     0.04760   0.83334   0.25002   0.00000  Uiso   1.00
C527   C     0.01403   0.85794   0.28496   0.00000  Uiso   1.00
H528   H     0.02430   0.87655   0.31353   0.00000  Uiso   1.00
C529   C     0.29963   0.85917   0.28467   0.00000  Uiso   1.00
N530   N     0.28573   0.83331   0.25001   0.00000  Uiso   1.00
C531   C     0.29190   0.86122   0.07846   0.00000  Uiso   1.00
C532   C     0.27760   0.90556   0.10036   0.00000  Uiso   1.00
H533   H     0.24385   0.90660   0.13367   0.00000  Uiso   1.00
H534   H     0.30568   0.91790   0.11538   0.00000  Uiso   1.00
H535   H     0.27340   0.92600   0.06823   0.00000  Uiso   1.00
H536   H     0.29962   0.84106   0.10889   0.00000  Uiso   1.00
H537   H     0.32605   0.86326   0.04602   0.00000  Uiso   1.00
Br538  Br    0.07013   0.72310   0.33246   0.00000  Uiso   1.00
C539   C     0.07194   0.96351   0.28748   0.00000  Uiso   1.00
C540   C     0.06058   0.95858   0.23483   0.00000  Uiso   1.00
H541   H     0.04959   0.98930   0.22261   0.00000  Uiso   1.00
H542   H     0.09164   0.94609   0.20208   0.00000  Uiso   1.00
H543   H     0.03158   0.93693   0.23931   0.00000  Uiso   1.00
H544   H     0.06963   0.93417   0.30952   0.00000  Uiso   1.00
H545   H     0.04306   0.98324   0.31439   0.00000  Uiso   1.00
Br546  Br    0.07663   0.76807   0.16917   0.00000  Uiso   1.00
C547   C     0.26546   0.88823   0.32569   0.00000  Uiso   1.00
C548   C     0.27814   0.93383   0.31876   0.00000  Uiso   1.00
H549   H     0.28288   0.94336   0.27715   0.00000  Uiso   1.00
H550   H     0.24899   0.95366   0.34575   0.00000  Uiso   1.00
H551   H     0.31056   0.93917   0.32977   0.00000  Uiso   1.00
H552   H     0.22929   0.88770   0.32469   0.00000  Uiso   1.00
H553   H     0.26488   0.87869   0.36627   0.00000  Uiso   1.00
C554   C     0.22770   0.75961   0.36201   0.00000  Uiso   1.00
C555   C     0.19455   0.72317   0.37247   0.00000  Uiso   1.00
H556   H     0.18974   0.71100   0.41304   0.00000  Uiso   1.00
H557   H     0.15951   0.73292   0.36891   0.00000  Uiso   1.00
H558   H     0.21015   0.69771   0.34292   0.00000  Uiso   1.00
H559   H     0.23295   0.77235   0.32240   0.00000  Uiso   1.00
H560   H     0.26331   0.74631   0.36021   0.00000  Uiso   1.00
O561   O     0.46179   0.89442   0.25001   0.00000  Uiso   1.00
O562   O     0.53823   0.89441   0.25001   0.00000  Uiso   1.00
C563   C     0.49895   0.91354   0.25060   0.00000  Uiso   1.00
O564   O     0.44280   0.83333   0.32681   0.00000  Uiso   1.00
O565   O     0.51924   0.83332   0.32681   0.00000  Uiso   1.00
C566   C     0.47508   0.82693   0.35040   0.00000  Uiso   1.00
Zn567  Zn    0.44896   0.83334   0.25000   0.00000  Uiso   1.00
Zn568  Zn    0.55104   0.83333   0.25000   0.00000  Uiso   1.00
O569   O     0.46177   0.77226   0.25000   0.00000  Uiso   1.00
O570   O     0.53821   0.77225   0.25000   0.00000  Uiso   1.00
O571   O     0.48076   0.83335   0.17319   0.00000  Uiso   1.00
O572   O     0.55720   0.83334   0.17319   0.00000  Uiso   1.00
C573   C     0.49986   0.75359   0.25274   0.00000  Uiso   1.00
C574   C     0.52586   0.83522   0.14823   0.00000  Uiso   1.00
C575   C     0.59997   0.83331   0.00277   0.00000  Uiso   1.00
H576   H     0.61682   0.80060   0.40630   0.00000  Uiso   1.00
H577   H     0.63609   0.83650   0.47728   0.00000  Uiso   1.00
C578   C     0.54100   0.83564   0.08986   0.00000  Uiso   1.00
C579   C     0.41377   0.81002   0.43460   0.00000  Uiso   1.00
C580   C     0.40025   0.80394   0.48919   0.00000  Uiso   1.00
C581   C     0.43366   0.80608   0.01618   0.00000  Uiso   1.00
C582   C     0.48242   0.80965   0.48765   0.00000  Uiso   1.00
C583   C     0.49670   0.80487   0.43173   0.00000  Uiso   1.00
C584   C     0.51760   0.81836   0.01197   0.00000  Uiso   1.00
C585   C     0.56572   0.81974   0.48061   0.00000  Uiso   1.00
C586   C     0.57941   0.80532   0.42813   0.00000  Uiso   1.00
C587   C     0.54530   0.79335   0.40516   0.00000  Uiso   1.00
C588   C     0.50622   0.82697   0.06615   0.00000  Uiso   1.00
C589   C     0.58795   0.84271   0.05740   0.00000  Uiso   1.00
C590   C     0.46190   0.81274   0.40568   0.00000  Uiso   1.00
H591   H     0.46998   0.82655   0.09092   0.00000  Uiso   1.00
H592   H     0.38659   0.81289   0.41516   0.00000  Uiso   1.00
H593   H     0.42023   0.80418   0.05893   0.00000  Uiso   1.00
H594   H     0.36341   0.79980   0.01113   0.00000  Uiso   1.00
C595   C     0.53986   0.97766   0.23172   0.00000  Uiso   1.00
H596   H     0.57259   0.96008   0.21227   0.00000  Uiso   1.00
C597   C     0.54086   0.68674   0.23285   0.00000  Uiso   1.00
H598   H     0.57387   0.70154   0.21334   0.00000  Uiso   1.00
C599   C     0.49934   0.70980   0.25799   0.00000  Uiso   1.00
C600   C     0.45660   0.69098   0.28422   0.00000  Uiso   1.00
C601   C     0.45380   0.98172   0.27668   0.00000  Uiso   1.00
C602   C     0.49679   0.95823   0.25261   0.00000  Uiso   1.00
C603   C     0.65259   0.80767   0.21624   0.00000  Uiso   1.00
H604   H     0.64233   0.78700   0.18949   0.00000  Uiso   1.00
C605   C     0.36694   0.80746   0.21619   0.00000  Uiso   1.00
N606   N     0.38093   0.83334   0.25002   0.00000  Uiso   1.00
C607   C     0.34736   0.85794   0.28496   0.00000  Uiso   1.00
H608   H     0.35763   0.87655   0.31353   0.00000  Uiso   1.00
C609   C     0.63297   0.85917   0.28467   0.00000  Uiso   1.00
N610   N     0.61906   0.83331   0.25001   0.00000  Uiso   1.00
C611   C     0.62524   0.86122   0.07846   0.00000  Uiso   1.00
C612   C     0.61093   0.90556   0.10036   0.00000  Uiso   1.00
H613   H     0.57718   0.90660   0.13367   0.00000  Uiso   1.00
H614   H     0.63901   0.91790   0.11538   0.00000  Uiso   1.00
H615   H     0.60673   0.92600   0.06823   0.00000  Uiso   1.00
H616   H     0.63296   0.84106   0.10889   0.00000  Uiso   1.00
H617   H     0.65938   0.86326   0.04602   0.00000  Uiso   1.00
Br618  Br    0.40346   0.72310   0.33246   0.00000  Uiso   1.00
C619   C     0.40527   0.96351   0.28748   0.00000  Uiso   1.00
C620   C     0.39391   0.95858   0.23483   0.00000  Uiso   1.00
H621   H     0.38293   0.98930   0.22261   0.00000  Uiso   1.00
H622   H     0.42497   0.94609   0.20208   0.00000  Uiso   1.00
H623   H     0.36491   0.93693   0.23931   0.00000  Uiso   1.00
H624   H     0.40297   0.93417   0.30952   0.00000  Uiso   1.00
H625   H     0.37639   0.98324   0.31439   0.00000  Uiso   1.00
Br626  Br    0.40996   0.76807   0.16917   0.00000  Uiso   1.00
C627   C     0.59879   0.88823   0.32569   0.00000  Uiso   1.00
C628   C     0.61147   0.93383   0.31876   0.00000  Uiso   1.00
H629   H     0.61621   0.94336   0.27715   0.00000  Uiso   1.00
H630   H     0.58233   0.95366   0.34575   0.00000  Uiso   1.00
H631   H     0.64389   0.93917   0.32977   0.00000  Uiso   1.00
H632   H     0.56262   0.88770   0.32469   0.00000  Uiso   1.00
H633   H     0.59821   0.87869   0.36627   0.00000  Uiso   1.00
C634   C     0.56103   0.75961   0.36201   0.00000  Uiso   1.00
C635   C     0.52789   0.72317   0.37247   0.00000  Uiso   1.00
H636   H     0.52307   0.71100   0.41304   0.00000  Uiso   1.00
H637   H     0.49284   0.73292   0.36891   0.00000  Uiso   1.00
H638   H     0.54348   0.69771   0.34292   0.00000  Uiso   1.00
H639   H     0.56628   0.77235   0.32240   0.00000  Uiso   1.00
H640   H     0.59664   0.74631   0.36021   0.00000  Uiso   1.00
O641   O     0.79512   0.89442   0.25001   0.00000  Uiso   1.00
O642   O     0.87157   0.89441   0.25001   0.00000  Uiso   1.00
C643   C     0.83228   0.91354   0.25060   0.00000  Uiso   1.00
O644   O     0.77613   0.83333   0.32681   0.00000  Uiso   1.00
O645   O     0.85258   0.83332   0.32681   0.00000  Uiso   1.00
C646   C     0.80841   0.82693   0.35040   0.00000  Uiso   1.00
Zn647  Zn    0.78229   0.83334   0.25000   0.00000  Uiso   1.00
Zn648  Zn    0.88438   0.83333   0.25000   0.00000  Uiso   1.00
O649   O     0.79510   0.77226   0.25000   0.00000  Uiso   1.00
O650   O     0.87154   0.77225   0.25000   0.00000  Uiso   1.00
O651   O     0.81409   0.83335   0.17319   0.00000  Uiso   1.00
O652   O     0.89053   0.83334   0.17319   0.00000  Uiso   1.00
C653   C     0.83320   0.75359   0.25274   0.00000  Uiso   1.00
C654   C     0.85919   0.83522   0.14823   0.00000  Uiso   1.00
C655   C     0.93330   0.83331   0.00277   0.00000  Uiso   1.00
H656   H     0.95015   0.80060   0.40630   0.00000  Uiso   1.00
H657   H     0.96942   0.83650   0.47728   0.00000  Uiso   1.00
C658   C     0.87433   0.83564   0.08986   0.00000  Uiso   1.00
C659   C     0.74710   0.81002   0.43460   0.00000  Uiso   1.00
C660   C     0.73358   0.80394   0.48919   0.00000  Uiso   1.00
C661   C     0.76700   0.80608   0.01618   0.00000  Uiso   1.00
C662   C     0.81576   0.80965   0.48765   0.00000  Uiso   1.00
C663   C     0.83003   0.80487   0.43173   0.00000  Uiso   1.00
C664   C     0.85094   0.81836   0.01197   0.00000  Uiso   1.00
C665   C     0.89905   0.81974   0.48061   0.00000  Uiso   1.00
C666   C     0.91274   0.80532   0.42813   0.00000  Uiso   1.00
C667   C     0.87863   0.79335   0.40516   0.00000  Uiso   1.00
C668   C     0.83955   0.82697   0.06615   0.00000  Uiso   1.00
C669   C     0.92129   0.84271   0.05740   0.00000  Uiso   1.00
C670   C     0.79523   0.81274   0.40568   0.00000  Uiso   1.00
H671   H     0.80331   0.82655   0.09092   0.00000  Uiso   1.00
H672   H     0.71992   0.81289   0.41516   0.00000  Uiso   1.00
H673   H     0.75356   0.80418   0.05893   0.00000  Uiso   1.00
H674   H     0.69674   0.79980   0.01113   0.00000  Uiso   1.00
C675   C     0.87319   0.97766   0.23172   0.00000  Uiso   1.00
H676   H     0.90592   0.96008   0.21227   0.00000  Uiso   1.00
C677   C     0.87419   0.68674   0.23285   0.00000  Uiso   1.00
H678   H     0.90720   0.70154   0.21334   0.00000  Uiso   1.00
C679   C     0.83267   0.70980   0.25799   0.00000  Uiso   1.00
C680   C     0.78993   0.69098   0.28422   0.00000  Uiso   1.00
C681   C     0.78713   0.98172   0.27668   0.00000  Uiso   1.00
C682   C     0.83013   0.95823   0.25261   0.00000  Uiso   1.00
C683   C     0.98592   0.80767   0.21624   0.00000  Uiso   1.00
H684   H     0.97566   0.78700   0.18949   0.00000  Uiso   1.00
C685   C     0.70027   0.80746   0.21619   0.00000  Uiso   1.00
N686   N     0.71426   0.83334   0.25002   0.00000  Uiso   1.00
C687   C     0.68069   0.85794   0.28496   0.00000  Uiso   1.00
H688   H     0.69096   0.87655   0.31353   0.00000  Uiso   1.00
C689   C     0.96630   0.85917   0.28467   0.00000  Uiso   1.00
N690   N     0.95239   0.83331   0.25001   0.00000  Uiso   1.00
C691   C     0.95857   0.86122   0.07846   0.00000  Uiso   1.00
C692   C     0.94426   0.90556   0.10036   0.00000  Uiso   1.00
H693   H     0.91052   0.90660   0.13367   0.00000  Uiso   1.00
H694   H     0.97234   0.91790   0.11538   0.00000  Uiso   1.00
H695   H     0.94006   0.92600   0.06823   0.00000  Uiso   1.00
H696   H     0.96629   0.84106   0.10889   0.00000  Uiso   1.00
H697   H     0.99272   0.86326   0.04602   0.00000  Uiso   1.00
Br698  Br    0.73679   0.72310   0.33246   0.00000  Uiso   1.00
C699   C     0.73860   0.96351   0.28748   0.00000  Uiso   1.00
C700   C     0.72725   0.95858   0.23483   0.00000  Uiso   1.00
H701   H     0.71626   0.98930   0.22261   0.00000  Uiso   1.00
H702   H     0.75830   0.94609   0.20208   0.00000  Uiso   1.00
H703   H     0.69825   0.93693   0.23931   0.00000  Uiso   1.00
H704   H     0.73630   0.93417   0.30952   0.00000  Uiso   1.00
H705   H     0.70973   0.98324   0.31439   0.00000  Uiso   1.00
Br706  Br    0.74329   0.76807   0.16917   0.00000  Uiso   1.00
C707   C     0.93213   0.88823   0.32569   0.00000  Uiso   1.00
C708   C     0.94481   0.93383   0.31876   0.00000  Uiso   1.00
H709   H     0.94954   0.94336   0.27715   0.00000  Uiso   1.00
H710   H     0.91566   0.95366   0.34575   0.00000  Uiso   1.00
H711   H     0.97722   0.93917   0.32977   0.00000  Uiso   1.00
H712   H     0.89595   0.88770   0.32469   0.00000  Uiso   1.00
H713   H     0.93154   0.87869   0.36627   0.00000  Uiso   1.00
C714   C     0.89437   0.75961   0.36201   0.00000  Uiso   1.00
C715   C     0.86122   0.72317   0.37247   0.00000  Uiso   1.00
H716   H     0.85640   0.71100   0.41304   0.00000  Uiso   1.00
H717   H     0.82617   0.73292   0.36891   0.00000  Uiso   1.00
H718   H     0.87681   0.69771   0.34292   0.00000  Uiso   1.00
H719   H     0.89962   0.77235   0.32240   0.00000  Uiso   1.00
H720   H     0.92997   0.74631   0.36021   0.00000  Uiso   1.00
O721   O     0.12846   0.22775   0.75001   0.00000  Uiso   1.00
O722   O     0.20490   0.22774   0.75001   0.00000  Uiso   1.00
C723   C     0.16562   0.24688   0.75060   0.00000  Uiso   1.00
O724   O     0.10947   0.16666   0.82681   0.00000  Uiso   1.00
O725   O     0.18591   0.16665   0.82681   0.00000  Uiso   1.00
C726   C     0.14175   0.16027   0.85040   0.00000  Uiso   1.00
Zn727  Zn    0.11562   0.16667   0.75000   0.00000  Uiso   1.00
Zn728  Zn    0.21771   0.16666   0.75000   0.00000  Uiso   1.00
O729   O     0.12843   0.10559   0.75000   0.00000  Uiso   1.00
O730   O     0.20488   0.10558   0.75000   0.00000  Uiso   1.00
O731   O     0.14742   0.16668   0.67319   0.00000  Uiso   1.00
O732   O     0.22387   0.16667   0.67319   0.00000  Uiso   1.00
C733   C     0.16653   0.08693   0.75274   0.00000  Uiso   1.00
C734   C     0.19252   0.16855   0.64823   0.00000  Uiso   1.00
C735   C     0.26664   0.16664   0.50277   0.00000  Uiso   1.00
H736   H     0.28348   0.13393   0.90630   0.00000  Uiso   1.00
H737   H     0.30276   0.16983   0.97728   0.00000  Uiso   1.00
C738   C     0.20767   0.16897   0.58986   0.00000  Uiso   1.00
C739   C     0.08043   0.14335   0.93460   0.00000  Uiso   1.00
C740   C     0.06692   0.13727   0.98919   0.00000  Uiso   1.00
C741   C     0.10033   0.13942   0.51618   0.00000  Uiso   1.00
C742   C     0.14909   0.14298   0.98765   0.00000  Uiso   1.00
C743   C     0.16336   0.13820   0.93173   0.00000  Uiso   1.00
C744   C     0.18427   0.15169   0.51197   0.00000  Uiso   1.00
C745   C     0.23238   0.15308   0.98061   0.00000  Uiso   1.00
C746   C     0.24607   0.13865   0.92813   0.00000  Uiso   1.00
C747   C     0.21196   0.12668   0.90516   0.00000  Uiso   1.00
C748   C     0.17288   0.16030   0.56615   0.00000  Uiso   1.00
C749   C     0.25462   0.17605   0.55740   0.00000  Uiso   1.00
C750   C     0.12856   0.14608   0.90568   0.00000  Uiso   1.00
H751   H     0.13665   0.15988   0.59092   0.00000  Uiso   1.00
H752   H     0.05326   0.14622   0.91516   0.00000  Uiso   1.00
H753   H     0.08690   0.13751   0.55893   0.00000  Uiso   1.00
H754   H     0.03007   0.13313   0.51113   0.00000  Uiso   1.00
C755   C     0.20652   0.31099   0.73172   0.00000  Uiso   1.00
H756   H     0.23926   0.29342   0.71227   0.00000  Uiso   1.00
C757   C     0.20752   0.02007   0.73285   0.00000  Uiso   1.00
H758   H     0.24053   0.03487   0.71334   0.00000  Uiso   1.00
C759   C     0.16601   0.04314   0.75799   0.00000  Uiso   1.00
C760   C     0.12327   0.02431   0.78422   0.00000  Uiso   1.00
C761   C     0.12046   0.31505   0.77668   0.00000  Uiso   1.00
C762   C     0.16346   0.29156   0.75261   0.00000  Uiso   1.00
C763   C     0.31925   0.14100   0.71624   0.00000  Uiso   1.00
H764   H     0.30900   0.12034   0.68949   0.00000  Uiso   1.00
C765   C     0.03361   0.14079   0.71619   0.00000  Uiso   1.00
N766   N     0.04760   0.16668   0.75002   0.00000  Uiso   1.00
C767   C     0.01403   0.19127   0.78496   0.00000  Uiso   1.00
H768   H     0.02430   0.20988   0.81353   0.00000  Uiso   1.00
C769   C     0.29963   0.19250   0.78467   0.00000  Uiso   1.00
N770   N     0.28573   0.16665   0.75001   0.00000  Uiso   1.00
C771   C     0.29190   0.19456   0.57846   0.00000  Uiso   1.00
C772   C     0.27760   0.23889   0.60036   0.00000  Uiso   1.00
H773   H     0.24385   0.23994   0.63367   0.00000  Uiso   1.00
H774   H     0.30568   0.25124   0.61538   0.00000  Uiso   1.00
H775   H     0.27340   0.25934   0.56823   0.00000  Uiso   1.00
H776   H     0.29962   0.17440   0.60889   0.00000  Uiso   1.00
H777   H     0.32605   0.19659   0.54602   0.00000  Uiso   1.00
Br778  Br    0.07013   0.05644   0.83246   0.00000  Uiso   1.00
C779   C     0.07194   0.29684   0.78748   0.00000  Uiso   1.00
C780   C     0.06058   0.29191   0.73483   0.00000  Uiso   1.00
H781   H     0.04959   0.32264   0.72261   0.00000  Uiso   1.00
H782   H     0.09164   0.27943   0.70208   0.00000  Uiso   1.00
H783   H     0.03158   0.27026   0.73931   0.00000  Uiso   1.00
H784   H     0.06963   0.26750   0.80952   0.00000  Uiso   1.00
H785   H     0.04306   0.31657   0.81439   0.00000  Uiso   1.00
Br786  Br    0.07663   0.10141   0.66917   0.00000  Uiso   1.00
C787   C     0.26546   0.22156   0.82569   0.00000  Uiso   1.00
C788   C     0.27814   0.26716   0.81876   0.00000  Uiso   1.00
H789   H     0.28288   0.27670   0.77715   0.00000  Uiso   1.00
H790   H     0.24899   0.28700   0.84575   0.00000  Uiso   1.00
H791   H     0.31056   0.27250   0.82977   0.00000  Uiso   1.00
H792   H     0.22929   0.22104   0.82469   0.00000  Uiso   1.00
H793   H     0.26488   0.21202   0.86627   0.00000  Uiso   1.00
C794   C     0.22770   0.09295   0.86201   0.00000  Uiso   1.00
C795   C     0.19455   0.05651   0.87247   0.00000  Uiso   1.00
H796   H     0.18974   0.04433   0.91304   0.00000  Uiso   1.00
H797   H     0.15951   0.06625   0.86891   0.00000  Uiso   1.00
H798   H     0.21015   0.03104   0.84292   0.00000  Uiso   1.00
H799   H     0.23295   0.10568   0.82240   0.00000  Uiso   1.00
H800   H     0.26331   0.07965   0.86021   0.00000  Uiso   1.00
O801   O     0.46179   0.22775   0.75001   0.00000  Uiso   1.00
O802   O     0.53823   0.22774   0.75001   0.00000  Uiso   1.00
C803   C     0.49895   0.24688   0.75060   0.00000  Uiso   1.00
O804   O     0.44280   0.16666   0.82681   0.00000  Uiso   1.00
O805   O     0.51924   0.16665   0.82681   0.00000  Uiso   1.00
C806   C     0.47508   0.16027   0.85040   0.00000  Uiso   1.00
Zn807  Zn    0.44896   0.16667   0.75000   0.00000  Uiso   1.00
Zn808  Zn    0.55104   0.16666   0.75000   0.00000  Uiso   1.00
O809   O     0.46177   0.10559   0.75000   0.00000  Uiso   1.00
O810   O     0.53821   0.10558   0.75000   0.00000  Uiso   1.00
O811   O     0.48076   0.16668   0.67319   0.00000  Uiso   1.00
O812   O     0.55720   0.16667   0.67319   0.00000  Uiso   1.00
C813   C     0.49986   0.08693   0.75274   0.00000  Uiso   1.00
C814   C     0.52586   0.16855   0.64823   0.00000  Uiso   1.00
C815   C     0.59997   0.16664   0.50277   0.00000  Uiso   1.00
H816   H     0.61682   0.13393   0.90630   0.00000  Uiso   1.00
H817   H     0.63609   0.16983   0.97728   0.00000  Uiso   1.00
C818   C     0.54100   0.16897   0.58986   0.00000  Uiso   1.00
C819   C     0.41377   0.14335   0.93460   0.00000  Uiso   1.00
C820   C     0.40025   0.13727   0.98919   0.00000  Uiso   1.00
C821   C     0.43366   0.13942   0.51618   0.00000  Uiso   1.00
C822   C     0.48242   0.14298   0.98765   0.00000  Uiso   1.00
C823   C     0.49670   0.13820   0.93173   0.00000  Uiso   1.00
C824   C     0.51760   0.15169   0.51197   0.00000  Uiso   1.00
C825   C     0.56572   0.15308   0.98061   0.00000  Uiso   1.00
C826   C     0.57941   0.13865   0.92813   0.00000  Uiso   1.00
C827   C     0.54530   0.12668   0.90516   0.00000  Uiso   1.00
C828   C     0.50622   0.16030   0.56615   0.00000  Uiso   1.00
C829   C     0.58795   0.17605   0.55740   0.00000  Uiso   1.00
C830   C     0.46190   0.14608   0.90568   0.00000  Uiso   1.00
H831   H     0.46998   0.15988   0.59092   0.00000  Uiso   1.00
H832   H     0.38659   0.14622   0.91516   0.00000  Uiso   1.00
H833   H     0.42023   0.13751   0.55893   0.00000  Uiso   1.00
H834   H     0.36341   0.13313   0.51113   0.00000  Uiso   1.00
C835   C     0.53986   0.31099   0.73172   0.00000  Uiso   1.00
H836   H     0.57259   0.29342   0.71227   0.00000  Uiso   1.00
C837   C     0.54086   0.02007   0.73285   0.00000  Uiso   1.00
H838   H     0.57387   0.03487   0.71334   0.00000  Uiso   1.00
C839   C     0.49934   0.04314   0.75799   0.00000  Uiso   1.00
C840   C     0.45660   0.02431   0.78422   0.00000  Uiso   1.00
C841   C     0.45380   0.31505   0.77668   0.00000  Uiso   1.00
C842   C     0.49679   0.29156   0.75261   0.00000  Uiso   1.00
C843   C     0.65259   0.14100   0.71624   0.00000  Uiso   1.00
H844   H     0.64233   0.12034   0.68949   0.00000  Uiso   1.00
C845   C     0.36694   0.14079   0.71619   0.00000  Uiso   1.00
N846   N     0.38093   0.16668   0.75002   0.00000  Uiso   1.00
C847   C     0.34736   0.19127   0.78496   0.00000  Uiso   1.00
H848   H     0.35763   0.20988   0.81353   0.00000  Uiso   1.00
C849   C     0.63297   0.19250   0.78467   0.00000  Uiso   1.00
N850   N     0.61906   0.16665   0.75001   0.00000  Uiso   1.00
C851   C     0.62524   0.19456   0.57846   0.00000  Uiso   1.00
C852   C     0.61093   0.23889   0.60036   0.00000  Uiso   1.00
H853   H     0.57718   0.23994   0.63367   0.00000  Uiso   1.00
H854   H     0.63901   0.25124   0.61538   0.00000  Uiso   1.00
H855   H     0.60673   0.25934   0.56823   0.00000  Uiso   1.00
H856   H     0.63296   0.17440   0.60889   0.00000  Uiso   1.00
H857   H     0.65938   0.19659   0.54602   0.00000  Uiso   1.00
Br858  Br    0.40346   0.05644   0.83246   0.00000  Uiso   1.00
C859   C     0.40527   0.29684   0.78748   0.00000  Uiso   1.00
C860   C     0.39391   0.29191   0.73483   0.00000  Uiso   1.00
H861   H     0.38293   0.32264   0.72261   0.00000  Uiso   1.00
H862   H     0.42497   0.27943   0.70208   0.00000  Uiso   1.00
H863   H     0.36491   0.27026   0.73931   0.00000  Uiso   1.00
H864   H     0.40297   0.26750   0.80952   0.00000  Uiso   1.00
H865   H     0.37639   0.31657   0.81439   0.00000  Uiso   1.00
Br866  Br    0.40996   0.10141   0.66917   0.00000  Uiso   1.00
C867   C     0.59879   0.22156   0.82569   0.00000  Uiso   1.00
C868   C     0.61147   0.26716   0.81876   0.00000  Uiso   1.00
H869   H     0.61621   0.27670   0.77715   0.00000  Uiso   1.00
H870   H     0.58233   0.28700   0.84575   0.00000  Uiso   1.00
H871   H     0.64389   0.27250   0.82977   0.00000  Uiso   1.00
H872   H     0.56262   0.22104   0.82469   0.00000  Uiso   1.00
H873   H     0.59821   0.21202   0.86627   0.00000  Uiso   1.00
C874   C     0.56103   0.09295   0.86201   0.00000  Uiso   1.00
C875   C     0.52789   0.05651   0.87247   0.00000  Uiso   1.00
H876   H     0.52307   0.04433   0.91304   0.00000  Uiso   1.00
H877   H     0.49284   0.06625   0.86891   0.00000  Uiso   1.00
H878   H     0.54348   0.03104   0.84292   0.00000  Uiso   1.00
H879   H     0.56628   0.10568   0.82240   0.00000  Uiso   1.00
H880   H     0.59664   0.07965   0.86021   0.00000  Uiso   1.00
O881   O     0.79512   0.22775   0.75001   0.00000  Uiso   1.00
O882   O     0.87157   0.22774   0.75001   0.00000  Uiso   1.00
C883   C     0.83228   0.24688   0.75060   0.00000  Uiso   1.00
O884   O     0.77613   0.16666   0.82681   0.00000  Uiso   1.00
O885   O     0.85258   0.16665   0.82681   0.00000  Uiso   1.00
C886   C     0.80841   0.16027   0.85040   0.00000  Uiso   1.00
Zn887  Zn    0.78229   0.16667   0.75000   0.00000  Uiso   1.00
Zn888  Zn    0.88438   0.16666   0.75000   0.00000  Uiso   1.00
O889   O     0.79510   0.10559   0.75000   0.00000  Uiso   1.00
O890   O     0.87154   0.10558   0.75000   0.00000  Uiso   1.00
O891   O     0.81409   0.16668   0.67319   0.00000  Uiso   1.00
O892   O     0.89053   0.16667   0.67319   0.00000  Uiso   1.00
C893   C     0.83320   0.08693   0.75274   0.00000  Uiso   1.00
C894   C     0.85919   0.16855   0.64823   0.00000  Uiso   1.00
C895   C     0.93330   0.16664   0.50277   0.00000  Uiso   1.00
H896   H     0.95015   0.13393   0.90630   0.00000  Uiso   1.00
H897   H     0.96942   0.16983   0.97728   0.00000  Uiso   1.00
C898   C     0.87433   0.16897   0.58986   0.00000  Uiso   1.00
C899   C     0.74710   0.14335   0.93460   0.00000  Uiso   1.00
C900   C     0.73358   0.13727   0.98919   0.00000  Uiso   1.00
C901   C     0.76700   0.13942   0.51618   0.00000  Uiso   1.00
C902   C     0.81576   0.14298   0.98765   0.00000  Uiso   1.00
C903   C     0.83003   0.13820   0.93173   0.00000  Uiso   1.00
C904   C     0.85094   0.15169   0.51197   0.00000  Uiso   1.00
C905   C     0.89905   0.15308   0.98061   0.00000  Uiso   1.00
C906   C     0.91274   0.13865   0.92813   0.00000  Uiso   1.00
C907   C     0.87863   0.12668   0.90516   0.00000  Uiso   1.00
C908   C     0.83955   0.16030   0.56615   0.00000  Uiso   1.00
C909   C     0.92129   0.17605   0.55740   0.00000  Uiso   1.00
C910   C     0.79523   0.14608   0.90568   0.00000  Uiso   1.00
H911   H     0.80331   0.15988   0.59092   0.00000  Uiso   1.00
H912   H     0.71992   0.14622   0.91516   0.00000  Uiso   1.00
H913   H     0.75356   0.13751   0.55893   0.00000  Uiso   1.00
H914   H     0.69674   0.13313   0.51113   0.00000  Uiso   1.00
C915   C     0.87319   0.31099   0.73172   0.00000  Uiso   1.00
H916   H     0.90592   0.29342   0.71227   0.00000  Uiso   1.00
C917   C     0.87419   0.02007   0.73285   0.00000  Uiso   1.00
H918   H     0.90720   0.03487   0.71334   0.00000  Uiso   1.00
C919   C     0.83267   0.04314   0.75799   0.00000  Uiso   1.00
C920   C     0.78993   0.02431   0.78422   0.00000  Uiso   1.00
C921   C     0.78713   0.31505   0.77668   0.00000  Uiso   1.00
C922   C     0.83013   0.29156   0.75261   0.00000  Uiso   1.00
C923   C     0.98592   0.14100   0.71624   0.00000  Uiso   1.00
H924   H     0.97566   0.12034   0.68949   0.00000  Uiso   1.00
C925   C     0.70027   0.14079   0.71619   0.00000  Uiso   1.00
N926   N     0.71426   0.16668   0.75002   0.00000  Uiso   1.00
C927   C     0.68069   0.19127   0.78496   0.00000  Uiso   1.00
H928   H     0.69096   0.20988   0.81353   0.00000  Uiso   1.00
C929   C     0.96630   0.19250   0.78467   0.00000  Uiso   1.00
N930   N     0.95239   0.16665   0.75001   0.00000  Uiso   1.00
C931   C     0.95857   0.19456   0.57846   0.00000  Uiso   1.00
C932   C     0.94426   0.23889   0.60036   0.00000  Uiso   1.00
H933   H     0.91052   0.23994   0.63367   0.00000  Uiso   1.00
H934   H     0.97234   0.25124   0.61538   0.00000  Uiso   1.00
H935   H     0.94006   0.25934   0.56823   0.00000  Uiso   1.00
H936   H     0.96629   0.17440   0.60889   0.00000  Uiso   1.00
H937   H     0.99272   0.19659   0.54602   0.00000  Uiso   1.00
Br938  Br    0.73679   0.05644   0.83246   0.00000  Uiso   1.00
C939   C     0.73860   0.29684   0.78748   0.00000  Uiso   1.00
C940   C     0.72725   0.29191   0.73483   0.00000  Uiso   1.00
H941   H     0.71626   0.32264   0.72261   0.00000  Uiso   1.00
H942   H     0.75830   0.27943   0.70208   0.00000  Uiso   1.00
H943   H     0.69825   0.27026   0.73931   0.00000  Uiso   1.00
H944   H     0.73630   0.26750   0.80952   0.00000  Uiso   1.00
H945   H     0.70973   0.31657   0.81439   0.00000  Uiso   1.00
Br946  Br    0.74329   0.10141   0.66917   0.00000  Uiso   1.00
C947   C     0.93213   0.22156   0.82569   0.00000  Uiso   1.00
C948   C     0.94481   0.26716   0.81876   0.00000  Uiso   1.00
H949   H     0.94954   0.27670   0.77715   0.00000  Uiso   1.00
H950   H     0.91566   0.28700   0.84575   0.00000  Uiso   1.00
H951   H     0.97722   0.27250   0.82977   0.00000  Uiso   1.00
H952   H     0.89595   0.22104   0.82469   0.00000  Uiso   1.00
H953   H     0.93154   0.21202   0.86627   0.00000  Uiso   1.00
C954   C     0.89437   0.09295   0.86201   0.00000  Uiso   1.00
C955   C     0.86122   0.05651   0.87247   0.00000  Uiso   1.00
H956   H     0.85640   0.04433   0.91304   0.00000  Uiso   1.00
H957   H     0.82617   0.06625   0.86891   0.00000  Uiso   1.00
H958   H     0.87681   0.03104   0.84292   0.00000  Uiso   1.00
H959   H     0.89962   0.10568   0.82240   0.00000  Uiso   1.00
H960   H     0.92997   0.07965   0.86021   0.00000  Uiso   1.00
O961   O     0.12846   0.56108   0.75001   0.00000  Uiso   1.00
O962   O     0.20490   0.56107   0.75001   0.00000  Uiso   1.00
C963   C     0.16562   0.58021   0.75060   0.00000  Uiso   1.00
O964   O     0.10947   0.50000   0.82681   0.00000  Uiso   1.00
O965   O     0.18591   0.49999   0.82681   0.00000  Uiso   1.00
C966   C     0.14175   0.49360   0.85040   0.00000  Uiso   1.00
Zn967  Zn    0.11562   0.50001   0.75000   0.00000  Uiso   1.00
Zn968  Zn    0.21771   0.49999   0.75000   0.00000  Uiso   1.00
O969   O     0.12843   0.43893   0.75000   0.00000  Uiso   1.00
O970   O     0.20488   0.43892   0.75000   0.00000  Uiso   1.00
O971   O     0.14742   0.50001   0.67319   0.00000  Uiso   1.00
O972   O     0.22387   0.50000   0.67319   0.00000  Uiso   1.00
C973   C     0.16653   0.42026   0.75274   0.00000  Uiso   1.00
C974   C     0.19252   0.50188   0.64823   0.00000  Uiso   1.00
C975   C     0.26664   0.49998   0.50277   0.00000  Uiso   1.00
H976   H     0.28348   0.46726   0.90630   0.00000  Uiso   1.00
H977   H     0.30276   0.50317   0.97728   0.00000  Uiso   1.00
C978   C     0.20767   0.50231   0.58986   0.00000  Uiso   1.00
C979   C     0.08043   0.47668   0.93460   0.00000  Uiso   1.00
C980   C     0.06692   0.47060   0.98919   0.00000  Uiso   1.00
C981   C     0.10033   0.47275   0.51618   0.00000  Uiso   1.00
C982   C     0.14909   0.47631   0.98765   0.00000  Uiso   1.00
C983   C     0.16336   0.47154   0.93173   0.00000  Uiso   1.00
C984   C     0.18427   0.48503   0.51197   0.00000  Uiso   1.00
C985   C     0.23238   0.48641   0.98061   0.00000  Uiso   1.00
C986   C     0.24607   0.47199   0.92813   0.00000  Uiso   1.00
C987   C     0.21196   0.46001   0.90516   0.00000  Uiso   1.00
C988   C     0.17288   0.49363   0.56615   0.00000  Uiso   1.00
C989   C     0.25462   0.50938   0.55740   0.00000  Uiso   1.00
C990   C     0.12856   0.47941   0.90568   0.00000  Uiso   1.00
H991   H     0.13665   0.49322   0.59092   0.00000  Uiso   1.00
H992   H     0.05326   0.47955   0.91516   0.00000  Uiso   1.00
H993   H     0.08690   0.47084   0.55893   0.00000  Uiso   1.00
H994   H     0.03007   0.46647   0.51113   0.00000  Uiso   1.00
C995   C     0.20652   0.64432   0.73172   0.00000  Uiso   1.00
H996   H     0.23926   0.62675   0.71227   0.00000  Uiso   1.00
C997   C     0.20752   0.35341   0.73285   0.00000  Uiso   1.00
H998   H     0.24053   0.36820   0.71334   0.00000  Uiso   1.00
C999   C     0.16601   0.37647   0.75799   0.00000  Uiso   1.00
C1000  C     0.12327   0.35764   0.78422   0.00000  Uiso   1.00
C1001  C     0.12046   0.64838   0.77668   0.00000  Uiso   1.00
C1002  C     0.16346   0.62489   0.75261   0.00000  Uiso   1.00
C1003  C     0.31925   0.47434   0.71624   0.00000  Uiso   1.00
H1004  H     0.30900   0.45367   0.68949   0.00000  Uiso   1.00
C1005  C     0.03361   0.47412   0.71619   0.00000  Uiso   1.00
N1006  N     0.04760   0.50001   0.75002   0.00000  Uiso   1.00
C1007  C     0.01403   0.52461   0.78496   0.00000  Uiso   1.00
H1008  H     0.02430   0.54322   0.81353   0.00000  Uiso   1.00
C1009  C     0.29963   0.52584   0.78467   0.00000  Uiso   1.00
N1010  N     0.28573   0.49998   0.75001   0.00000  Uiso   1.00
C1011  C     0.29190   0.52789   0.57846   0.00000  Uiso   1.00
C1012  C     0.27760   0.57222   0.60036   0.00000  Uiso   1.00
H1013  H     0.24385   0.57327   0.63367   0.00000  Uiso   1.00
H1014  H     0.30568   0.58457   0.61538   0.00000  Uiso   1.00
H1015  H     0.27340   0.59267   0.56823   0.00000  Uiso   1.00
H1016  H     0.29962   0.50773   0.60889   0.00000  Uiso   1.00
H1017  H     0.32605   0.52992   0.54602   0.00000  Uiso   1.00
Br1018 Br    0.07013   0.38977   0.83246   0.00000  Uiso   1.00
C1019  C     0.07194   0.63018   0.78748   0.00000  Uiso   1.00
C1020  C     0.06058   0.62524   0.73483   0.00000  Uiso   1.00
H1021  H     0.04959   0.65597   0.72261   0.00000  Uiso   1.00
H1022  H     0.09164   0.61276   0.70208   0.00000  Uiso   1.00
H1023  H     0.03158   0.60360   0.73931   0.00000  Uiso   1.00
H1024  H     0.06963   0.60084   0.80952   0.00000  Uiso   1.00
H1025  H     0.04306   0.64990   0.81439   0.00000  Uiso   1.00
Br1026 Br    0.07663   0.43474   0.66917   0.00000  Uiso   1.00
C1027  C     0.26546   0.55489   0.82569   0.00000  Uiso   1.00
C1028  C     0.27814   0.60050   0.81876   0.00000  Uiso   1.00
H1029  H     0.28288   0.61003   0.77715   0.00000  Uiso   1.00
H1030  H     0.24899   0.62033   0.84575   0.00000  Uiso   1.00
H1031  H     0.31056   0.60583   0.82977   0.00000  Uiso   1.00
H1032  H     0.22929   0.55437   0.82469   0.00000  Uiso   1.00
H1033  H     0.26488   0.54536   0.86627   0.00000  Uiso   1.00
C1034  C     0.22770   0.42628   0.86201   0.00000  Uiso   1.00
C1035  C     0.19455   0.38984   0.87247   0.00000  Uiso   1.00
H1036  H     0.18974   0.37767   0.91304   0.00000  Uiso   1.00
H1037  H     0.15951   0.39959   0.86891   0.00000  Uiso   1.00
H1038  H     0.21015   0.36437   0.84292   0.00000  Uiso   1.00
H1039  H     0.23295   0.43901   0.82240   0.00000  Uiso   1.00
H1040  H     0.26331   0.41298   0.86021   0.00000  Uiso   1.00
O1041  O     0.46179   0.56108   0.75001   0.00000  Uiso   1.00
O1042  O     0.53823   0.56107   0.75001   0.00000  Uiso   1.00
C1043  C     0.49895   0.58021   0.75060   0.00000  Uiso   1.00
O1044  O     0.44280   0.50000   0.82681   0.00000  Uiso   1.00
O1045  O     0.51924   0.49999   0.82681   0.00000  Uiso   1.00
C1046  C     0.47508   0.49360   0.85040   0.00000  Uiso   1.00
Zn1047 Zn    0.44896   0.50001   0.75000   0.00000  Uiso   1.00
Zn1048 Zn    0.55104   0.49999   0.75000   0.00000  Uiso   1.00
O1049  O     0.46177   0.43893   0.75000   0.00000  Uiso   1.00
O1050  O     0.53821   0.43892   0.75000   0.00000  Uiso   1.00
O1051  O     0.48076   0.50001   0.67319   0.00000  Uiso   1.00
O1052  O     0.55720   0.50000   0.67319   0.00000  Uiso   1.00
C1053  C     0.49986   0.42026   0.75274   0.00000  Uiso   1.00
C1054  C     0.52586   0.50188   0.64823   0.00000  Uiso   1.00
C1055  C     0.59997   0.49998   0.50277   0.00000  Uiso   1.00
H1056  H     0.61682   0.46726   0.90630   0.00000  Uiso   1.00
H1057  H     0.63609   0.50317   0.97728   0.00000  Uiso   1.00
C1058  C     0.54100   0.50231   0.58986   0.00000  Uiso   1.00
C1059  C     0.41377   0.47668   0.93460   0.00000  Uiso   1.00
C1060  C     0.40025   0.47060   0.98919   0.00000  Uiso   1.00
C1061  C     0.43366   0.47275   0.51618   0.00000  Uiso   1.00
C1062  C     0.48242   0.47631   0.98765   0.00000  Uiso   1.00
C1063  C     0.49670   0.47154   0.93173   0.00000  Uiso   1.00
C1064  C     0.51760   0.48503   0.51197   0.00000  Uiso   1.00
C1065  C     0.56572   0.48641   0.98061   0.00000  Uiso   1.00
C1066  C     0.57941   0.47199   0.92813   0.00000  Uiso   1.00
C1067  C     0.54530   0.46001   0.90516   0.00000  Uiso   1.00
C1068  C     0.50622   0.49363   0.56615   0.00000  Uiso   1.00
C1069  C     0.58795   0.50938   0.55740   0.00000  Uiso   1.00
C1070  C     0.46190   0.47941   0.90568   0.00000  Uiso   1.00
H1071  H     0.46998   0.49322   0.59092   0.00000  Uiso   1.00
H1072  H     0.38659   0.47955   0.91516   0.00000  Uiso   1.00
H1073  H     0.42023   0.47084   0.55893   0.00000  Uiso   1.00
H1074  H     0.36341   0.46647   0.51113   0.00000  Uiso   1.00
C1075  C     0.53986   0.64432   0.73172   0.00000  Uiso   1.00
H1076  H     0.57259   0.62675   0.71227   0.00000  Uiso   1.00
C1077  C     0.54086   0.35341   0.73285   0.00000  Uiso   1.00
H1078  H     0.57387   0.36820   0.71334   0.00000  Uiso   1.00
C1079  C     0.49934   0.37647   0.75799   0.00000  Uiso   1.00
C1080  C     0.45660   0.35764   0.78422   0.00000  Uiso   1.00
C1081  C     0.45380   0.64838   0.77668   0.00000  Uiso   1.00
C1082  C     0.49679   0.62489   0.75261   0.00000  Uiso   1.00
C1083  C     0.65259   0.47434   0.71624   0.00000  Uiso   1.00
H1084  H     0.64233   0.45367   0.68949   0.00000  Uiso   1.00
C1085  C     0.36694   0.47412   0.71619   0.00000  Uiso   1.00
N1086  N     0.38093   0.50001   0.75002   0.00000  Uiso   1.00
C1087  C     0.34736   0.52461   0.78496   0.00000  Uiso   1.00
H1088  H     0.35763   0.54322   0.81353   0.00000  Uiso   1.00
C1089  C     0.63297   0.52584   0.78467   0.00000  Uiso   1.00
N1090  N     0.61906   0.49998   0.75001   0.00000  Uiso   1.00
C1091  C     0.62524   0.52789   0.57846   0.00000  Uiso   1.00
C1092  C     0.61093   0.57222   0.60036   0.00000  Uiso   1.00
H1093  H     0.57718   0.57327   0.63367   0.00000  Uiso   1.00
H1094  H     0.63901   0.58457   0.61538   0.00000  Uiso   1.00
H1095  H     0.60673   0.59267   0.56823   0.00000  Uiso   1.00
H1096  H     0.63296   0.50773   0.60889   0.00000  Uiso   1.00
H1097  H     0.65938   0.52992   0.54602   0.00000  Uiso   1.00
Br1098 Br    0.40346   0.38977   0.83246   0.00000  Uiso   1.00
C1099  C     0.40527   0.63018   0.78748   0.00000  Uiso   1.00
C1100  C     0.39391   0.62524   0.73483   0.00000  Uiso   1.00
H1101  H     0.38293   0.65597   0.72261   0.00000  Uiso   1.00
H1102  H     0.42497   0.61276   0.70208   0.00000  Uiso   1.00
H1103  H     0.36491   0.60360   0.73931   0.00000  Uiso   1.00
H1104  H     0.40297   0.60084   0.80952   0.00000  Uiso   1.00
H1105  H     0.37639   0.64990   0.81439   0.00000  Uiso   1.00
Br1106 Br    0.40996   0.43474   0.66917   0.00000  Uiso   1.00
C1107  C     0.59879   0.55489   0.82569   0.00000  Uiso   1.00
C1108  C     0.61147   0.60050   0.81876   0.00000  Uiso   1.00
H1109  H     0.61621   0.61003   0.77715   0.00000  Uiso   1.00
H1110  H     0.58233   0.62033   0.84575   0.00000  Uiso   1.00
H1111  H     0.64389   0.60583   0.82977   0.00000  Uiso   1.00
H1112  H     0.56262   0.55437   0.82469   0.00000  Uiso   1.00
H1113  H     0.59821   0.54536   0.86627   0.00000  Uiso   1.00
C1114  C     0.56103   0.42628   0.86201   0.00000  Uiso   1.00
C1115  C     0.52789   0.38984   0.87247   0.00000  Uiso   1.00
H1116  H     0.52307   0.37767   0.91304   0.00000  Uiso   1.00
H1117  H     0.49284   0.39959   0.86891   0.00000  Uiso   1.00
H1118  H     0.54348   0.36437   0.84292   0.00000  Uiso   1.00
H1119  H     0.56628   0.43901   0.82240   0.00000  Uiso   1.00
H1120  H     0.59664   0.41298   0.86021   0.00000  Uiso   1.00
O1121  O     0.79512   0.56108   0.75001   0.00000  Uiso   1.00
O1122  O     0.87157   0.56107   0.75001   0.00000  Uiso   1.00
C1123  C     0.83228   0.58021   0.75060   0.00000  Uiso   1.00
O1124  O     0.77613   0.50000   0.82681   0.00000  Uiso   1.00
O1125  O     0.85258   0.49999   0.82681   0.00000  Uiso   1.00
C1126  C     0.80841   0.49360   0.85040   0.00000  Uiso   1.00
Zn1127 Zn    0.78229   0.50001   0.75000   0.00000  Uiso   1.00
Zn1128 Zn    0.88438   0.49999   0.75000   0.00000  Uiso   1.00
O1129  O     0.79510   0.43893   0.75000   0.00000  Uiso   1.00
O1130  O     0.87154   0.43892   0.75000   0.00000  Uiso   1.00
O1131  O     0.81409   0.50001   0.67319   0.00000  Uiso   1.00
O1132  O     0.89053   0.50000   0.67319   0.00000  Uiso   1.00
C1133  C     0.83320   0.42026   0.75274   0.00000  Uiso   1.00
C1134  C     0.85919   0.50188   0.64823   0.00000  Uiso   1.00
C1135  C     0.93330   0.49998   0.50277   0.00000  Uiso   1.00
H1136  H     0.95015   0.46726   0.90630   0.00000  Uiso   1.00
H1137  H     0.96942   0.50317   0.97728   0.00000  Uiso   1.00
C1138  C     0.87433   0.50231   0.58986   0.00000  Uiso   1.00
C1139  C     0.74710   0.47668   0.93460   0.00000  Uiso   1.00
C1140  C     0.73358   0.47060   0.98919   0.00000  Uiso   1.00
C1141  C     0.76700   0.47275   0.51618   0.00000  Uiso   1.00
C1142  C     0.81576   0.47631   0.98765   0.00000  Uiso   1.00
C1143  C     0.83003   0.47154   0.93173   0.00000  Uiso   1.00
C1144  C     0.85094   0.48503   0.51197   0.00000  Uiso   1.00
C1145  C     0.89905   0.48641   0.98061   0.00000  Uiso   1.00
C1146  C     0.91274   0.47199   0.92813   0.00000  Uiso   1.00
C1147  C     0.87863   0.46001   0.90516   0.00000  Uiso   1.00
C1148  C     0.83955   0.49363   0.56615   0.00000  Uiso   1.00
C1149  C     0.92129   0.50938   0.55740   0.00000  Uiso   1.00
C1150  C     0.79523   0.47941   0.90568   0.00000  Uiso   1.00
H1151  H     0.80331   0.49322   0.59092   0.00000  Uiso   1.00
H1152  H     0.71992   0.47955   0.91516   0.00000  Uiso   1.00
H1153  H     0.75356   0.47084   0.55893   0.00000  Uiso   1.00
H1154  H     0.69674   0.46647   0.51113   0.00000  Uiso   1.00
C1155  C     0.87319   0.64432   0.73172   0.00000  Uiso   1.00
H1156  H     0.90592   0.62675   0.71227   0.00000  Uiso   1.00
C1157  C     0.87419   0.35341   0.73285   0.00000  Uiso   1.00
H1158  H     0.90720   0.36820   0.71334   0.00000  Uiso   1.00
C1159  C     0.83267   0.37647   0.75799   0.00000  Uiso   1.00
C1160  C     0.78993   0.35764   0.78422   0.00000  Uiso   1.00
C1161  C     0.78713   0.64838   0.77668   0.00000  Uiso   1.00
C1162  C     0.83013   0.62489   0.75261   0.00000  Uiso   1.00
C1163  C     0.98592   0.47434   0.71624   0.00000  Uiso   1.00
H1164  H     0.97566   0.45367   0.68949   0.00000  Uiso   1.00
C1165  C     0.70027   0.47412   0.71619   0.00000  Uiso   1.00
N1166  N     0.71426   0.50001   0.75002   0.00000  Uiso   1.00
C1167  C     0.68069   0.52461   0.78496   0.00000  Uiso   1.00
H1168  H     0.69096   0.54322   0.81353   0.00000  Uiso   1.00
C1169  C     0.96630   0.52584   0.78467   0.00000  Uiso   1.00
N1170  N     0.95239   0.49998   0.75001   0.00000  Uiso   1.00
C1171  C     0.95857   0.52789   0.57846   0.00000  Uiso   1.00
C1172  C     0.94426   0.57222   0.60036   0.00000  Uiso   1.00
H1173  H     0.91052   0.57327   0.63367   0.00000  Uiso   1.00
H1174  H     0.97234   0.58457   0.61538   0.00000  Uiso   1.00
H1175  H     0.94006   0.59267   0.56823   0.00000  Uiso   1.00
H1176  H     0.96629   0.50773   0.60889   0.00000  Uiso   1.00
H1177  H     0.99272   0.52992   0.54602   0.00000  Uiso   1.00
Br1178 Br    0.73679   0.38977   0.83246   0.00000  Uiso   1.00
C1179  C     0.73860   0.63018   0.78748   0.00000  Uiso   1.00
C1180  C     0.72725   0.62524   0.73483   0.00000  Uiso   1.00
H1181  H     0.71626   0.65597   0.72261   0.00000  Uiso   1.00
H1182  H     0.75830   0.61276   0.70208   0.00000  Uiso   1.00
H1183  H     0.69825   0.60360   0.73931   0.00000  Uiso   1.00
H1184  H     0.73630   0.60084   0.80952   0.00000  Uiso   1.00
H1185  H     0.70973   0.64990   0.81439   0.00000  Uiso   1.00
Br1186 Br    0.74329   0.43474   0.66917   0.00000  Uiso   1.00
C1187  C     0.93213   0.55489   0.82569   0.00000  Uiso   1.00
C1188  C     0.94481   0.60050   0.81876   0.00000  Uiso   1.00
H1189  H     0.94954   0.61003   0.77715   0.00000  Uiso   1.00
H1190  H     0.91566   0.62033   0.84575   0.00000  Uiso   1.00
H1191  H     0.97722   0.60583   0.82977   0.00000  Uiso   1.00
H1192  H     0.89595   0.55437   0.82469   0.00000  Uiso   1.00
H1193  H     0.93154   0.54536   0.86627   0.00000  Uiso   1.00
C1194  C     0.89437   0.42628   0.86201   0.00000  Uiso   1.00
C1195  C     0.86122   0.38984   0.87247   0.00000  Uiso   1.00
H1196  H     0.85640   0.37767   0.91304   0.00000  Uiso   1.00
H1197  H     0.82617   0.39959   0.86891   0.00000  Uiso   1.00
H1198  H     0.87681   0.36437   0.84292   0.00000  Uiso   1.00
H1199  H     0.89962   0.43901   0.82240   0.00000  Uiso   1.00
H1200  H     0.92997   0.41298   0.86021   0.00000  Uiso   1.00
O1201  O     0.12846   0.89442   0.75001   0.00000  Uiso   1.00
O1202  O     0.20490   0.89441   0.75001   0.00000  Uiso   1.00
C1203  C     0.16562   0.91354   0.75060   0.00000  Uiso   1.00
O1204  O     0.10947   0.83333   0.82681   0.00000  Uiso   1.00
O1205  O     0.18591   0.83332   0.82681   0.00000  Uiso   1.00
C1206  C     0.14175   0.82693   0.85040   0.00000  Uiso   1.00
Zn1207 Zn    0.11562   0.83334   0.75000   0.00000  Uiso   1.00
Zn1208 Zn    0.21771   0.83333   0.75000   0.00000  Uiso   1.00
O1209  O     0.12843   0.77226   0.75000   0.00000  Uiso   1.00
O1210  O     0.20488   0.77225   0.75000   0.00000  Uiso   1.00
O1211  O     0.14742   0.83335   0.67319   0.00000  Uiso   1.00
O1212  O     0.22387   0.83334   0.67319   0.00000  Uiso   1.00
C1213  C     0.16653   0.75359   0.75274   0.00000  Uiso   1.00
C1214  C     0.19252   0.83522   0.64823   0.00000  Uiso   1.00
C1215  C     0.26664   0.83331   0.50277   0.00000  Uiso   1.00
H1216  H     0.28348   0.80060   0.90630   0.00000  Uiso   1.00
H1217  H     0.30276   0.83650   0.97728   0.00000  Uiso   1.00
C1218  C     0.20767   0.83564   0.58986   0.00000  Uiso   1.00
C1219  C     0.08043   0.81002   0.93460   0.00000  Uiso   1.00
C1220  C     0.06692   0.80394   0.98919   0.00000  Uiso   1.00
C1221  C     0.10033   0.80608   0.51618   0.00000  Uiso   1.00
C1222  C     0.14909   0.80965   0.98765   0.00000  Uiso   1.00
C1223  C     0.16336   0.80487   0.93173   0.00000  Uiso   1.00
C1224  C     0.18427   0.81836   0.51197   0.00000  Uiso   1.00
C1225  C     0.23238   0.81974   0.98061   0.00000  Uiso   1.00
C1226  C     0.24607   0.80532   0.92813   0.00000  Uiso   1.00
C1227  C     0.21196   0.79335   0.90516   0.00000  Uiso   1.00
C1228  C     0.17288   0.82697   0.56615   0.00000  Uiso   1.00
C1229  C     0.25462   0.84271   0.55740   0.00000  Uiso   1.00
C1230  C     0.12856   0.81274   0.90568   0.00000  Uiso   1.00
H1231  H     0.13665   0.82655   0.59092   0.00000  Uiso   1.00
H1232  H     0.05326   0.81289   0.91516   0.00000  Uiso   1.00
H1233  H     0.08690   0.80418   0.55893   0.00000  Uiso   1.00
H1234  H     0.03007   0.79980   0.51113   0.00000  Uiso   1.00
C1235  C     0.20652   0.97766   0.73172   0.00000  Uiso   1.00
H1236  H     0.23926   0.96008   0.71227   0.00000  Uiso   1.00
C1237  C     0.20752   0.68674   0.73285   0.00000  Uiso   1.00
H1238  H     0.24053   0.70154   0.71334   0.00000  Uiso   1.00
C1239  C     0.16601   0.70980   0.75799   0.00000  Uiso   1.00
C1240  C     0.12327   0.69098   0.78422   0.00000  Uiso   1.00
C1241  C     0.12046   0.98172   0.77668   0.00000  Uiso   1.00
C1242  C     0.16346   0.95823   0.75261   0.00000  Uiso   1.00
C1243  C     0.31925   0.80767   0.71624   0.00000  Uiso   1.00
H1244  H     0.30900   0.78700   0.68949   0.00000  Uiso   1.00
C1245  C     0.03361   0.80746   0.71619   0.00000  Uiso   1.00
N1246  N     0.04760   0.83334   0.75002   0.00000  Uiso   1.00
C1247  C     0.01403   0.85794   0.78496   0.00000  Uiso   1.00
H1248  H     0.02430   0.87655   0.81353   0.00000  Uiso   1.00
C1249  C     0.29963   0.85917   0.78467   0.00000  Uiso   1.00
N1250  N     0.28573   0.83331   0.75001   0.00000  Uiso   1.00
C1251  C     0.29190   0.86122   0.57846   0.00000  Uiso   1.00
C1252  C     0.27760   0.90556   0.60036   0.00000  Uiso   1.00
H1253  H     0.24385   0.90660   0.63367   0.00000  Uiso   1.00
H1254  H     0.30568   0.91790   0.61538   0.00000  Uiso   1.00
H1255  H     0.27340   0.92600   0.56823   0.00000  Uiso   1.00
H1256  H     0.29962   0.84106   0.60889   0.00000  Uiso   1.00
H1257  H     0.32605   0.86326   0.54602   0.00000  Uiso   1.00
Br1258 Br    0.07013   0.72310   0.83246   0.00000  Uiso   1.00
C1259  C     0.07194   0.96351   0.78748   0.00000  Uiso   1.00
C1260  C     0.06058   0.95858   0.73483   0.00000  Uiso   1.00
H1261  H     0.04959   0.98930   0.72261   0.00000  Uiso   1.00
H1262  H     0.09164   0.94609   0.70208   0.00000  Uiso   1.00
H1263  H     0.03158   0.93693   0.73931   0.00000  Uiso   1.00
H1264  H     0.06963   0.93417   0.80952   0.00000  Uiso   1.00
H1265  H     0.04306   0.98324   0.81439   0.00000  Uiso   1.00
Br1266 Br    0.07663   0.76807   0.66917   0.00000  Uiso   1.00
C1267  C     0.26546   0.88823   0.82569   0.00000  Uiso   1.00
C1268  C     0.27814   0.93383   0.81876   0.00000  Uiso   1.00
H1269  H     0.28288   0.94336   0.77715   0.00000  Uiso   1.00
H1270  H     0.24899   0.95366   0.84575   0.00000  Uiso   1.00
H1271  H     0.31056   0.93917   0.82977   0.00000  Uiso   1.00
H1272  H     0.22929   0.88770   0.82469   0.00000  Uiso   1.00
H1273  H     0.26488   0.87869   0.86627   0.00000  Uiso   1.00
C1274  C     0.22770   0.75961   0.86201   0.00000  Uiso   1.00
C1275  C     0.19455   0.72317   0.87247   0.00000  Uiso   1.00
H1276  H     0.18974   0.71100   0.91304   0.00000  Uiso   1.00
H1277  H     0.15951   0.73292   0.86891   0.00000  Uiso   1.00
H1278  H     0.21015   0.69771   0.84292   0.00000  Uiso   1.00
H1279  H     0.23295   0.77235   0.82240   0.00000  Uiso   1.00
H1280  H     0.26331   0.74631   0.86021   0.00000  Uiso   1.00
O1281  O     0.46179   0.89442   0.75001   0.00000  Uiso   1.00
O1282  O     0.53823   0.89441   0.75001   0.00000  Uiso   1.00
C1283  C     0.49895   0.91354   0.75060   0.00000  Uiso   1.00
O1284  O     0.44280   0.83333   0.82681   0.00000  Uiso   1.00
O1285  O     0.51924   0.83332   0.82681   0.00000  Uiso   1.00
C1286  C     0.47508   0.82693   0.85040   0.00000  Uiso   1.00
Zn1287 Zn    0.44896   0.83334   0.75000   0.00000  Uiso   1.00
Zn1288 Zn    0.55104   0.83333   0.75000   0.00000  Uiso   1.00
O1289  O     0.46177   0.77226   0.75000   0.00000  Uiso   1.00
O1290  O     0.53821   0.77225   0.75000   0.00000  Uiso   1.00
O1291  O     0.48076   0.83335   0.67319   0.00000  Uiso   1.00
O1292  O     0.55720   0.83334   0.67319   0.00000  Uiso   1.00
C1293  C     0.49986   0.75359   0.75274   0.00000  Uiso   1.00
C1294  C     0.52586   0.83522   0.64823   0.00000  Uiso   1.00
C1295  C     0.59997   0.83331   0.50277   0.00000  Uiso   1.00
H1296  H     0.61682   0.80060   0.90630   0.00000  Uiso   1.00
H1297  H     0.63609   0.83650   0.97728   0.00000  Uiso   1.00
C1298  C     0.54100   0.83564   0.58986   0.00000  Uiso   1.00
C1299  C     0.41377   0.81002   0.93460   0.00000  Uiso   1.00
C1300  C     0.40025   0.80394   0.98919   0.00000  Uiso   1.00
C1301  C     0.43366   0.80608   0.51618   0.00000  Uiso   1.00
C1302  C     0.48242   0.80965   0.98765   0.00000  Uiso   1.00
C1303  C     0.49670   0.80487   0.93173   0.00000  Uiso   1.00
C1304  C     0.51760   0.81836   0.51197   0.00000  Uiso   1.00
C1305  C     0.56572   0.81974   0.98061   0.00000  Uiso   1.00
C1306  C     0.57941   0.80532   0.92813   0.00000  Uiso   1.00
C1307  C     0.54530   0.79335   0.90516   0.00000  Uiso   1.00
C1308  C     0.50622   0.82697   0.56615   0.00000  Uiso   1.00
C1309  C     0.58795   0.84271   0.55740   0.00000  Uiso   1.00
C1310  C     0.46190   0.81274   0.90568   0.00000  Uiso   1.00
H1311  H     0.46998   0.82655   0.59092   0.00000  Uiso   1.00
H1312  H     0.38659   0.81289   0.91516   0.00000  Uiso   1.00
H1313  H     0.42023   0.80418   0.55893   0.00000  Uiso   1.00
H1314  H     0.36341   0.79980   0.51113   0.00000  Uiso   1.00
C1315  C     0.53986   0.97766   0.73172   0.00000  Uiso   1.00
H1316  H     0.57259   0.96008   0.71227   0.00000  Uiso   1.00
C1317  C     0.54086   0.68674   0.73285   0.00000  Uiso   1.00
H1318  H     0.57387   0.70154   0.71334   0.00000  Uiso   1.00
C1319  C     0.49934   0.70980   0.75799   0.00000  Uiso   1.00
C1320  C     0.45660   0.69098   0.78422   0.00000  Uiso   1.00
C1321  C     0.45380   0.98172   0.77668   0.00000  Uiso   1.00
C1322  C     0.49679   0.95823   0.75261   0.00000  Uiso   1.00
C1323  C     0.65259   0.80767   0.71624   0.00000  Uiso   1.00
H1324  H     0.64233   0.78700   0.68949   0.00000  Uiso   1.00
C1325  C     0.36694   0.80746   0.71619   0.00000  Uiso   1.00
N1326  N     0.38093   0.83334   0.75002   0.00000  Uiso   1.00
C1327  C     0.34736   0.85794   0.78496   0.00000  Uiso   1.00
H1328  H     0.35763   0.87655   0.81353   0.00000  Uiso   1.00
C1329  C     0.63297   0.85917   0.78467   0.00000  Uiso   1.00
N1330  N     0.61906   0.83331   0.75001   0.00000  Uiso   1.00
C1331  C     0.62524   0.86122   0.57846   0.00000  Uiso   1.00
C1332  C     0.61093   0.90556   0.60036   0.00000  Uiso   1.00
H1333  H     0.57718   0.90660   0.63367   0.00000  Uiso   1.00
H1334  H     0.63901   0.91790   0.61538   0.00000  Uiso   1.00
H1335  H     0.60673   0.92600   0.56823   0.00000  Uiso   1.00
H1336  H     0.63296   0.84106   0.60889   0.00000  Uiso   1.00
H1337  H     0.65938   0.86326   0.54602   0.00000  Uiso   1.00
Br1338 Br    0.40346   0.72310   0.83246   0.00000  Uiso   1.00
C1339  C     0.40527   0.96351   0.78748   0.00000  Uiso   1.00
C1340  C     0.39391   0.95858   0.73483   0.00000  Uiso   1.00
H1341  H     0.38293   0.98930   0.72261   0.00000  Uiso   1.00
H1342  H     0.42497   0.94609   0.70208   0.00000  Uiso   1.00
H1343  H     0.36491   0.93693   0.73931   0.00000  Uiso   1.00
H1344  H     0.40297   0.93417   0.80952   0.00000  Uiso   1.00
H1345  H     0.37639   0.98324   0.81439   0.00000  Uiso   1.00
Br1346 Br    0.40996   0.76807   0.66917   0.00000  Uiso   1.00
C1347  C     0.59879   0.88823   0.82569   0.00000  Uiso   1.00
C1348  C     0.61147   0.93383   0.81876   0.00000  Uiso   1.00
H1349  H     0.61621   0.94336   0.77715   0.00000  Uiso   1.00
H1350  H     0.58233   0.95366   0.84575   0.00000  Uiso   1.00
H1351  H     0.64389   0.93917   0.82977   0.00000  Uiso   1.00
H1352  H     0.56262   0.88770   0.82469   0.00000  Uiso   1.00
H1353  H     0.59821   0.87869   0.86627   0.00000  Uiso   1.00
C1354  C     0.56103   0.75961   0.86201   0.00000  Uiso   1.00
C1355  C     0.52789   0.72317   0.87247   0.00000  Uiso   1.00
H1356  H     0.52307   0.71100   0.91304   0.00000  Uiso   1.00
H1357  H     0.49284   0.73292   0.86891   0.00000  Uiso   1.00
H1358  H     0.54348   0.69771   0.84292   0.00000  Uiso   1.00
H1359  H     0.56628   0.77235   0.82240   0.00000  Uiso   1.00
H1360  H     0.59664   0.74631   0.86021   0.00000  Uiso   1.00
O1361  O     0.79512   0.89442   0.75001   0.00000  Uiso   1.00
O1362  O     0.87157   0.89441   0.75001   0.00000  Uiso   1.00
C1363  C     0.83228   0.91354   0.75060   0.00000  Uiso   1.00
O1364  O     0.77613   0.83333   0.82681   0.00000  Uiso   1.00
O1365  O     0.85258   0.83332   0.82681   0.00000  Uiso   1.00
C1366  C     0.80841   0.82693   0.85040   0.00000  Uiso   1.00
Zn1367 Zn    0.78229   0.83334   0.75000   0.00000  Uiso   1.00
Zn1368 Zn    0.88438   0.83333   0.75000   0.00000  Uiso   1.00
O1369  O     0.79510   0.77226   0.75000   0.00000  Uiso   1.00
O1370  O     0.87154   0.77225   0.75000   0.00000  Uiso   1.00
O1371  O     0.81409   0.83335   0.67319   0.00000  Uiso   1.00
O1372  O     0.89053   0.83334   0.67319   0.00000  Uiso   1.00
C1373  C     0.83320   0.75359   0.75274   0.00000  Uiso   1.00
C1374  C     0.85919   0.83522   0.64823   0.00000  Uiso   1.00
C1375  C     0.93330   0.83331   0.50277   0.00000  Uiso   1.00
H1376  H     0.95015   0.80060   0.90630   0.00000  Uiso   1.00
H1377  H     0.96942   0.83650   0.97728   0.00000  Uiso   1.00
C1378  C     0.87433   0.83564   0.58986   0.00000  Uiso   1.00
C1379  C     0.74710   0.81002   0.93460   0.00000  Uiso   1.00
C1380  C     0.73358   0.80394   0.98919   0.00000  Uiso   1.00
C1381  C     0.76700   0.80608   0.51618   0.00000  Uiso   1.00
C1382  C     0.81576   0.80965   0.98765   0.00000  Uiso   1.00
C1383  C     0.83003   0.80487   0.93173   0.00000  Uiso   1.00
C1384  C     0.85094   0.81836   0.51197   0.00000  Uiso   1.00
C1385  C     0.89905   0.81974   0.98061   0.00000  Uiso   1.00
C1386  C     0.91274   0.80532   0.92813   0.00000  Uiso   1.00
C1387  C     0.87863   0.79335   0.90516   0.00000  Uiso   1.00
C1388  C     0.83955   0.82697   0.56615   0.00000  Uiso   1.00
C1389  C     0.92129   0.84271   0.55740   0.00000  Uiso   1.00
C1390  C     0.79523   0.81274   0.90568   0.00000  Uiso   1.00
H1391  H     0.80331   0.82655   0.59092   0.00000  Uiso   1.00
H1392  H     0.71992   0.81289   0.91516   0.00000  Uiso   1.00
H1393  H     0.75356   0.80418   0.55893   0.00000  Uiso   1.00
H1394  H     0.69674   0.79980   0.51113   0.00000  Uiso   1.00
C1395  C     0.87319   0.97766   0.73172   0.00000  Uiso   1.00
H1396  H     0.90592   0.96008   0.71227   0.00000  Uiso   1.00
C1397  C     0.87419   0.68674   0.73285   0.00000  Uiso   1.00
H1398  H     0.90720   0.70154   0.71334   0.00000  Uiso   1.00
C1399  C     0.83267   0.70980   0.75799   0.00000  Uiso   1.00
C1400  C     0.78993   0.69098   0.78422   0.00000  Uiso   1.00
C1401  C     0.78713   0.98172   0.77668   0.00000  Uiso   1.00
C1402  C     0.83013   0.95823   0.75261   0.00000  Uiso   1.00
C1403  C     0.98592   0.80767   0.71624   0.00000  Uiso   1.00
H1404  H     0.97566   0.78700   0.68949   0.00000  Uiso   1.00
C1405  C     0.70027   0.80746   0.71619   0.00000  Uiso   1.00
N1406  N     0.71426   0.83334   0.75002   0.00000  Uiso   1.00
C1407  C     0.68069   0.85794   0.78496   0.00000  Uiso   1.00
H1408  H     0.69096   0.87655   0.81353   0.00000  Uiso   1.00
C1409  C     0.96630   0.85917   0.78467   0.00000  Uiso   1.00
N1410  N     0.95239   0.83331   0.75001   0.00000  Uiso   1.00
C1411  C     0.95857   0.86122   0.57846   0.00000  Uiso   1.00
C1412  C     0.94426   0.90556   0.60036   0.00000  Uiso   1.00
H1413  H     0.91052   0.90660   0.63367   0.00000  Uiso   1.00
H1414  H     0.97234   0.91790   0.61538   0.00000  Uiso   1.00
H1415  H     0.94006   0.92600   0.56823   0.00000  Uiso   1.00
H1416  H     0.96629   0.84106   0.60889   0.00000  Uiso   1.00
H1417  H     0.99272   0.86326   0.54602   0.00000  Uiso   1.00
Br1418 Br    0.73679   0.72310   0.83246   0.00000  Uiso   1.00
C1419  C     0.73860   0.96351   0.78748   0.00000  Uiso   1.00
C1420  C     0.72725   0.95858   0.73483   0.00000  Uiso   1.00
H1421  H     0.71626   0.98930   0.72261   0.00000  Uiso   1.00
H1422  H     0.75830   0.94609   0.70208   0.00000  Uiso   1.00
H1423  H     0.69825   0.93693   0.73931   0.00000  Uiso   1.00
H1424  H     0.73630   0.93417   0.80952   0.00000  Uiso   1.00
H1425  H     0.70973   0.98324   0.81439   0.00000  Uiso   1.00
Br1426 Br    0.74329   0.76807   0.66917   0.00000  Uiso   1.00
C1427  C     0.93213   0.88823   0.82569   0.00000  Uiso   1.00
C1428  C     0.94481   0.93383   0.81876   0.00000  Uiso   1.00
H1429  H     0.94954   0.94336   0.77715   0.00000  Uiso   1.00
H1430  H     0.91566   0.95366   0.84575   0.00000  Uiso   1.00
H1431  H     0.97722   0.93917   0.82977   0.00000  Uiso   1.00
H1432  H     0.89595   0.88770   0.82469   0.00000  Uiso   1.00
H1433  H     0.93154   0.87869   0.86627   0.00000  Uiso   1.00
C1434  C     0.89437   0.75961   0.86201   0.00000  Uiso   1.00
C1435  C     0.86122   0.72317   0.87247   0.00000  Uiso   1.00
H1436  H     0.85640   0.71100   0.91304   0.00000  Uiso   1.00
H1437  H     0.82617   0.73292   0.86891   0.00000  Uiso   1.00
H1438  H     0.87681   0.69771   0.84292   0.00000  Uiso   1.00
H1439  H     0.89962   0.77235   0.82240   0.00000  Uiso   1.00
H1440  H     0.92997   0.74631   0.86021   0.00000  Uiso   1.00
loop_
_geom_bond_atom_site_label_1
_geom_bond_atom_site_label_2
_geom_bond_distance
_geom_bond_site_symmetry_2
_ccdc_geom_bond_type
O1     C3      1.286   .     A
O1     Zn7     2.014   .     S
O2     Zn8     1.987   .     S
O2     C3      1.295   .     A
C3     C42     1.436   .     S
O4     Zn7     1.976   .     S
O4     C6      1.306   .     A
O5     C6      1.290   .     A
O5     Zn8     1.952   .     S
C6     C30     1.468   .     S
Zn7    O11     1.952   .     S
Zn7    N46     2.019   .     S
Zn7    O9      1.987   .     S
Zn8    O12     1.976   .     S
Zn8    O10     2.014   .     S
Zn8    N50     2.019   .     S
O9     C13     1.284   .     A
O10    C13     1.288   .     A
O11    C14     1.300   .     A
O12    C14     1.295   .     A
C13    C39     1.416   .     S
C14    C18     1.464   .     S
C15    C29     1.400   .     A
C15    H737    1.084   1_554 S
C15    C745    1.400   1_554 S
H16    C26     1.085   .     S
H17    C735    1.084   .     S
C18    C28     1.397   .     A
C18    C29     1.419   .     A
C19    C20     1.387   .     A
C19    H32     1.083   .     S
C19    C30     1.402   .     A
C20    C741    1.391   .     S
C20    H754    1.081   .     S
C21    H33     1.076   .     S
C21    C740    1.391   1_554 S
C21    C742    1.419   1_554 S
C22    C23     1.408   .     A
C22    C741    1.419   .     S
C22    C744    1.418   .     S
C23    C27     1.429   .     A
C23    C30     1.424   .     A
C24    C28     1.386   .     A
C24    C742    1.418   1_554 S
C24    C745    1.414   1_554 S
C25    C26     1.387   .     A
C25    C744    1.414   .     S
C25    C735    1.400   .     S
C26    C27     1.394   .     A
C27    C74     1.518   .     S
C28    H31     1.072   .     S
C29    C51     1.519   .     S
H34    C740    1.081   1_554 S
C35    C42     1.397   .     A
C35    H36     1.084   .     S
C35    C277    1.366   .     S
C37    H38     1.084   .     S
C37    C39     1.389   .     A
C37    C515    1.366   1_545 S
C39    C40     1.404   .     A
C40    Br58    1.948   .     S
C40    C521    1.391   1_545 S
C41    C42     1.423   .     A
C41    C59     1.518   .     S
C41    C280    1.391   .     S
C43    H44     1.082   .     S
C43    N50     1.358   .     A
C43    C125    1.415   .     S
C45    N46     1.379   .     A
C45    Br66    1.911   .     S
C45    C203    1.415   1_455 S
N46    C47     1.353   .     A
C47    H48     1.080   .     S
C47    C209    1.418   1_455 S
C49    C67     1.520   .     S
C49    N50     1.393   .     A
C49    C127    1.418   .     S
C51    H56     1.108   .     S
C51    C52     1.529   .     S
C51    H57     1.110   .     S
C52    H55     1.111   .     S
C52    H54     1.111   .     S
C52    H53     1.108   .     S
C59    H64     1.105   .     S
C59    C60     1.535   .     S
C59    H65     1.104   .     S
C60    H63     1.104   .     S
C60    H62     1.110   .     S
C60    H61     1.111   .     S
C67    H72     1.083   .     S
C67    H73     1.111   .     S
C67    C68     1.525   .     S
C68    H69     1.109   .     S
C68    H71     1.106   .     S
C68    H70     1.111   .     S
C74    H80     1.113   .     S
C74    C75     1.528   .     S
C74    H79     1.093   .     S
C75    H76     1.111   .     S
C75    H77     1.108   .     S
C75    H78     1.110   .     S
O81    C83     1.286   .     A
O81    Zn87    2.014   .     S
O82    Zn88    1.987   .     S
O82    C83     1.295   .     A
C83    C122    1.436   .     S
O84    Zn87    1.976   .     S
O84    C86     1.306   .     A
O85    C86     1.290   .     A
O85    Zn88    1.952   .     S
C86    C110    1.468   .     S
Zn87   O91     1.952   .     S
Zn87   N126    2.019   .     S
Zn87   O89     1.987   .     S
Zn88   O92     1.976   .     S
Zn88   O90     2.014   .     S
Zn88   N130    2.019   .     S
O89    C93     1.284   .     A
O90    C93     1.288   .     A
O91    C94     1.300   .     A
O92    C94     1.295   .     A
C93    C119    1.416   .     S
C94    C98     1.464   .     S
C95    C109    1.400   .     A
C95    H817    1.084   1_554 S
C95    C825    1.400   1_554 S
H96    C106    1.085   .     S
H97    C815    1.084   .     S
C98    C108    1.397   .     A
C98    C109    1.419   .     A
C99    C100    1.387   .     A
C99    H112    1.083   .     S
C99    C110    1.402   .     A
C100   C821    1.391   .     S
C100   H834    1.081   .     S
C101   H113    1.076   .     S
C101   C820    1.391   1_554 S
C101   C822    1.419   1_554 S
C102   C103    1.408   .     A
C102   C821    1.419   .     S
C102   C824    1.418   .     S
C103   C107    1.429   .     A
C103   C110    1.424   .     A
C104   C108    1.386   .     A
C104   C822    1.418   1_554 S
C104   C825    1.414   1_554 S
C105   C106    1.387   .     A
C105   C824    1.414   .     S
C105   C815    1.400   .     S
C106   C107    1.394   .     A
C107   C154    1.518   .     S
C108   H111    1.072   .     S
C109   C131    1.519   .     S
H114   C820    1.081   1_554 S
C115   C122    1.397   .     A
C115   H116    1.084   .     S
C115   C357    1.366   .     S
C117   H118    1.084   .     S
C117   C119    1.389   .     A
C117   C595    1.366   1_545 S
C119   C120    1.404   .     A
C120   Br138   1.948   .     S
C120   C601    1.391   1_545 S
C121   C122    1.423   .     A
C121   C139    1.518   .     S
C121   C360    1.391   .     S
C123   H124    1.082   .     S
C123   N130    1.358   .     A
C123   C205    1.415   .     S
C125   N126    1.379   .     A
C125   Br146   1.911   .     S
N126   C127    1.353   .     A
C127   H128    1.080   .     S
C129   C147    1.520   .     S
C129   N130    1.393   .     A
C129   C207    1.418   .     S
C131   H136    1.108   .     S
C131   C132    1.529   .     S
C131   H137    1.110   .     S
C132   H135    1.111   .     S
C132   H134    1.111   .     S
C132   H133    1.108   .     S
C139   H144    1.105   .     S
C139   C140    1.535   .     S
C139   H145    1.104   .     S
C140   H143    1.104   .     S
C140   H142    1.110   .     S
C140   H141    1.111   .     S
C147   H152    1.083   .     S
C147   H153    1.111   .     S
C147   C148    1.525   .     S
C148   H149    1.109   .     S
C148   H151    1.106   .     S
C148   H150    1.111   .     S
C154   H160    1.113   .     S
C154   C155    1.528   .     S
C154   H159    1.093   .     S
C155   H156    1.111   .     S
C155   H157    1.108   .     S
C155   H158    1.110   .     S
O161   C163    1.286   .     A
O161   Zn167   2.014   .     S
O162   Zn168   1.987   .     S
O162   C163    1.295   .     A
C163   C202    1.436   .     S
O164   Zn167   1.976   .     S
O164   C166    1.306   .     A
O165   C166    1.290   .     A
O165   Zn168   1.952   .     S
C166   C190    1.468   .     S
Zn167  O171    1.952   .     S
Zn167  N206    2.019   .     S
Zn167  O169    1.987   .     S
Zn168  O172    1.976   .     S
Zn168  O170    2.014   .     S
Zn168  N210    2.019   .     S
O169   C173    1.284   .     A
O170   C173    1.288   .     A
O171   C174    1.300   .     A
O172   C174    1.295   .     A
C173   C199    1.416   .     S
C174   C178    1.464   .     S
C175   C189    1.400   .     A
C175   H897    1.084   1_554 S
C175   C905    1.400   1_554 S
H176   C186    1.085   .     S
H177   C895    1.084   .     S
C178   C188    1.397   .     A
C178   C189    1.419   .     A
C179   C180    1.387   .     A
C179   H192    1.083   .     S
C179   C190    1.402   .     A
C180   C901    1.391   .     S
C180   H914    1.081   .     S
C181   H193    1.076   .     S
C181   C900    1.391   1_554 S
C181   C902    1.419   1_554 S
C182   C183    1.408   .     A
C182   C901    1.419   .     S
C182   C904    1.418   .     S
C183   C187    1.429   .     A
C183   C190    1.424   .     A
C184   C188    1.386   .     A
C184   C902    1.418   1_554 S
C184   C905    1.414   1_554 S
C185   C186    1.387   .     A
C185   C904    1.414   .     S
C185   C895    1.400   .     S
C186   C187    1.394   .     A
C187   C234    1.518   .     S
C188   H191    1.072   .     S
C189   C211    1.519   .     S
H194   C900    1.081   1_554 S
C195   C202    1.397   .     A
C195   H196    1.084   .     S
C195   C437    1.366   .     S
C197   H198    1.084   .     S
C197   C199    1.389   .     A
C197   C675    1.366   1_545 S
C199   C200    1.404   .     A
C200   Br218   1.948   .     S
C200   C681    1.391   1_545 S
C201   C202    1.423   .     A
C201   C219    1.518   .     S
C201   C440    1.391   .     S
C203   H204    1.082   .     S
C203   N210    1.358   .     A
C203   C45     1.415   1_655 S
C205   N206    1.379   .     A
C205   Br226   1.911   .     S
N206   C207    1.353   .     A
C207   H208    1.080   .     S
C209   C227    1.520   .     S
C209   N210    1.393   .     A
C209   C47     1.418   1_655 S
C211   H216    1.108   .     S
C211   C212    1.529   .     S
C211   H217    1.110   .     S
C212   H215    1.111   .     S
C212   H214    1.111   .     S
C212   H213    1.108   .     S
C219   H224    1.105   .     S
C219   C220    1.535   .     S
C219   H225    1.104   .     S
C220   H223    1.104   .     S
C220   H222    1.110   .     S
C220   H221    1.111   .     S
C227   H232    1.083   .     S
C227   H233    1.111   .     S
C227   C228    1.525   .     S
C228   H229    1.109   .     S
C228   H231    1.106   .     S
C228   H230    1.111   .     S
C234   H240    1.113   .     S
C234   C235    1.528   .     S
C234   H239    1.093   .     S
C235   H236    1.111   .     S
C235   H237    1.108   .     S
C235   H238    1.110   .     S
O241   C243    1.286   .     A
O241   Zn247   2.014   .     S
O242   Zn248   1.987   .     S
O242   C243    1.295   .     A
C243   C282    1.436   .     S
O244   Zn247   1.976   .     S
O244   C246    1.306   .     A
O245   C246    1.290   .     A
O245   Zn248   1.952   .     S
C246   C270    1.468   .     S
Zn247  O251    1.952   .     S
Zn247  N286    2.019   .     S
Zn247  O249    1.987   .     S
Zn248  O252    1.976   .     S
Zn248  O250    2.014   .     S
Zn248  N290    2.019   .     S
O249   C253    1.284   .     A
O250   C253    1.288   .     A
O251   C254    1.300   .     A
O252   C254    1.295   .     A
C253   C279    1.416   .     S
C254   C258    1.464   .     S
C255   C269    1.400   .     A
C255   H977    1.084   1_554 S
C255   C985    1.400   1_554 S
H256   C266    1.085   .     S
H257   C975    1.084   .     S
C258   C268    1.397   .     A
C258   C269    1.419   .     A
C259   C260    1.387   .     A
C259   H272    1.083   .     S
C259   C270    1.402   .     A
C260   C981    1.391   .     S
C260   H994    1.081   .     S
C261   H273    1.076   .     S
C261   C980    1.391   1_554 S
C261   C982    1.419   1_554 S
C262   C263    1.408   .     A
C262   C981    1.419   .     S
C262   C984    1.418   .     S
C263   C267    1.429   .     A
C263   C270    1.424   .     A
C264   C268    1.386   .     A
C264   C982    1.418   1_554 S
C264   C985    1.414   1_554 S
C265   C266    1.387   .     A
C265   C984    1.414   .     S
C265   C975    1.400   .     S
C266   C267    1.394   .     A
C267   C314    1.518   .     S
C268   H271    1.072   .     S
C269   C291    1.519   .     S
H274   C980    1.081   1_554 S
C275   C282    1.397   .     A
C275   H276    1.084   .     S
C275   C517    1.366   .     S
C277   H278    1.084   .     S
C277   C279    1.389   .     A
C279   C280    1.404   .     A
C280   Br298   1.948   .     S
C281   C282    1.423   .     A
C281   C299    1.518   .     S
C281   C520    1.391   .     S
C283   H284    1.082   .     S
C283   N290    1.358   .     A
C283   C365    1.415   .     S
C285   N286    1.379   .     A
C285   Br306   1.911   .     S
C285   C443    1.415   1_455 S
N286   C287    1.353   .     A
C287   H288    1.080   .     S
C287   C449    1.418   1_455 S
C289   C307    1.520   .     S
C289   N290    1.393   .     A
C289   C367    1.418   .     S
C291   H296    1.108   .     S
C291   C292    1.529   .     S
C291   H297    1.110   .     S
C292   H295    1.111   .     S
C292   H294    1.111   .     S
C292   H293    1.108   .     S
C299   H304    1.105   .     S
C299   C300    1.535   .     S
C299   H305    1.104   .     S
C300   H303    1.104   .     S
C300   H302    1.110   .     S
C300   H301    1.111   .     S
C307   H312    1.083   .     S
C307   H313    1.111   .     S
C307   C308    1.525   .     S
C308   H309    1.109   .     S
C308   H311    1.106   .     S
C308   H310    1.111   .     S
C314   H320    1.113   .     S
C314   C315    1.528   .     S
C314   H319    1.093   .     S
C315   H316    1.111   .     S
C315   H317    1.108   .     S
C315   H318    1.110   .     S
O321   C323    1.286   .     A
O321   Zn327   2.014   .     S
O322   Zn328   1.987   .     S
O322   C323    1.295   .     A
C323   C362    1.436   .     S
O324   Zn327   1.976   .     S
O324   C326    1.306   .     A
O325   C326    1.290   .     A
O325   Zn328   1.952   .     S
C326   C350    1.468   .     S
Zn327  O331    1.952   .     S
Zn327  N366    2.019   .     S
Zn327  O329    1.987   .     S
Zn328  O332    1.976   .     S
Zn328  O330    2.014   .     S
Zn328  N370    2.019   .     S
O329   C333    1.284   .     A
O330   C333    1.288   .     A
O331   C334    1.300   .     A
O332   C334    1.295   .     A
C333   C359    1.416   .     S
C334   C338    1.464   .     S
C335   C349    1.400   .     A
C335   H1057   1.084   1_554 S
C335   C1065   1.400   1_554 S
H336   C346    1.085   .     S
H337   C1055   1.084   .     S
C338   C348    1.397   .     A
C338   C349    1.419   .     A
C339   C340    1.387   .     A
C339   H352    1.083   .     S
C339   C350    1.402   .     A
C340   C1061   1.391   .     S
C340   H1074   1.081   .     S
C341   H353    1.076   .     S
C341   C1060   1.391   1_554 S
C341   C1062   1.419   1_554 S
C342   C343    1.408   .     A
C342   C1061   1.419   .     S
C342   C1064   1.418   .     S
C343   C347    1.429   .     A
C343   C350    1.424   .     A
C344   C348    1.386   .     A
C344   C1062   1.418   1_554 S
C344   C1065   1.414   1_554 S
C345   C346    1.387   .     A
C345   C1064   1.414   .     S
C345   C1055   1.400   .     S
C346   C347    1.394   .     A
C347   C394    1.518   .     S
C348   H351    1.072   .     S
C349   C371    1.519   .     S
H354   C1060   1.081   1_554 S
C355   C362    1.397   .     A
C355   H356    1.084   .     S
C355   C597    1.366   .     S
C357   H358    1.084   .     S
C357   C359    1.389   .     A
C359   C360    1.404   .     A
C360   Br378   1.948   .     S
C361   C362    1.423   .     A
C361   C379    1.518   .     S
C361   C600    1.391   .     S
C363   H364    1.082   .     S
C363   N370    1.358   .     A
C363   C445    1.415   .     S
C365   N366    1.379   .     A
C365   Br386   1.911   .     S
N366   C367    1.353   .     A
C367   H368    1.080   .     S
C369   C387    1.520   .     S
C369   N370    1.393   .     A
C369   C447    1.418   .     S
C371   H376    1.108   .     S
C371   C372    1.529   .     S
C371   H377    1.110   .     S
C372   H375    1.111   .     S
C372   H374    1.111   .     S
C372   H373    1.108   .     S
C379   H384    1.105   .     S
C379   C380    1.535   .     S
C379   H385    1.104   .     S
C380   H383    1.104   .     S
C380   H382    1.110   .     S
C380   H381    1.111   .     S
C387   H392    1.083   .     S
C387   H393    1.111   .     S
C387   C388    1.525   .     S
C388   H389    1.109   .     S
C388   H391    1.106   .     S
C388   H390    1.111   .     S
C394   H400    1.113   .     S
C394   C395    1.528   .     S
C394   H399    1.093   .     S
C395   H396    1.111   .     S
C395   H397    1.108   .     S
C395   H398    1.110   .     S
O401   C403    1.286   .     A
O401   Zn407   2.014   .     S
O402   Zn408   1.987   .     S
O402   C403    1.295   .     A
C403   C442    1.436   .     S
O404   Zn407   1.976   .     S
O404   C406    1.306   .     A
O405   C406    1.290   .     A
O405   Zn408   1.952   .     S
C406   C430    1.468   .     S
Zn407  O411    1.952   .     S
Zn407  N446    2.019   .     S
Zn407  O409    1.987   .     S
Zn408  O412    1.976   .     S
Zn408  O410    2.014   .     S
Zn408  N450    2.019   .     S
O409   C413    1.284   .     A
O410   C413    1.288   .     A
O411   C414    1.300   .     A
O412   C414    1.295   .     A
C413   C439    1.416   .     S
C414   C418    1.464   .     S
C415   C429    1.400   .     A
C415   H1137   1.084   1_554 S
C415   C1145   1.400   1_554 S
H416   C426    1.085   .     S
H417   C1135   1.084   .     S
C418   C428    1.397   .     A
C418   C429    1.419   .     A
C419   C420    1.387   .     A
C419   H432    1.083   .     S
C419   C430    1.402   .     A
C420   C1141   1.391   .     S
C420   H1154   1.081   .     S
C421   H433    1.076   .     S
C421   C1140   1.391   1_554 S
C421   C1142   1.419   1_554 S
C422   C423    1.408   .     A
C422   C1141   1.419   .     S
C422   C1144   1.418   .     S
C423   C427    1.429   .     A
C423   C430    1.424   .     A
C424   C428    1.386   .     A
C424   C1142   1.418   1_554 S
C424   C1145   1.414   1_554 S
C425   C426    1.387   .     A
C425   C1144   1.414   .     S
C425   C1135   1.400   .     S
C426   C427    1.394   .     A
C427   C474    1.518   .     S
C428   H431    1.072   .     S
C429   C451    1.519   .     S
H434   C1140   1.081   1_554 S
C435   C442    1.397   .     A
C435   H436    1.084   .     S
C435   C677    1.366   .     S
C437   H438    1.084   .     S
C437   C439    1.389   .     A
C439   C440    1.404   .     A
C440   Br458   1.948   .     S
C441   C442    1.423   .     A
C441   C459    1.518   .     S
C441   C680    1.391   .     S
C443   H444    1.082   .     S
C443   N450    1.358   .     A
C443   C285    1.415   1_655 S
C445   N446    1.379   .     A
C445   Br466   1.911   .     S
N446   C447    1.353   .     A
C447   H448    1.080   .     S
C449   C467    1.520   .     S
C449   N450    1.393   .     A
C449   C287    1.418   1_655 S
C451   H456    1.108   .     S
C451   C452    1.529   .     S
C451   H457    1.110   .     S
C452   H455    1.111   .     S
C452   H454    1.111   .     S
C452   H453    1.108   .     S
C459   H464    1.105   .     S
C459   C460    1.535   .     S
C459   H465    1.104   .     S
C460   H463    1.104   .     S
C460   H462    1.110   .     S
C460   H461    1.111   .     S
C467   H472    1.083   .     S
C467   H473    1.111   .     S
C467   C468    1.525   .     S
C468   H469    1.109   .     S
C468   H471    1.106   .     S
C468   H470    1.111   .     S
C474   H480    1.113   .     S
C474   C475    1.528   .     S
C474   H479    1.093   .     S
C475   H476    1.111   .     S
C475   H477    1.108   .     S
C475   H478    1.110   .     S
O481   C483    1.286   .     A
O481   Zn487   2.014   .     S
O482   Zn488   1.987   .     S
O482   C483    1.295   .     A
C483   C522    1.436   .     S
O484   Zn487   1.976   .     S
O484   C486    1.306   .     A
O485   C486    1.290   .     A
O485   Zn488   1.952   .     S
C486   C510    1.468   .     S
Zn487  O491    1.952   .     S
Zn487  N526    2.019   .     S
Zn487  O489    1.987   .     S
Zn488  O492    1.976   .     S
Zn488  O490    2.014   .     S
Zn488  N530    2.019   .     S
O489   C493    1.284   .     A
O490   C493    1.288   .     A
O491   C494    1.300   .     A
O492   C494    1.295   .     A
C493   C519    1.416   .     S
C494   C498    1.464   .     S
C495   C509    1.400   .     A
C495   H1217   1.084   1_554 S
C495   C1225   1.400   1_554 S
H496   C506    1.085   .     S
H497   C1215   1.084   .     S
C498   C508    1.397   .     A
C498   C509    1.419   .     A
C499   C500    1.387   .     A
C499   H512    1.083   .     S
C499   C510    1.402   .     A
C500   C1221   1.391   .     S
C500   H1234   1.081   .     S
C501   H513    1.076   .     S
C501   C1220   1.391   1_554 S
C501   C1222   1.419   1_554 S
C502   C503    1.408   .     A
C502   C1221   1.419   .     S
C502   C1224   1.418   .     S
C503   C507    1.429   .     A
C503   C510    1.424   .     A
C504   C508    1.386   .     A
C504   C1222   1.418   1_554 S
C504   C1225   1.414   1_554 S
C505   C506    1.387   .     A
C505   C1224   1.414   .     S
C505   C1215   1.400   .     S
C506   C507    1.394   .     A
C507   C554    1.518   .     S
C508   H511    1.072   .     S
C509   C531    1.519   .     S
H514   C1220   1.081   1_554 S
C515   C522    1.397   .     A
C515   H516    1.084   .     S
C515   C37     1.366   1_565 S
C517   H518    1.084   .     S
C517   C519    1.389   .     A
C519   C520    1.404   .     A
C520   Br538   1.948   .     S
C521   C522    1.423   .     A
C521   C539    1.518   .     S
C521   C40     1.391   1_565 S
C523   H524    1.082   .     S
C523   N530    1.358   .     A
C523   C605    1.415   .     S
C525   N526    1.379   .     A
C525   Br546   1.911   .     S
C525   C683    1.415   1_455 S
N526   C527    1.353   .     A
C527   H528    1.080   .     S
C527   C689    1.418   1_455 S
C529   C547    1.520   .     S
C529   N530    1.393   .     A
C529   C607    1.418   .     S
C531   H536    1.108   .     S
C531   C532    1.529   .     S
C531   H537    1.110   .     S
C532   H535    1.111   .     S
C532   H534    1.111   .     S
C532   H533    1.108   .     S
C539   H544    1.105   .     S
C539   C540    1.535   .     S
C539   H545    1.104   .     S
C540   H543    1.104   .     S
C540   H542    1.110   .     S
C540   H541    1.111   .     S
C547   H552    1.083   .     S
C547   H553    1.111   .     S
C547   C548    1.525   .     S
C548   H549    1.109   .     S
C548   H551    1.106   .     S
C548   H550    1.111   .     S
C554   H560    1.113   .     S
C554   C555    1.528   .     S
C554   H559    1.093   .     S
C555   H556    1.111   .     S
C555   H557    1.108   .     S
C555   H558    1.110   .     S
O561   C563    1.286   .     A
O561   Zn567   2.014   .     S
O562   Zn568   1.987   .     S
O562   C563    1.295   .     A
C563   C602    1.436   .     S
O564   Zn567   1.976   .     S
O564   C566    1.306   .     A
O565   C566    1.290   .     A
O565   Zn568   1.952   .     S
C566   C590    1.468   .     S
Zn567  O571    1.952   .     S
Zn567  N606    2.019   .     S
Zn567  O569    1.987   .     S
Zn568  O572    1.976   .     S
Zn568  O570    2.014   .     S
Zn568  N610    2.019   .     S
O569   C573    1.284   .     A
O570   C573    1.288   .     A
O571   C574    1.300   .     A
O572   C574    1.295   .     A
C573   C599    1.416   .     S
C574   C578    1.464   .     S
C575   C589    1.400   .     A
C575   H1297   1.084   1_554 S
C575   C1305   1.400   1_554 S
H576   C586    1.085   .     S
H577   C1295   1.084   .     S
C578   C588    1.397   .     A
C578   C589    1.419   .     A
C579   C580    1.387   .     A
C579   H592    1.083   .     S
C579   C590    1.402   .     A
C580   C1301   1.391   .     S
C580   H1314   1.081   .     S
C581   H593    1.076   .     S
C581   C1300   1.391   1_554 S
C581   C1302   1.419   1_554 S
C582   C583    1.408   .     A
C582   C1301   1.419   .     S
C582   C1304   1.418   .     S
C583   C587    1.429   .     A
C583   C590    1.424   .     A
C584   C588    1.386   .     A
C584   C1302   1.418   1_554 S
C584   C1305   1.414   1_554 S
C585   C586    1.387   .     A
C585   C1304   1.414   .     S
C585   C1295   1.400   .     S
C586   C587    1.394   .     A
C587   C634    1.518   .     S
C588   H591    1.072   .     S
C589   C611    1.519   .     S
H594   C1300   1.081   1_554 S
C595   C602    1.397   .     A
C595   H596    1.084   .     S
C595   C117    1.366   1_565 S
C597   H598    1.084   .     S
C597   C599    1.389   .     A
C599   C600    1.404   .     A
C600   Br618   1.948   .     S
C601   C602    1.423   .     A
C601   C619    1.518   .     S
C601   C120    1.391   1_565 S
C603   H604    1.082   .     S
C603   N610    1.358   .     A
C603   C685    1.415   .     S
C605   N606    1.379   .     A
C605   Br626   1.911   .     S
N606   C607    1.353   .     A
C607   H608    1.080   .     S
C609   C627    1.520   .     S
C609   N610    1.393   .     A
C609   C687    1.418   .     S
C611   H616    1.108   .     S
C611   C612    1.529   .     S
C611   H617    1.110   .     S
C612   H615    1.111   .     S
C612   H614    1.111   .     S
C612   H613    1.108   .     S
C619   H624    1.105   .     S
C619   C620    1.535   .     S
C619   H625    1.104   .     S
C620   H623    1.104   .     S
C620   H622    1.110   .     S
C620   H621    1.111   .     S
C627   H632    1.083   .     S
C627   H633    1.111   .     S
C627   C628    1.525   .     S
C628   H629    1.109   .     S
C628   H631    1.106   .     S
C628   H630    1.111   .     S
C634   H640    1.113   .     S
C634   C635    1.528   .     S
C634   H639    1.093   .     S
C635   H636    1.111   .     S
C635   H637    1.108   .     S
C635   H638    1.110   .     S
O641   C643    1.286   .     A
O641   Zn647   2.014   .     S
O642   Zn648   1.987   .     S
O642   C643    1.295   .     A
C643   C682    1.436   .     S
O644   Zn647   1.976   .     S
O644   C646    1.306   .     A
O645   C646    1.290   .     A
O645   Zn648   1.952   .     S
C646   C670    1.468   .     S
Zn647  O651    1.952   .     S
Zn647  N686    2.019   .     S
Zn647  O649    1.987   .     S
Zn648  O652    1.976   .     S
Zn648  O650    2.014   .     S
Zn648  N690    2.019   .     S
O649   C653    1.284   .     A
O650   C653    1.288   .     A
O651   C654    1.300   .     A
O652   C654    1.295   .     A
C653   C679    1.416   .     S
C654   C658    1.464   .     S
C655   C669    1.400   .     A
C655   H1377   1.084   1_554 S
C655   C1385   1.400   1_554 S
H656   C666    1.085   .     S
H657   C1375   1.084   .     S
C658   C668    1.397   .     A
C658   C669    1.419   .     A
C659   C660    1.387   .     A
C659   H672    1.083   .     S
C659   C670    1.402   .     A
C660   C1381   1.391   .     S
C660   H1394   1.081   .     S
C661   H673    1.076   .     S
C661   C1380   1.391   1_554 S
C661   C1382   1.419   1_554 S
C662   C663    1.408   .     A
C662   C1381   1.419   .     S
C662   C1384   1.418   .     S
C663   C667    1.429   .     A
C663   C670    1.424   .     A
C664   C668    1.386   .     A
C664   C1382   1.418   1_554 S
C664   C1385   1.414   1_554 S
C665   C666    1.387   .     A
C665   C1384   1.414   .     S
C665   C1375   1.400   .     S
C666   C667    1.394   .     A
C667   C714    1.518   .     S
C668   H671    1.072   .     S
C669   C691    1.519   .     S
H674   C1380   1.081   1_554 S
C675   C682    1.397   .     A
C675   H676    1.084   .     S
C675   C197    1.366   1_565 S
C677   H678    1.084   .     S
C677   C679    1.389   .     A
C679   C680    1.404   .     A
C680   Br698   1.948   .     S
C681   C682    1.423   .     A
C681   C699    1.518   .     S
C681   C200    1.391   1_565 S
C683   H684    1.082   .     S
C683   N690    1.358   .     A
C683   C525    1.415   1_655 S
C685   N686    1.379   .     A
C685   Br706   1.911   .     S
N686   C687    1.353   .     A
C687   H688    1.080   .     S
C689   C707    1.520   .     S
C689   N690    1.393   .     A
C689   C527    1.418   1_655 S
C691   H696    1.108   .     S
C691   C692    1.529   .     S
C691   H697    1.110   .     S
C692   H695    1.111   .     S
C692   H694    1.111   .     S
C692   H693    1.108   .     S
C699   H704    1.105   .     S
C699   C700    1.535   .     S
C699   H705    1.104   .     S
C700   H703    1.104   .     S
C700   H702    1.110   .     S
C700   H701    1.111   .     S
C707   H712    1.083   .     S
C707   H713    1.111   .     S
C707   C708    1.525   .     S
C708   H709    1.109   .     S
C708   H711    1.106   .     S
C708   H710    1.111   .     S
C714   H720    1.113   .     S
C714   C715    1.528   .     S
C714   H719    1.093   .     S
C715   H716    1.111   .     S
C715   H717    1.108   .     S
C715   H718    1.110   .     S
O721   C723    1.286   .     A
O721   Zn727   2.014   .     S
O722   Zn728   1.987   .     S
O722   C723    1.295   .     A
C723   C762    1.436   .     S
O724   Zn727   1.976   .     S
O724   C726    1.306   .     A
O725   C726    1.290   .     A
O725   Zn728   1.952   .     S
C726   C750    1.468   .     S
Zn727  O731    1.952   .     S
Zn727  N766    2.019   .     S
Zn727  O729    1.987   .     S
Zn728  O732    1.976   .     S
Zn728  O730    2.014   .     S
Zn728  N770    2.019   .     S
O729   C733    1.284   .     A
O730   C733    1.288   .     A
O731   C734    1.300   .     A
O732   C734    1.295   .     A
C733   C759    1.416   .     S
C734   C738    1.464   .     S
C735   C749    1.400   .     A
H736   C746    1.085   .     S
H737   C15     1.084   1_556 S
C738   C748    1.397   .     A
C738   C749    1.419   .     A
C739   C740    1.387   .     A
C739   H752    1.083   .     S
C739   C750    1.402   .     A
C740   C21     1.391   1_556 S
C740   H34     1.081   1_556 S
C741   H753    1.076   .     S
C742   C743    1.408   .     A
C742   C21     1.419   1_556 S
C742   C24     1.418   1_556 S
C743   C747    1.429   .     A
C743   C750    1.424   .     A
C744   C748    1.386   .     A
C745   C746    1.387   .     A
C745   C24     1.414   1_556 S
C745   C15     1.400   1_556 S
C746   C747    1.394   .     A
C747   C794    1.518   .     S
C748   H751    1.072   .     S
C749   C771    1.519   .     S
C755   C762    1.397   .     A
C755   H756    1.084   .     S
C755   C997    1.366   .     S
C757   H758    1.084   .     S
C757   C759    1.389   .     A
C757   C1235   1.366   1_545 S
C759   C760    1.404   .     A
C760   Br778   1.948   .     S
C760   C1241   1.391   1_545 S
C761   C762    1.423   .     A
C761   C779    1.518   .     S
C761   C1000   1.391   .     S
C763   H764    1.082   .     S
C763   N770    1.358   .     A
C763   C845    1.415   .     S
C765   N766    1.379   .     A
C765   Br786   1.911   .     S
C765   C923    1.415   1_455 S
N766   C767    1.353   .     A
C767   H768    1.080   .     S
C767   C929    1.418   1_455 S
C769   C787    1.520   .     S
C769   N770    1.393   .     A
C769   C847    1.418   .     S
C771   H776    1.108   .     S
C771   C772    1.529   .     S
C771   H777    1.110   .     S
C772   H775    1.111   .     S
C772   H774    1.111   .     S
C772   H773    1.108   .     S
C779   H784    1.105   .     S
C779   C780    1.535   .     S
C779   H785    1.104   .     S
C780   H783    1.104   .     S
C780   H782    1.110   .     S
C780   H781    1.111   .     S
C787   H792    1.083   .     S
C787   H793    1.111   .     S
C787   C788    1.525   .     S
C788   H789    1.109   .     S
C788   H791    1.106   .     S
C788   H790    1.111   .     S
C794   H800    1.113   .     S
C794   C795    1.528   .     S
C794   H799    1.093   .     S
C795   H796    1.111   .     S
C795   H797    1.108   .     S
C795   H798    1.110   .     S
O801   C803    1.286   .     A
O801   Zn807   2.014   .     S
O802   Zn808   1.987   .     S
O802   C803    1.295   .     A
C803   C842    1.436   .     S
O804   Zn807   1.976   .     S
O804   C806    1.306   .     A
O805   C806    1.290   .     A
O805   Zn808   1.952   .     S
C806   C830    1.468   .     S
Zn807  O811    1.952   .     S
Zn807  N846    2.019   .     S
Zn807  O809    1.987   .     S
Zn808  O812    1.976   .     S
Zn808  O810    2.014   .     S
Zn808  N850    2.019   .     S
O809   C813    1.284   .     A
O810   C813    1.288   .     A
O811   C814    1.300   .     A
O812   C814    1.295   .     A
C813   C839    1.416   .     S
C814   C818    1.464   .     S
C815   C829    1.400   .     A
H816   C826    1.085   .     S
H817   C95     1.084   1_556 S
C818   C828    1.397   .     A
C818   C829    1.419   .     A
C819   C820    1.387   .     A
C819   H832    1.083   .     S
C819   C830    1.402   .     A
C820   C101    1.391   1_556 S
C820   H114    1.081   1_556 S
C821   H833    1.076   .     S
C822   C823    1.408   .     A
C822   C101    1.419   1_556 S
C822   C104    1.418   1_556 S
C823   C827    1.429   .     A
C823   C830    1.424   .     A
C824   C828    1.386   .     A
C825   C826    1.387   .     A
C825   C104    1.414   1_556 S
C825   C95     1.400   1_556 S
C826   C827    1.394   .     A
C827   C874    1.518   .     S
C828   H831    1.072   .     S
C829   C851    1.519   .     S
C835   C842    1.397   .     A
C835   H836    1.084   .     S
C835   C1077   1.366   .     S
C837   H838    1.084   .     S
C837   C839    1.389   .     A
C837   C1315   1.366   1_545 S
C839   C840    1.404   .     A
C840   Br858   1.948   .     S
C840   C1321   1.391   1_545 S
C841   C842    1.423   .     A
C841   C859    1.518   .     S
C841   C1080   1.391   .     S
C843   H844    1.082   .     S
C843   N850    1.358   .     A
C843   C925    1.415   .     S
C845   N846    1.379   .     A
C845   Br866   1.911   .     S
N846   C847    1.353   .     A
C847   H848    1.080   .     S
C849   C867    1.520   .     S
C849   N850    1.393   .     A
C849   C927    1.418   .     S
C851   H856    1.108   .     S
C851   C852    1.529   .     S
C851   H857    1.110   .     S
C852   H855    1.111   .     S
C852   H854    1.111   .     S
C852   H853    1.108   .     S
C859   H864    1.105   .     S
C859   C860    1.535   .     S
C859   H865    1.104   .     S
C860   H863    1.104   .     S
C860   H862    1.110   .     S
C860   H861    1.111   .     S
C867   H872    1.083   .     S
C867   H873    1.111   .     S
C867   C868    1.525   .     S
C868   H869    1.109   .     S
C868   H871    1.106   .     S
C868   H870    1.111   .     S
C874   H880    1.113   .     S
C874   C875    1.528   .     S
C874   H879    1.093   .     S
C875   H876    1.111   .     S
C875   H877    1.108   .     S
C875   H878    1.110   .     S
O881   C883    1.286   .     A
O881   Zn887   2.014   .     S
O882   Zn888   1.987   .     S
O882   C883    1.295   .     A
C883   C922    1.436   .     S
O884   Zn887   1.976   .     S
O884   C886    1.306   .     A
O885   C886    1.290   .     A
O885   Zn888   1.952   .     S
C886   C910    1.468   .     S
Zn887  O891    1.952   .     S
Zn887  N926    2.019   .     S
Zn887  O889    1.987   .     S
Zn888  O892    1.976   .     S
Zn888  O890    2.014   .     S
Zn888  N930    2.019   .     S
O889   C893    1.284   .     A
O890   C893    1.288   .     A
O891   C894    1.300   .     A
O892   C894    1.295   .     A
C893   C919    1.416   .     S
C894   C898    1.464   .     S
C895   C909    1.400   .     A
H896   C906    1.085   .     S
H897   C175    1.084   1_556 S
C898   C908    1.397   .     A
C898   C909    1.419   .     A
C899   C900    1.387   .     A
C899   H912    1.083   .     S
C899   C910    1.402   .     A
C900   C181    1.391   1_556 S
C900   H194    1.081   1_556 S
C901   H913    1.076   .     S
C902   C903    1.408   .     A
C902   C181    1.419   1_556 S
C902   C184    1.418   1_556 S
C903   C907    1.429   .     A
C903   C910    1.424   .     A
C904   C908    1.386   .     A
C905   C906    1.387   .     A
C905   C184    1.414   1_556 S
C905   C175    1.400   1_556 S
C906   C907    1.394   .     A
C907   C954    1.518   .     S
C908   H911    1.072   .     S
C909   C931    1.519   .     S
C915   C922    1.397   .     A
C915   H916    1.084   .     S
C915   C1157   1.366   .     S
C917   H918    1.084   .     S
C917   C919    1.389   .     A
C917   C1395   1.366   1_545 S
C919   C920    1.404   .     A
C920   Br938   1.948   .     S
C920   C1401   1.391   1_545 S
C921   C922    1.423   .     A
C921   C939    1.518   .     S
C921   C1160   1.391   .     S
C923   H924    1.082   .     S
C923   N930    1.358   .     A
C923   C765    1.415   1_655 S
C925   N926    1.379   .     A
C925   Br946   1.911   .     S
N926   C927    1.353   .     A
C927   H928    1.080   .     S
C929   C947    1.520   .     S
C929   N930    1.393   .     A
C929   C767    1.418   1_655 S
C931   H936    1.108   .     S
C931   C932    1.529   .     S
C931   H937    1.110   .     S
C932   H935    1.111   .     S
C932   H934    1.111   .     S
C932   H933    1.108   .     S
C939   H944    1.105   .     S
C939   C940    1.535   .     S
C939   H945    1.104   .     S
C940   H943    1.104   .     S
C940   H942    1.110   .     S
C940   H941    1.111   .     S
C947   H952    1.083   .     S
C947   H953    1.111   .     S
C947   C948    1.525   .     S
C948   H949    1.109   .     S
C948   H951    1.106   .     S
C948   H950    1.111   .     S
C954   H960    1.113   .     S
C954   C955    1.528   .     S
C954   H959    1.093   .     S
C955   H956    1.111   .     S
C955   H957    1.108   .     S
C955   H958    1.110   .     S
O961   C963    1.286   .     A
O961   Zn967   2.014   .     S
O962   Zn968   1.987   .     S
O962   C963    1.295   .     A
C963   C1002   1.436   .     S
O964   Zn967   1.976   .     S
O964   C966    1.306   .     A
O965   C966    1.290   .     A
O965   Zn968   1.952   .     S
C966   C990    1.468   .     S
Zn967  O971    1.952   .     S
Zn967  N1006   2.019   .     S
Zn967  O969    1.987   .     S
Zn968  O972    1.976   .     S
Zn968  O970    2.014   .     S
Zn968  N1010   2.019   .     S
O969   C973    1.284   .     A
O970   C973    1.288   .     A
O971   C974    1.300   .     A
O972   C974    1.295   .     A
C973   C999    1.416   .     S
C974   C978    1.464   .     S
C975   C989    1.400   .     A
H976   C986    1.085   .     S
H977   C255    1.084   1_556 S
C978   C988    1.397   .     A
C978   C989    1.419   .     A
C979   C980    1.387   .     A
C979   H992    1.083   .     S
C979   C990    1.402   .     A
C980   C261    1.391   1_556 S
C980   H274    1.081   1_556 S
C981   H993    1.076   .     S
C982   C983    1.408   .     A
C982   C261    1.419   1_556 S
C982   C264    1.418   1_556 S
C983   C987    1.429   .     A
C983   C990    1.424   .     A
C984   C988    1.386   .     A
C985   C986    1.387   .     A
C985   C264    1.414   1_556 S
C985   C255    1.400   1_556 S
C986   C987    1.394   .     A
C987   C1034   1.518   .     S
C988   H991    1.072   .     S
C989   C1011   1.519   .     S
C995   C1002   1.397   .     A
C995   H996    1.084   .     S
C995   C1237   1.366   .     S
C997   H998    1.084   .     S
C997   C999    1.389   .     A
C999   C1000   1.404   .     A
C1000  Br1018  1.948   .     S
C1001  C1002   1.423   .     A
C1001  C1019   1.518   .     S
C1001  C1240   1.391   .     S
C1003  H1004   1.082   .     S
C1003  N1010   1.358   .     A
C1003  C1085   1.415   .     S
C1005  N1006   1.379   .     A
C1005  Br1026  1.911   .     S
C1005  C1163   1.415   1_455 S
N1006  C1007   1.353   .     A
C1007  H1008   1.080   .     S
C1007  C1169   1.418   1_455 S
C1009  C1027   1.520   .     S
C1009  N1010   1.393   .     A
C1009  C1087   1.418   .     S
C1011  H1016   1.108   .     S
C1011  C1012   1.529   .     S
C1011  H1017   1.110   .     S
C1012  H1015   1.111   .     S
C1012  H1014   1.111   .     S
C1012  H1013   1.108   .     S
C1019  H1024   1.105   .     S
C1019  C1020   1.535   .     S
C1019  H1025   1.104   .     S
C1020  H1023   1.104   .     S
C1020  H1022   1.110   .     S
C1020  H1021   1.111   .     S
C1027  H1032   1.083   .     S
C1027  H1033   1.111   .     S
C1027  C1028   1.525   .     S
C1028  H1029   1.109   .     S
C1028  H1031   1.106   .     S
C1028  H1030   1.111   .     S
C1034  H1040   1.113   .     S
C1034  C1035   1.528   .     S
C1034  H1039   1.093   .     S
C1035  H1036   1.111   .     S
C1035  H1037   1.108   .     S
C1035  H1038   1.110   .     S
O1041  C1043   1.286   .     A
O1041  Zn1047  2.014   .     S
O1042  Zn1048  1.987   .     S
O1042  C1043   1.295   .     A
C1043  C1082   1.436   .     S
O1044  Zn1047  1.976   .     S
O1044  C1046   1.306   .     A
O1045  C1046   1.290   .     A
O1045  Zn1048  1.952   .     S
C1046  C1070   1.468   .     S
Zn1047 O1051   1.952   .     S
Zn1047 N1086   2.019   .     S
Zn1047 O1049   1.987   .     S
Zn1048 O1052   1.976   .     S
Zn1048 O1050   2.014   .     S
Zn1048 N1090   2.019   .     S
O1049  C1053   1.284   .     A
O1050  C1053   1.288   .     A
O1051  C1054   1.300   .     A
O1052  C1054   1.295   .     A
C1053  C1079   1.416   .     S
C1054  C1058   1.464   .     S
C1055  C1069   1.400   .     A
H1056  C1066   1.085   .     S
H1057  C335    1.084   1_556 S
C1058  C1068   1.397   .     A
C1058  C1069   1.419   .     A
C1059  C1060   1.387   .     A
C1059  H1072   1.083   .     S
C1059  C1070   1.402   .     A
C1060  C341    1.391   1_556 S
C1060  H354    1.081   1_556 S
C1061  H1073   1.076   .     S
C1062  C1063   1.408   .     A
C1062  C341    1.419   1_556 S
C1062  C344    1.418   1_556 S
C1063  C1067   1.429   .     A
C1063  C1070   1.424   .     A
C1064  C1068   1.386   .     A
C1065  C1066   1.387   .     A
C1065  C344    1.414   1_556 S
C1065  C335    1.400   1_556 S
C1066  C1067   1.394   .     A
C1067  C1114   1.518   .     S
C1068  H1071   1.072   .     S
C1069  C1091   1.519   .     S
C1075  C1082   1.397   .     A
C1075  H1076   1.084   .     S
C1075  C1317   1.366   .     S
C1077  H1078   1.084   .     S
C1077  C1079   1.389   .     A
C1079  C1080   1.404   .     A
C1080  Br1098  1.948   .     S
C1081  C1082   1.423   .     A
C1081  C1099   1.518   .     S
C1081  C1320   1.391   .     S
C1083  H1084   1.082   .     S
C1083  N1090   1.358   .     A
C1083  C1165   1.415   .     S
C1085  N1086   1.379   .     A
C1085  Br1106  1.911   .     S
N1086  C1087   1.353   .     A
C1087  H1088   1.080   .     S
C1089  C1107   1.520   .     S
C1089  N1090   1.393   .     A
C1089  C1167   1.418   .     S
C1091  H1096   1.108   .     S
C1091  C1092   1.529   .     S
C1091  H1097   1.110   .     S
C1092  H1095   1.111   .     S
C1092  H1094   1.111   .     S
C1092  H1093   1.108   .     S
C1099  H1104   1.105   .     S
C1099  C1100   1.535   .     S
C1099  H1105   1.104   .     S
C1100  H1103   1.104   .     S
C1100  H1102   1.110   .     S
C1100  H1101   1.111   .     S
C1107  H1112   1.083   .     S
C1107  H1113   1.111   .     S
C1107  C1108   1.525   .     S
C1108  H1109   1.109   .     S
C1108  H1111   1.106   .     S
C1108  H1110   1.111   .     S
C1114  H1120   1.113   .     S
C1114  C1115   1.528   .     S
C1114  H1119   1.093   .     S
C1115  H1116   1.111   .     S
C1115  H1117   1.108   .     S
C1115  H1118   1.110   .     S
O1121  C1123   1.286   .     A
O1121  Zn1127  2.014   .     S
O1122  Zn1128  1.987   .     S
O1122  C1123   1.295   .     A
C1123  C1162   1.436   .     S
O1124  Zn1127  1.976   .     S
O1124  C1126   1.306   .     A
O1125  C1126   1.290   .     A
O1125  Zn1128  1.952   .     S
C1126  C1150   1.468   .     S
Zn1127 O1131   1.952   .     S
Zn1127 N1166   2.019   .     S
Zn1127 O1129   1.987   .     S
Zn1128 O1132   1.976   .     S
Zn1128 O1130   2.014   .     S
Zn1128 N1170   2.019   .     S
O1129  C1133   1.284   .     A
O1130  C1133   1.288   .     A
O1131  C1134   1.300   .     A
O1132  C1134   1.295   .     A
C1133  C1159   1.416   .     S
C1134  C1138   1.464   .     S
C1135  C1149   1.400   .     A
H1136  C1146   1.085   .     S
H1137  C415    1.084   1_556 S
C1138  C1148   1.397   .     A
C1138  C1149   1.419   .     A
C1139  C1140   1.387   .     A
C1139  H1152   1.083   .     S
C1139  C1150   1.402   .     A
C1140  C421    1.391   1_556 S
C1140  H434    1.081   1_556 S
C1141  H1153   1.076   .     S
C1142  C1143   1.408   .     A
C1142  C421    1.419   1_556 S
C1142  C424    1.418   1_556 S
C1143  C1147   1.429   .     A
C1143  C1150   1.424   .     A
C1144  C1148   1.386   .     A
C1145  C1146   1.387   .     A
C1145  C424    1.414   1_556 S
C1145  C415    1.400   1_556 S
C1146  C1147   1.394   .     A
C1147  C1194   1.518   .     S
C1148  H1151   1.072   .     S
C1149  C1171   1.519   .     S
C1155  C1162   1.397   .     A
C1155  H1156   1.084   .     S
C1155  C1397   1.366   .     S
C1157  H1158   1.084   .     S
C1157  C1159   1.389   .     A
C1159  C1160   1.404   .     A
C1160  Br1178  1.948   .     S
C1161  C1162   1.423   .     A
C1161  C1179   1.518   .     S
C1161  C1400   1.391   .     S
C1163  H1164   1.082   .     S
C1163  N1170   1.358   .     A
C1163  C1005   1.415   1_655 S
C1165  N1166   1.379   .     A
C1165  Br1186  1.911   .     S
N1166  C1167   1.353   .     A
C1167  H1168   1.080   .     S
C1169  C1187   1.520   .     S
C1169  N1170   1.393   .     A
C1169  C1007   1.418   1_655 S
C1171  H1176   1.108   .     S
C1171  C1172   1.529   .     S
C1171  H1177   1.110   .     S
C1172  H1175   1.111   .     S
C1172  H1174   1.111   .     S
C1172  H1173   1.108   .     S
C1179  H1184   1.105   .     S
C1179  C1180   1.535   .     S
C1179  H1185   1.104   .     S
C1180  H1183   1.104   .     S
C1180  H1182   1.110   .     S
C1180  H1181   1.111   .     S
C1187  H1192   1.083   .     S
C1187  H1193   1.111   .     S
C1187  C1188   1.525   .     S
C1188  H1189   1.109   .     S
C1188  H1191   1.106   .     S
C1188  H1190   1.111   .     S
C1194  H1200   1.113   .     S
C1194  C1195   1.528   .     S
C1194  H1199   1.093   .     S
C1195  H1196   1.111   .     S
C1195  H1197   1.108   .     S
C1195  H1198   1.110   .     S
O1201  C1203   1.286   .     A
O1201  Zn1207  2.014   .     S
O1202  Zn1208  1.987   .     S
O1202  C1203   1.295   .     A
C1203  C1242   1.436   .     S
O1204  Zn1207  1.976   .     S
O1204  C1206   1.306   .     A
O1205  C1206   1.290   .     A
O1205  Zn1208  1.952   .     S
C1206  C1230   1.468   .     S
Zn1207 O1211   1.952   .     S
Zn1207 N1246   2.019   .     S
Zn1207 O1209   1.987   .     S
Zn1208 O1212   1.976   .     S
Zn1208 O1210   2.014   .     S
Zn1208 N1250   2.019   .     S
O1209  C1213   1.284   .     A
O1210  C1213   1.288   .     A
O1211  C1214   1.300   .     A
O1212  C1214   1.295   .     A
C1213  C1239   1.416   .     S
C1214  C1218   1.464   .     S
C1215  C1229   1.400   .     A
H1216  C1226   1.085   .     S
H1217  C495    1.084   1_556 S
C1218  C1228   1.397   .     A
C1218  C1229   1.419   .     A
C1219  C1220   1.387   .     A
C1219  H1232   1.083   .     S
C1219  C1230   1.402   .     A
C1220  C501    1.391   1_556 S
C1220  H514    1.081   1_556 S
C1221  H1233   1.076   .     S
C1222  C1223   1.408   .     A
C1222  C501    1.419   1_556 S
C1222  C504    1.418   1_556 S
C1223  C1227   1.429   .     A
C1223  C1230   1.424   .     A
C1224  C1228   1.386   .     A
C1225  C1226   1.387   .     A
C1225  C504    1.414   1_556 S
C1225  C495    1.400   1_556 S
C1226  C1227   1.394   .     A
C1227  C1274   1.518   .     S
C1228  H1231   1.072   .     S
C1229  C1251   1.519   .     S
C1235  C1242   1.397   .     A
C1235  H1236   1.084   .     S
C1235  C757    1.366   1_565 S
C1237  H1238   1.084   .     S
C1237  C1239   1.389   .     A
C1239  C1240   1.404   .     A
C1240  Br1258  1.948   .     S
C1241  C1242   1.423   .     A
C1241  C1259   1.518   .     S
C1241  C760    1.391   1_565 S
C1243  H1244   1.082   .     S
C1243  N1250   1.358   .     A
C1243  C1325   1.415   .     S
C1245  N1246   1.379   .     A
C1245  Br1266  1.911   .     S
C1245  C1403   1.415   1_455 S
N1246  C1247   1.353   .     A
C1247  H1248   1.080   .     S
C1247  C1409   1.418   1_455 S
C1249  C1267   1.520   .     S
C1249  N1250   1.393   .     A
C1249  C1327   1.418   .     S
C1251  H1256   1.108   .     S
C1251  C1252   1.529   .     S
C1251  H1257   1.110   .     S
C1252  H1255   1.111   .     S
C1252  H1254   1.111   .     S
C1252  H1253   1.108   .     S
C1259  H1264   1.105   .     S
C1259  C1260   1.535   .     S
C1259  H1265   1.104   .     S
C1260  H1263   1.104   .     S
C1260  H1262   1.110   .     S
C1260  H1261   1.111   .     S
C1267  H1272   1.083   .     S
C1267  H1273   1.111   .     S
C1267  C1268   1.525   .     S
C1268  H1269   1.109   .     S
C1268  H1271   1.106   .     S
C1268  H1270   1.111   .     S
C1274  H1280   1.113   .     S
C1274  C1275   1.528   .     S
C1274  H1279   1.093   .     S
C1275  H1276   1.111   .     S
C1275  H1277   1.108   .     S
C1275  H1278   1.110   .     S
O1281  C1283   1.286   .     A
O1281  Zn1287  2.014   .     S
O1282  Zn1288  1.987   .     S
O1282  C1283   1.295   .     A
C1283  C1322   1.436   .     S
O1284  Zn1287  1.976   .     S
O1284  C1286   1.306   .     A
O1285  C1286   1.290   .     A
O1285  Zn1288  1.952   .     S
C1286  C1310   1.468   .     S
Zn1287 O1291   1.952   .     S
Zn1287 N1326   2.019   .     S
Zn1287 O1289   1.987   .     S
Zn1288 O1292   1.976   .     S
Zn1288 O1290   2.014   .     S
Zn1288 N1330   2.019   .     S
O1289  C1293   1.284   .     A
O1290  C1293   1.288   .     A
O1291  C1294   1.300   .     A
O1292  C1294   1.295   .     A
C1293  C1319   1.416   .     S
C1294  C1298   1.464   .     S
C1295  C1309   1.400   .     A
H1296  C1306   1.085   .     S
H1297  C575    1.084   1_556 S
C1298  C1308   1.397   .     A
C1298  C1309   1.419   .     A
C1299  C1300   1.387   .     A
C1299  H1312   1.083   .     S
C1299  C1310   1.402   .     A
C1300  C581    1.391   1_556 S
C1300  H594    1.081   1_556 S
C1301  H1313   1.076   .     S
C1302  C1303   1.408   .     A
C1302  C581    1.419   1_556 S
C1302  C584    1.418   1_556 S
C1303  C1307   1.429   .     A
C1303  C1310   1.424   .     A
C1304  C1308   1.386   .     A
C1305  C1306   1.387   .     A
C1305  C584    1.414   1_556 S
C1305  C575    1.400   1_556 S
C1306  C1307   1.394   .     A
C1307  C1354   1.518   .     S
C1308  H1311   1.072   .     S
C1309  C1331   1.519   .     S
C1315  C1322   1.397   .     A
C1315  H1316   1.084   .     S
C1315  C837    1.366   1_565 S
C1317  H1318   1.084   .     S
C1317  C1319   1.389   .     A
C1319  C1320   1.404   .     A
C1320  Br1338  1.948   .     S
C1321  C1322   1.423   .     A
C1321  C1339   1.518   .     S
C1321  C840    1.391   1_565 S
C1323  H1324   1.082   .     S
C1323  N1330   1.358   .     A
C1323  C1405   1.415   .     S
C1325  N1326   1.379   .     A
C1325  Br1346  1.911   .     S
N1326  C1327   1.353   .     A
C1327  H1328   1.080   .     S
C1329  C1347   1.520   .     S
C1329  N1330   1.393   .     A
C1329  C1407   1.418   .     S
C1331  H1336   1.108   .     S
C1331  C1332   1.529   .     S
C1331  H1337   1.110   .     S
C1332  H1335   1.111   .     S
C1332  H1334   1.111   .     S
C1332  H1333   1.108   .     S
C1339  H1344   1.105   .     S
C1339  C1340   1.535   .     S
C1339  H1345   1.104   .     S
C1340  H1343   1.104   .     S
C1340  H1342   1.110   .     S
C1340  H1341   1.111   .     S
C1347  H1352   1.083   .     S
C1347  H1353   1.111   .     S
C1347  C1348   1.525   .     S
C1348  H1349   1.109   .     S
C1348  H1351   1.106   .     S
C1348  H1350   1.111   .     S
C1354  H1360   1.113   .     S
C1354  C1355   1.528   .     S
C1354  H1359   1.093   .     S
C1355  H1356   1.111   .     S
C1355  H1357   1.108   .     S
C1355  H1358   1.110   .     S
O1361  C1363   1.286   .     A
O1361  Zn1367  2.014   .     S
O1362  Zn1368  1.987   .     S
O1362  C1363   1.295   .     A
C1363  C1402   1.436   .     S
O1364  Zn1367  1.976   .     S
O1364  C1366   1.306   .     A
O1365  C1366   1.290   .     A
O1365  Zn1368  1.952   .     S
C1366  C1390   1.468   .     S
Zn1367 O1371   1.952   .     S
Zn1367 N1406   2.019   .     S
Zn1367 O1369   1.987   .     S
Zn1368 O1372   1.976   .     S
Zn1368 O1370   2.014   .     S
Zn1368 N1410   2.019   .     S
O1369  C1373   1.284   .     A
O1370  C1373   1.288   .     A
O1371  C1374   1.300   .     A
O1372  C1374   1.295   .     A
C1373  C1399   1.416   .     S
C1374  C1378   1.464   .     S
C1375  C1389   1.400   .     A
H1376  C1386   1.085   .     S
H1377  C655    1.084   1_556 S
C1378  C1388   1.397   .     A
C1378  C1389   1.419   .     A
C1379  C1380   1.387   .     A
C1379  H1392   1.083   .     S
C1379  C1390   1.402   .     A
C1380  C661    1.391   1_556 S
C1380  H674    1.081   1_556 S
C1381  H1393   1.076   .     S
C1382  C1383   1.408   .     A
C1382  C661    1.419   1_556 S
C1382  C664    1.418   1_556 S
C1383  C1387   1.429   .     A
C1383  C1390   1.424   .     A
C1384  C1388   1.386   .     A
C1385  C1386   1.387   .     A
C1385  C664    1.414   1_556 S
C1385  C655    1.400   1_556 S
C1386  C1387   1.394   .     A
C1387  C1434   1.518   .     S
C1388  H1391   1.072   .     S
C1389  C1411   1.519   .     S
C1395  C1402   1.397   .     A
C1395  H1396   1.084   .     S
C1395  C917    1.366   1_565 S
C1397  H1398   1.084   .     S
C1397  C1399   1.389   .     A
C1399  C1400   1.404   .     A
C1400  Br1418  1.948   .     S
C1401  C1402   1.423   .     A
C1401  C1419   1.518   .     S
C1401  C920    1.391   1_565 S
C1403  H1404   1.082   .     S
C1403  N1410   1.358   .     A
C1403  C1245   1.415   1_655 S
C1405  N1406   1.379   .     A
C1405  Br1426  1.911   .     S
N1406  C1407   1.353   .     A
C1407  H1408   1.080   .     S
C1409  C1427   1.520   .     S
C1409  N1410   1.393   .     A
C1409  C1247   1.418   1_655 S
C1411  H1416   1.108   .     S
C1411  C1412   1.529   .     S
C1411  H1417   1.110   .     S
C1412  H1415   1.111   .     S
C1412  H1414   1.111   .     S
C1412  H1413   1.108   .     S
C1419  H1424   1.105   .     S
C1419  C1420   1.535   .     S
C1419  H1425   1.104   .     S
C1420  H1423   1.104   .     S
C1420  H1422   1.110   .     S
C1420  H1421   1.111   .     S
C1427  H1432   1.083   .     S
C1427  H1433   1.111   .     S
C1427  C1428   1.525   .     S
C1428  H1429   1.109   .     S
C1428  H1431   1.106   .     S
C1428  H1430   1.111   .     S
C1434  H1440   1.113   .     S
C1434  C1435   1.528   .     S
C1434  H1439   1.093   .     S
C1435  H1436   1.111   .     S
C1435  H1437   1.108   .     S
C1435  H1438   1.110   .     S
