data_str_m3_o1_o10_pcu_sym.60
_audit_creation_date              2020-01-03
_audit_creation_method            'Materials Studio'
_symmetry_space_group_name_H-M    'P1'
_symmetry_Int_Tables_number       1
_symmetry_cell_setting            triclinic
loop_
_symmetry_equiv_pos_as_xyz
  x,y,z
_cell_length_a                    25.8097
_cell_length_b                    31.8291
_cell_length_c                    29.7044
_cell_angle_alpha                 90.7913
_cell_angle_beta                  98.4996
_cell_angle_gamma                 90.7871
loop_
_atom_site_label
_atom_site_type_symbol
_atom_site_fract_x
_atom_site_fract_y
_atom_site_fract_z
_atom_site_U_iso_or_equiv
_atom_site_adp_type
_atom_site_occupancy
Br1    Br    0.31901   0.11527   0.10646   0.00000  Uiso   1.00
Br2    Br    0.01433   0.21806   0.22687   0.00000  Uiso   1.00
Br3    Br    0.06524   0.28270   0.10625   0.00000  Uiso   1.00
Br4    Br    0.26810   0.05064   0.22708   0.00000  Uiso   1.00
Br5    Br    0.24267   0.23441   0.29197   0.00000  Uiso   1.00
Br6    Br    0.09066   0.09893   0.04136   0.00000  Uiso   1.00
C7     C     0.16747   0.08681   0.16651   0.00000  Uiso   1.00
C8     C     0.20882   0.02181   0.19276   0.00000  Uiso   1.00
C9     C     0.16526   0.29064   0.16713   0.00000  Uiso   1.00
C10    C     0.16808   0.04270   0.16620   0.00000  Uiso   1.00
C11    C     0.19771   0.19412   0.02868   0.00000  Uiso   1.00
C12    C     0.13562   0.13921   0.30466   0.00000  Uiso   1.00
C13    C     0.19779   0.19426   0.31436   0.00000  Uiso   1.00
C14    C     0.13554   0.13908   0.01897   0.00000  Uiso   1.00
C15    C     0.16587   0.24652   0.16682   0.00000  Uiso   1.00
C16    C     0.06717   0.16614   0.15500   0.00000  Uiso   1.00
C17    C     0.26616   0.16719   0.17833   0.00000  Uiso   1.00
C18    C     0.01292   0.15868   0.15049   0.00000  Uiso   1.00
C19    C     0.32041   0.17466   0.18284   0.00000  Uiso   1.00
C20    C     0.12624   0.02136   0.14026   0.00000  Uiso   1.00
C21    C     0.20709   0.31197   0.19308   0.00000  Uiso   1.00
C22    C     0.12452   0.31153   0.14058   0.00000  Uiso   1.00
H23    H     0.09460   0.03828   0.12073   0.00000  Uiso   1.00
H24    H     0.23874   0.29505   0.21260   0.00000  Uiso   1.00
H25    H     0.22253   0.21605   0.05052   0.00000  Uiso   1.00
H26    H     0.11080   0.11728   0.28281   0.00000  Uiso   1.00
N27    N     0.16665   0.16666   0.28573   0.00000  Uiso   1.00
N28    N     0.16668   0.16668   0.04760   0.00000  Uiso   1.00
O29    O     0.16666   0.10558   0.20487   0.00000  Uiso   1.00
O30    O     0.16667   0.22775   0.12846   0.00000  Uiso   1.00
O31    O     0.16666   0.10559   0.12843   0.00000  Uiso   1.00
O32    O     0.16667   0.22774   0.20490   0.00000  Uiso   1.00
O33    O     0.09058   0.16666   0.19595   0.00000  Uiso   1.00
O34    O     0.24275   0.16667   0.13739   0.00000  Uiso   1.00
O35    O     0.09058   0.16667   0.11950   0.00000  Uiso   1.00
O36    O     0.24275   0.16666   0.21383   0.00000  Uiso   1.00
Zn37   Zn    0.16667   0.16666   0.21771   0.00000  Uiso   1.00
Zn38   Zn    0.16667   0.16667   0.11563   0.00000  Uiso   1.00
Br39   Br    0.65234   0.11527   0.10646   0.00000  Uiso   1.00
Br40   Br    0.34766   0.21806   0.22687   0.00000  Uiso   1.00
Br41   Br    0.39857   0.28270   0.10625   0.00000  Uiso   1.00
Br42   Br    0.60143   0.05064   0.22708   0.00000  Uiso   1.00
Br43   Br    0.57600   0.23441   0.29197   0.00000  Uiso   1.00
Br44   Br    0.42400   0.09893   0.04136   0.00000  Uiso   1.00
C45    C     0.50080   0.08681   0.16651   0.00000  Uiso   1.00
C46    C     0.54215   0.02181   0.19276   0.00000  Uiso   1.00
C47    C     0.49859   0.29064   0.16713   0.00000  Uiso   1.00
C48    C     0.50141   0.04270   0.16620   0.00000  Uiso   1.00
C49    C     0.53104   0.19412   0.02868   0.00000  Uiso   1.00
C50    C     0.46896   0.13921   0.30466   0.00000  Uiso   1.00
C51    C     0.53112   0.19426   0.31436   0.00000  Uiso   1.00
C52    C     0.46888   0.13908   0.01897   0.00000  Uiso   1.00
C53    C     0.49920   0.24652   0.16682   0.00000  Uiso   1.00
C54    C     0.40051   0.16614   0.15500   0.00000  Uiso   1.00
C55    C     0.59950   0.16719   0.17833   0.00000  Uiso   1.00
C56    C     0.34625   0.15868   0.15049   0.00000  Uiso   1.00
C57    C     0.65375   0.17466   0.18284   0.00000  Uiso   1.00
C58    C     0.45958   0.02136   0.14026   0.00000  Uiso   1.00
C59    C     0.54042   0.31197   0.19308   0.00000  Uiso   1.00
C60    C     0.45785   0.31153   0.14058   0.00000  Uiso   1.00
H61    H     0.42793   0.03828   0.12073   0.00000  Uiso   1.00
H62    H     0.57207   0.29505   0.21260   0.00000  Uiso   1.00
H63    H     0.55587   0.21605   0.05052   0.00000  Uiso   1.00
H64    H     0.44413   0.11728   0.28281   0.00000  Uiso   1.00
N65    N     0.49999   0.16666   0.28573   0.00000  Uiso   1.00
N66    N     0.50001   0.16668   0.04760   0.00000  Uiso   1.00
O67    O     0.50000   0.10558   0.20487   0.00000  Uiso   1.00
O68    O     0.50000   0.22775   0.12846   0.00000  Uiso   1.00
O69    O     0.50000   0.10559   0.12843   0.00000  Uiso   1.00
O70    O     0.50000   0.22774   0.20490   0.00000  Uiso   1.00
O71    O     0.42392   0.16666   0.19595   0.00000  Uiso   1.00
O72    O     0.57608   0.16667   0.13739   0.00000  Uiso   1.00
O73    O     0.42392   0.16667   0.11950   0.00000  Uiso   1.00
O74    O     0.57608   0.16666   0.21383   0.00000  Uiso   1.00
Zn75   Zn    0.50000   0.16666   0.21771   0.00000  Uiso   1.00
Zn76   Zn    0.50000   0.16667   0.11563   0.00000  Uiso   1.00
Br77   Br    0.98567   0.11527   0.10646   0.00000  Uiso   1.00
Br78   Br    0.68099   0.21806   0.22687   0.00000  Uiso   1.00
Br79   Br    0.73191   0.28270   0.10625   0.00000  Uiso   1.00
Br80   Br    0.93476   0.05064   0.22708   0.00000  Uiso   1.00
Br81   Br    0.90934   0.23441   0.29197   0.00000  Uiso   1.00
Br82   Br    0.75733   0.09893   0.04136   0.00000  Uiso   1.00
C83    C     0.83413   0.08681   0.16651   0.00000  Uiso   1.00
C84    C     0.87548   0.02181   0.19276   0.00000  Uiso   1.00
C85    C     0.83193   0.29064   0.16713   0.00000  Uiso   1.00
C86    C     0.83474   0.04270   0.16620   0.00000  Uiso   1.00
C87    C     0.86438   0.19412   0.02868   0.00000  Uiso   1.00
C88    C     0.80229   0.13921   0.30466   0.00000  Uiso   1.00
C89    C     0.86446   0.19426   0.31436   0.00000  Uiso   1.00
C90    C     0.80221   0.13908   0.01897   0.00000  Uiso   1.00
C91    C     0.83253   0.24652   0.16682   0.00000  Uiso   1.00
C92    C     0.73384   0.16614   0.15500   0.00000  Uiso   1.00
C93    C     0.93283   0.16719   0.17833   0.00000  Uiso   1.00
C94    C     0.67959   0.15868   0.15049   0.00000  Uiso   1.00
C95    C     0.98708   0.17466   0.18284   0.00000  Uiso   1.00
C96    C     0.79291   0.02136   0.14026   0.00000  Uiso   1.00
C97    C     0.87376   0.31197   0.19308   0.00000  Uiso   1.00
C98    C     0.79118   0.31153   0.14058   0.00000  Uiso   1.00
H99    H     0.76126   0.03828   0.12073   0.00000  Uiso   1.00
H100   H     0.90540   0.29505   0.21260   0.00000  Uiso   1.00
H101   H     0.88920   0.21605   0.05052   0.00000  Uiso   1.00
H102   H     0.77747   0.11728   0.28281   0.00000  Uiso   1.00
N103   N     0.83332   0.16666   0.28573   0.00000  Uiso   1.00
N104   N     0.83335   0.16668   0.04760   0.00000  Uiso   1.00
O105   O     0.83333   0.10558   0.20487   0.00000  Uiso   1.00
O106   O     0.83334   0.22775   0.12846   0.00000  Uiso   1.00
O107   O     0.83333   0.10559   0.12843   0.00000  Uiso   1.00
O108   O     0.83334   0.22774   0.20490   0.00000  Uiso   1.00
O109   O     0.75725   0.16666   0.19595   0.00000  Uiso   1.00
O110   O     0.90942   0.16667   0.13739   0.00000  Uiso   1.00
O111   O     0.75725   0.16667   0.11950   0.00000  Uiso   1.00
O112   O     0.90942   0.16666   0.21383   0.00000  Uiso   1.00
Zn113  Zn    0.83333   0.16666   0.21771   0.00000  Uiso   1.00
Zn114  Zn    0.83333   0.16667   0.11563   0.00000  Uiso   1.00
Br115  Br    0.31901   0.44861   0.10646   0.00000  Uiso   1.00
Br116  Br    0.01433   0.55139   0.22687   0.00000  Uiso   1.00
Br117  Br    0.06524   0.61603   0.10625   0.00000  Uiso   1.00
Br118  Br    0.26810   0.38397   0.22708   0.00000  Uiso   1.00
Br119  Br    0.24267   0.56774   0.29197   0.00000  Uiso   1.00
Br120  Br    0.09066   0.43226   0.04136   0.00000  Uiso   1.00
C121   C     0.16747   0.42015   0.16651   0.00000  Uiso   1.00
C122   C     0.20882   0.35514   0.19276   0.00000  Uiso   1.00
C123   C     0.16526   0.62397   0.16713   0.00000  Uiso   1.00
C124   C     0.16808   0.37603   0.16620   0.00000  Uiso   1.00
C125   C     0.19771   0.52746   0.02868   0.00000  Uiso   1.00
C126   C     0.13562   0.47254   0.30466   0.00000  Uiso   1.00
C127   C     0.19779   0.52759   0.31436   0.00000  Uiso   1.00
C128   C     0.13554   0.47241   0.01897   0.00000  Uiso   1.00
C129   C     0.16587   0.57985   0.16682   0.00000  Uiso   1.00
C130   C     0.06717   0.49947   0.15500   0.00000  Uiso   1.00
C131   C     0.26616   0.50053   0.17833   0.00000  Uiso   1.00
C132   C     0.01292   0.49201   0.15049   0.00000  Uiso   1.00
C133   C     0.32041   0.50799   0.18284   0.00000  Uiso   1.00
C134   C     0.12624   0.35469   0.14026   0.00000  Uiso   1.00
C135   C     0.20709   0.64531   0.19308   0.00000  Uiso   1.00
C136   C     0.12452   0.64486   0.14058   0.00000  Uiso   1.00
H137   H     0.09460   0.37162   0.12073   0.00000  Uiso   1.00
H138   H     0.23874   0.62838   0.21260   0.00000  Uiso   1.00
H139   H     0.22253   0.54939   0.05052   0.00000  Uiso   1.00
H140   H     0.11080   0.45061   0.28281   0.00000  Uiso   1.00
N141   N     0.16665   0.49999   0.28573   0.00000  Uiso   1.00
N142   N     0.16668   0.50001   0.04760   0.00000  Uiso   1.00
O143   O     0.16666   0.43892   0.20487   0.00000  Uiso   1.00
O144   O     0.16667   0.56108   0.12846   0.00000  Uiso   1.00
O145   O     0.16666   0.43893   0.12843   0.00000  Uiso   1.00
O146   O     0.16667   0.56107   0.20490   0.00000  Uiso   1.00
O147   O     0.09058   0.50000   0.19595   0.00000  Uiso   1.00
O148   O     0.24275   0.50000   0.13739   0.00000  Uiso   1.00
O149   O     0.09058   0.50000   0.11950   0.00000  Uiso   1.00
O150   O     0.24275   0.50000   0.21383   0.00000  Uiso   1.00
Zn151  Zn    0.16667   0.49999   0.21771   0.00000  Uiso   1.00
Zn152  Zn    0.16667   0.50001   0.11563   0.00000  Uiso   1.00
Br153  Br    0.65234   0.44861   0.10646   0.00000  Uiso   1.00
Br154  Br    0.34766   0.55139   0.22687   0.00000  Uiso   1.00
Br155  Br    0.39857   0.61603   0.10625   0.00000  Uiso   1.00
Br156  Br    0.60143   0.38397   0.22708   0.00000  Uiso   1.00
Br157  Br    0.57600   0.56774   0.29197   0.00000  Uiso   1.00
Br158  Br    0.42400   0.43226   0.04136   0.00000  Uiso   1.00
C159   C     0.50080   0.42015   0.16651   0.00000  Uiso   1.00
C160   C     0.54215   0.35514   0.19276   0.00000  Uiso   1.00
C161   C     0.49859   0.62397   0.16713   0.00000  Uiso   1.00
C162   C     0.50141   0.37603   0.16620   0.00000  Uiso   1.00
C163   C     0.53104   0.52746   0.02868   0.00000  Uiso   1.00
C164   C     0.46896   0.47254   0.30466   0.00000  Uiso   1.00
C165   C     0.53112   0.52759   0.31436   0.00000  Uiso   1.00
C166   C     0.46888   0.47241   0.01897   0.00000  Uiso   1.00
C167   C     0.49920   0.57985   0.16682   0.00000  Uiso   1.00
C168   C     0.40051   0.49947   0.15500   0.00000  Uiso   1.00
C169   C     0.59950   0.50053   0.17833   0.00000  Uiso   1.00
C170   C     0.34625   0.49201   0.15049   0.00000  Uiso   1.00
C171   C     0.65375   0.50799   0.18284   0.00000  Uiso   1.00
C172   C     0.45958   0.35469   0.14026   0.00000  Uiso   1.00
C173   C     0.54042   0.64531   0.19308   0.00000  Uiso   1.00
C174   C     0.45785   0.64486   0.14058   0.00000  Uiso   1.00
H175   H     0.42793   0.37162   0.12073   0.00000  Uiso   1.00
H176   H     0.57207   0.62838   0.21260   0.00000  Uiso   1.00
H177   H     0.55587   0.54939   0.05052   0.00000  Uiso   1.00
H178   H     0.44413   0.45061   0.28281   0.00000  Uiso   1.00
N179   N     0.49999   0.49999   0.28573   0.00000  Uiso   1.00
N180   N     0.50001   0.50001   0.04760   0.00000  Uiso   1.00
O181   O     0.50000   0.43892   0.20487   0.00000  Uiso   1.00
O182   O     0.50000   0.56108   0.12846   0.00000  Uiso   1.00
O183   O     0.50000   0.43893   0.12843   0.00000  Uiso   1.00
O184   O     0.50000   0.56107   0.20490   0.00000  Uiso   1.00
O185   O     0.42392   0.50000   0.19595   0.00000  Uiso   1.00
O186   O     0.57608   0.50000   0.13739   0.00000  Uiso   1.00
O187   O     0.42392   0.50000   0.11950   0.00000  Uiso   1.00
O188   O     0.57608   0.50000   0.21383   0.00000  Uiso   1.00
Zn189  Zn    0.50000   0.49999   0.21771   0.00000  Uiso   1.00
Zn190  Zn    0.50000   0.50001   0.11563   0.00000  Uiso   1.00
Br191  Br    0.98567   0.44861   0.10646   0.00000  Uiso   1.00
Br192  Br    0.68099   0.55139   0.22687   0.00000  Uiso   1.00
Br193  Br    0.73191   0.61603   0.10625   0.00000  Uiso   1.00
Br194  Br    0.93476   0.38397   0.22708   0.00000  Uiso   1.00
Br195  Br    0.90934   0.56774   0.29197   0.00000  Uiso   1.00
Br196  Br    0.75733   0.43226   0.04136   0.00000  Uiso   1.00
C197   C     0.83413   0.42015   0.16651   0.00000  Uiso   1.00
C198   C     0.87548   0.35514   0.19276   0.00000  Uiso   1.00
C199   C     0.83193   0.62397   0.16713   0.00000  Uiso   1.00
C200   C     0.83474   0.37603   0.16620   0.00000  Uiso   1.00
C201   C     0.86438   0.52746   0.02868   0.00000  Uiso   1.00
C202   C     0.80229   0.47254   0.30466   0.00000  Uiso   1.00
C203   C     0.86446   0.52759   0.31436   0.00000  Uiso   1.00
C204   C     0.80221   0.47241   0.01897   0.00000  Uiso   1.00
C205   C     0.83253   0.57985   0.16682   0.00000  Uiso   1.00
C206   C     0.73384   0.49947   0.15500   0.00000  Uiso   1.00
C207   C     0.93283   0.50053   0.17833   0.00000  Uiso   1.00
C208   C     0.67959   0.49201   0.15049   0.00000  Uiso   1.00
C209   C     0.98708   0.50799   0.18284   0.00000  Uiso   1.00
C210   C     0.79291   0.35469   0.14026   0.00000  Uiso   1.00
C211   C     0.87376   0.64531   0.19308   0.00000  Uiso   1.00
C212   C     0.79118   0.64486   0.14058   0.00000  Uiso   1.00
H213   H     0.76126   0.37162   0.12073   0.00000  Uiso   1.00
H214   H     0.90540   0.62838   0.21260   0.00000  Uiso   1.00
H215   H     0.88920   0.54939   0.05052   0.00000  Uiso   1.00
H216   H     0.77747   0.45061   0.28281   0.00000  Uiso   1.00
N217   N     0.83332   0.49999   0.28573   0.00000  Uiso   1.00
N218   N     0.83335   0.50001   0.04760   0.00000  Uiso   1.00
O219   O     0.83333   0.43892   0.20487   0.00000  Uiso   1.00
O220   O     0.83334   0.56108   0.12846   0.00000  Uiso   1.00
O221   O     0.83333   0.43893   0.12843   0.00000  Uiso   1.00
O222   O     0.83334   0.56107   0.20490   0.00000  Uiso   1.00
O223   O     0.75725   0.50000   0.19595   0.00000  Uiso   1.00
O224   O     0.90942   0.50000   0.13739   0.00000  Uiso   1.00
O225   O     0.75725   0.50000   0.11950   0.00000  Uiso   1.00
O226   O     0.90942   0.50000   0.21383   0.00000  Uiso   1.00
Zn227  Zn    0.83333   0.49999   0.21771   0.00000  Uiso   1.00
Zn228  Zn    0.83333   0.50001   0.11563   0.00000  Uiso   1.00
Br229  Br    0.31901   0.78194   0.10646   0.00000  Uiso   1.00
Br230  Br    0.01433   0.88473   0.22687   0.00000  Uiso   1.00
Br231  Br    0.06524   0.94936   0.10625   0.00000  Uiso   1.00
Br232  Br    0.26810   0.71730   0.22708   0.00000  Uiso   1.00
Br233  Br    0.24267   0.90107   0.29197   0.00000  Uiso   1.00
Br234  Br    0.09066   0.76559   0.04136   0.00000  Uiso   1.00
C235   C     0.16747   0.75348   0.16651   0.00000  Uiso   1.00
C236   C     0.20882   0.68847   0.19276   0.00000  Uiso   1.00
C237   C     0.16526   0.95731   0.16713   0.00000  Uiso   1.00
C238   C     0.16808   0.70936   0.16620   0.00000  Uiso   1.00
C239   C     0.19771   0.86079   0.02868   0.00000  Uiso   1.00
C240   C     0.13562   0.80588   0.30466   0.00000  Uiso   1.00
C241   C     0.19779   0.86093   0.31436   0.00000  Uiso   1.00
C242   C     0.13554   0.80574   0.01897   0.00000  Uiso   1.00
C243   C     0.16587   0.91319   0.16682   0.00000  Uiso   1.00
C244   C     0.06717   0.83281   0.15500   0.00000  Uiso   1.00
C245   C     0.26616   0.83386   0.17833   0.00000  Uiso   1.00
C246   C     0.01292   0.82534   0.15049   0.00000  Uiso   1.00
C247   C     0.32041   0.84132   0.18284   0.00000  Uiso   1.00
C248   C     0.12624   0.68803   0.14026   0.00000  Uiso   1.00
C249   C     0.20709   0.97864   0.19308   0.00000  Uiso   1.00
C250   C     0.12452   0.97819   0.14058   0.00000  Uiso   1.00
H251   H     0.09460   0.70495   0.12073   0.00000  Uiso   1.00
H252   H     0.23874   0.96172   0.21260   0.00000  Uiso   1.00
H253   H     0.22253   0.88272   0.05052   0.00000  Uiso   1.00
H254   H     0.11080   0.78395   0.28281   0.00000  Uiso   1.00
N255   N     0.16665   0.83332   0.28573   0.00000  Uiso   1.00
N256   N     0.16668   0.83334   0.04760   0.00000  Uiso   1.00
O257   O     0.16666   0.77225   0.20487   0.00000  Uiso   1.00
O258   O     0.16667   0.89442   0.12846   0.00000  Uiso   1.00
O259   O     0.16666   0.77226   0.12843   0.00000  Uiso   1.00
O260   O     0.16667   0.89441   0.20490   0.00000  Uiso   1.00
O261   O     0.09058   0.83333   0.19595   0.00000  Uiso   1.00
O262   O     0.24275   0.83334   0.13739   0.00000  Uiso   1.00
O263   O     0.09058   0.83334   0.11950   0.00000  Uiso   1.00
O264   O     0.24275   0.83333   0.21383   0.00000  Uiso   1.00
Zn265  Zn    0.16667   0.83333   0.21771   0.00000  Uiso   1.00
Zn266  Zn    0.16667   0.83334   0.11563   0.00000  Uiso   1.00
Br267  Br    0.65234   0.78194   0.10646   0.00000  Uiso   1.00
Br268  Br    0.34766   0.88473   0.22687   0.00000  Uiso   1.00
Br269  Br    0.39857   0.94936   0.10625   0.00000  Uiso   1.00
Br270  Br    0.60143   0.71730   0.22708   0.00000  Uiso   1.00
Br271  Br    0.57600   0.90107   0.29197   0.00000  Uiso   1.00
Br272  Br    0.42400   0.76559   0.04136   0.00000  Uiso   1.00
C273   C     0.50080   0.75348   0.16651   0.00000  Uiso   1.00
C274   C     0.54215   0.68847   0.19276   0.00000  Uiso   1.00
C275   C     0.49859   0.95731   0.16713   0.00000  Uiso   1.00
C276   C     0.50141   0.70936   0.16620   0.00000  Uiso   1.00
C277   C     0.53104   0.86079   0.02868   0.00000  Uiso   1.00
C278   C     0.46896   0.80588   0.30466   0.00000  Uiso   1.00
C279   C     0.53112   0.86093   0.31436   0.00000  Uiso   1.00
C280   C     0.46888   0.80574   0.01897   0.00000  Uiso   1.00
C281   C     0.49920   0.91319   0.16682   0.00000  Uiso   1.00
C282   C     0.40051   0.83281   0.15500   0.00000  Uiso   1.00
C283   C     0.59950   0.83386   0.17833   0.00000  Uiso   1.00
C284   C     0.34625   0.82534   0.15049   0.00000  Uiso   1.00
C285   C     0.65375   0.84132   0.18284   0.00000  Uiso   1.00
C286   C     0.45958   0.68803   0.14026   0.00000  Uiso   1.00
C287   C     0.54042   0.97864   0.19308   0.00000  Uiso   1.00
C288   C     0.45785   0.97819   0.14058   0.00000  Uiso   1.00
H289   H     0.42793   0.70495   0.12073   0.00000  Uiso   1.00
H290   H     0.57207   0.96172   0.21260   0.00000  Uiso   1.00
H291   H     0.55587   0.88272   0.05052   0.00000  Uiso   1.00
H292   H     0.44413   0.78395   0.28281   0.00000  Uiso   1.00
N293   N     0.49999   0.83332   0.28573   0.00000  Uiso   1.00
N294   N     0.50001   0.83334   0.04760   0.00000  Uiso   1.00
O295   O     0.50000   0.77225   0.20487   0.00000  Uiso   1.00
O296   O     0.50000   0.89442   0.12846   0.00000  Uiso   1.00
O297   O     0.50000   0.77226   0.12843   0.00000  Uiso   1.00
O298   O     0.50000   0.89441   0.20490   0.00000  Uiso   1.00
O299   O     0.42392   0.83333   0.19595   0.00000  Uiso   1.00
O300   O     0.57608   0.83334   0.13739   0.00000  Uiso   1.00
O301   O     0.42392   0.83334   0.11950   0.00000  Uiso   1.00
O302   O     0.57608   0.83333   0.21383   0.00000  Uiso   1.00
Zn303  Zn    0.50000   0.83333   0.21771   0.00000  Uiso   1.00
Zn304  Zn    0.50000   0.83334   0.11563   0.00000  Uiso   1.00
Br305  Br    0.98567   0.78194   0.10646   0.00000  Uiso   1.00
Br306  Br    0.68099   0.88473   0.22687   0.00000  Uiso   1.00
Br307  Br    0.73191   0.94936   0.10625   0.00000  Uiso   1.00
Br308  Br    0.93476   0.71730   0.22708   0.00000  Uiso   1.00
Br309  Br    0.90934   0.90107   0.29197   0.00000  Uiso   1.00
Br310  Br    0.75733   0.76559   0.04136   0.00000  Uiso   1.00
C311   C     0.83413   0.75348   0.16651   0.00000  Uiso   1.00
C312   C     0.87548   0.68847   0.19276   0.00000  Uiso   1.00
C313   C     0.83193   0.95731   0.16713   0.00000  Uiso   1.00
C314   C     0.83474   0.70936   0.16620   0.00000  Uiso   1.00
C315   C     0.86438   0.86079   0.02868   0.00000  Uiso   1.00
C316   C     0.80229   0.80588   0.30466   0.00000  Uiso   1.00
C317   C     0.86446   0.86093   0.31436   0.00000  Uiso   1.00
C318   C     0.80221   0.80574   0.01897   0.00000  Uiso   1.00
C319   C     0.83253   0.91319   0.16682   0.00000  Uiso   1.00
C320   C     0.73384   0.83281   0.15500   0.00000  Uiso   1.00
C321   C     0.93283   0.83386   0.17833   0.00000  Uiso   1.00
C322   C     0.67959   0.82534   0.15049   0.00000  Uiso   1.00
C323   C     0.98708   0.84132   0.18284   0.00000  Uiso   1.00
C324   C     0.79291   0.68803   0.14026   0.00000  Uiso   1.00
C325   C     0.87376   0.97864   0.19308   0.00000  Uiso   1.00
C326   C     0.79118   0.97819   0.14058   0.00000  Uiso   1.00
H327   H     0.76126   0.70495   0.12073   0.00000  Uiso   1.00
H328   H     0.90540   0.96172   0.21260   0.00000  Uiso   1.00
H329   H     0.88920   0.88272   0.05052   0.00000  Uiso   1.00
H330   H     0.77747   0.78395   0.28281   0.00000  Uiso   1.00
N331   N     0.83332   0.83332   0.28573   0.00000  Uiso   1.00
N332   N     0.83335   0.83334   0.04760   0.00000  Uiso   1.00
O333   O     0.83333   0.77225   0.20487   0.00000  Uiso   1.00
O334   O     0.83334   0.89442   0.12846   0.00000  Uiso   1.00
O335   O     0.83333   0.77226   0.12843   0.00000  Uiso   1.00
O336   O     0.83334   0.89441   0.20490   0.00000  Uiso   1.00
O337   O     0.75725   0.83333   0.19595   0.00000  Uiso   1.00
O338   O     0.90942   0.83334   0.13739   0.00000  Uiso   1.00
O339   O     0.75725   0.83334   0.11950   0.00000  Uiso   1.00
O340   O     0.90942   0.83333   0.21383   0.00000  Uiso   1.00
Zn341  Zn    0.83333   0.83333   0.21771   0.00000  Uiso   1.00
Zn342  Zn    0.83333   0.83334   0.11563   0.00000  Uiso   1.00
Br343  Br    0.31901   0.11527   0.43980   0.00000  Uiso   1.00
Br344  Br    0.01433   0.21806   0.56020   0.00000  Uiso   1.00
Br345  Br    0.06524   0.28270   0.43958   0.00000  Uiso   1.00
Br346  Br    0.26810   0.05064   0.56042   0.00000  Uiso   1.00
Br347  Br    0.24267   0.23441   0.62530   0.00000  Uiso   1.00
Br348  Br    0.09066   0.09893   0.37470   0.00000  Uiso   1.00
C349   C     0.16747   0.08681   0.49985   0.00000  Uiso   1.00
C350   C     0.20882   0.02181   0.52609   0.00000  Uiso   1.00
C351   C     0.16526   0.29064   0.50046   0.00000  Uiso   1.00
C352   C     0.16808   0.04270   0.49954   0.00000  Uiso   1.00
C353   C     0.19771   0.19412   0.36201   0.00000  Uiso   1.00
C354   C     0.13562   0.13921   0.63799   0.00000  Uiso   1.00
C355   C     0.19779   0.19426   0.64770   0.00000  Uiso   1.00
C356   C     0.13554   0.13908   0.35230   0.00000  Uiso   1.00
C357   C     0.16587   0.24652   0.50015   0.00000  Uiso   1.00
C358   C     0.06717   0.16614   0.48834   0.00000  Uiso   1.00
C359   C     0.26616   0.16719   0.51166   0.00000  Uiso   1.00
C360   C     0.01292   0.15868   0.48382   0.00000  Uiso   1.00
C361   C     0.32041   0.17466   0.51618   0.00000  Uiso   1.00
C362   C     0.12624   0.02136   0.47359   0.00000  Uiso   1.00
C363   C     0.20709   0.31197   0.52641   0.00000  Uiso   1.00
C364   C     0.12452   0.31153   0.47391   0.00000  Uiso   1.00
H365   H     0.09460   0.03828   0.45406   0.00000  Uiso   1.00
H366   H     0.23874   0.29505   0.54594   0.00000  Uiso   1.00
H367   H     0.22253   0.21605   0.38385   0.00000  Uiso   1.00
H368   H     0.11080   0.11728   0.61615   0.00000  Uiso   1.00
N369   N     0.16665   0.16666   0.61907   0.00000  Uiso   1.00
N370   N     0.16668   0.16668   0.38093   0.00000  Uiso   1.00
O371   O     0.16666   0.10558   0.53821   0.00000  Uiso   1.00
O372   O     0.16667   0.22775   0.46179   0.00000  Uiso   1.00
O373   O     0.16666   0.10559   0.46176   0.00000  Uiso   1.00
O374   O     0.16667   0.22774   0.53824   0.00000  Uiso   1.00
O375   O     0.09058   0.16666   0.52928   0.00000  Uiso   1.00
O376   O     0.24275   0.16667   0.47072   0.00000  Uiso   1.00
O377   O     0.09058   0.16667   0.45284   0.00000  Uiso   1.00
O378   O     0.24275   0.16666   0.54716   0.00000  Uiso   1.00
Zn379  Zn    0.16667   0.16666   0.55104   0.00000  Uiso   1.00
Zn380  Zn    0.16667   0.16667   0.44896   0.00000  Uiso   1.00
Br381  Br    0.65234   0.11527   0.43980   0.00000  Uiso   1.00
Br382  Br    0.34766   0.21806   0.56020   0.00000  Uiso   1.00
Br383  Br    0.39857   0.28270   0.43958   0.00000  Uiso   1.00
Br384  Br    0.60143   0.05064   0.56042   0.00000  Uiso   1.00
Br385  Br    0.57600   0.23441   0.62530   0.00000  Uiso   1.00
Br386  Br    0.42400   0.09893   0.37470   0.00000  Uiso   1.00
C387   C     0.50080   0.08681   0.49985   0.00000  Uiso   1.00
C388   C     0.54215   0.02181   0.52609   0.00000  Uiso   1.00
C389   C     0.49859   0.29064   0.50046   0.00000  Uiso   1.00
C390   C     0.50141   0.04270   0.49954   0.00000  Uiso   1.00
C391   C     0.53104   0.19412   0.36201   0.00000  Uiso   1.00
C392   C     0.46896   0.13921   0.63799   0.00000  Uiso   1.00
C393   C     0.53112   0.19426   0.64770   0.00000  Uiso   1.00
C394   C     0.46888   0.13908   0.35230   0.00000  Uiso   1.00
C395   C     0.49920   0.24652   0.50015   0.00000  Uiso   1.00
C396   C     0.40051   0.16614   0.48834   0.00000  Uiso   1.00
C397   C     0.59950   0.16719   0.51166   0.00000  Uiso   1.00
C398   C     0.34625   0.15868   0.48382   0.00000  Uiso   1.00
C399   C     0.65375   0.17466   0.51618   0.00000  Uiso   1.00
C400   C     0.45958   0.02136   0.47359   0.00000  Uiso   1.00
C401   C     0.54042   0.31197   0.52641   0.00000  Uiso   1.00
C402   C     0.45785   0.31153   0.47391   0.00000  Uiso   1.00
H403   H     0.42793   0.03828   0.45406   0.00000  Uiso   1.00
H404   H     0.57207   0.29505   0.54594   0.00000  Uiso   1.00
H405   H     0.55587   0.21605   0.38385   0.00000  Uiso   1.00
H406   H     0.44413   0.11728   0.61615   0.00000  Uiso   1.00
N407   N     0.49999   0.16666   0.61907   0.00000  Uiso   1.00
N408   N     0.50001   0.16668   0.38093   0.00000  Uiso   1.00
O409   O     0.50000   0.10558   0.53821   0.00000  Uiso   1.00
O410   O     0.50000   0.22775   0.46179   0.00000  Uiso   1.00
O411   O     0.50000   0.10559   0.46176   0.00000  Uiso   1.00
O412   O     0.50000   0.22774   0.53824   0.00000  Uiso   1.00
O413   O     0.42392   0.16666   0.52928   0.00000  Uiso   1.00
O414   O     0.57608   0.16667   0.47072   0.00000  Uiso   1.00
O415   O     0.42392   0.16667   0.45284   0.00000  Uiso   1.00
O416   O     0.57608   0.16666   0.54716   0.00000  Uiso   1.00
Zn417  Zn    0.50000   0.16666   0.55104   0.00000  Uiso   1.00
Zn418  Zn    0.50000   0.16667   0.44896   0.00000  Uiso   1.00
Br419  Br    0.98567   0.11527   0.43980   0.00000  Uiso   1.00
Br420  Br    0.68099   0.21806   0.56020   0.00000  Uiso   1.00
Br421  Br    0.73191   0.28270   0.43958   0.00000  Uiso   1.00
Br422  Br    0.93476   0.05064   0.56042   0.00000  Uiso   1.00
Br423  Br    0.90934   0.23441   0.62530   0.00000  Uiso   1.00
Br424  Br    0.75733   0.09893   0.37470   0.00000  Uiso   1.00
C425   C     0.83413   0.08681   0.49985   0.00000  Uiso   1.00
C426   C     0.87548   0.02181   0.52609   0.00000  Uiso   1.00
C427   C     0.83193   0.29064   0.50046   0.00000  Uiso   1.00
C428   C     0.83474   0.04270   0.49954   0.00000  Uiso   1.00
C429   C     0.86438   0.19412   0.36201   0.00000  Uiso   1.00
C430   C     0.80229   0.13921   0.63799   0.00000  Uiso   1.00
C431   C     0.86446   0.19426   0.64770   0.00000  Uiso   1.00
C432   C     0.80221   0.13908   0.35230   0.00000  Uiso   1.00
C433   C     0.83253   0.24652   0.50015   0.00000  Uiso   1.00
C434   C     0.73384   0.16614   0.48834   0.00000  Uiso   1.00
C435   C     0.93283   0.16719   0.51166   0.00000  Uiso   1.00
C436   C     0.67959   0.15868   0.48382   0.00000  Uiso   1.00
C437   C     0.98708   0.17466   0.51618   0.00000  Uiso   1.00
C438   C     0.79291   0.02136   0.47359   0.00000  Uiso   1.00
C439   C     0.87376   0.31197   0.52641   0.00000  Uiso   1.00
C440   C     0.79118   0.31153   0.47391   0.00000  Uiso   1.00
H441   H     0.76126   0.03828   0.45406   0.00000  Uiso   1.00
H442   H     0.90540   0.29505   0.54594   0.00000  Uiso   1.00
H443   H     0.88920   0.21605   0.38385   0.00000  Uiso   1.00
H444   H     0.77747   0.11728   0.61615   0.00000  Uiso   1.00
N445   N     0.83332   0.16666   0.61907   0.00000  Uiso   1.00
N446   N     0.83335   0.16668   0.38093   0.00000  Uiso   1.00
O447   O     0.83333   0.10558   0.53821   0.00000  Uiso   1.00
O448   O     0.83334   0.22775   0.46179   0.00000  Uiso   1.00
O449   O     0.83333   0.10559   0.46176   0.00000  Uiso   1.00
O450   O     0.83334   0.22774   0.53824   0.00000  Uiso   1.00
O451   O     0.75725   0.16666   0.52928   0.00000  Uiso   1.00
O452   O     0.90942   0.16667   0.47072   0.00000  Uiso   1.00
O453   O     0.75725   0.16667   0.45284   0.00000  Uiso   1.00
O454   O     0.90942   0.16666   0.54716   0.00000  Uiso   1.00
Zn455  Zn    0.83333   0.16666   0.55104   0.00000  Uiso   1.00
Zn456  Zn    0.83333   0.16667   0.44896   0.00000  Uiso   1.00
Br457  Br    0.31901   0.44861   0.43980   0.00000  Uiso   1.00
Br458  Br    0.01433   0.55139   0.56020   0.00000  Uiso   1.00
Br459  Br    0.06524   0.61603   0.43958   0.00000  Uiso   1.00
Br460  Br    0.26810   0.38397   0.56042   0.00000  Uiso   1.00
Br461  Br    0.24267   0.56774   0.62530   0.00000  Uiso   1.00
Br462  Br    0.09066   0.43226   0.37470   0.00000  Uiso   1.00
C463   C     0.16747   0.42015   0.49985   0.00000  Uiso   1.00
C464   C     0.20882   0.35514   0.52609   0.00000  Uiso   1.00
C465   C     0.16526   0.62397   0.50046   0.00000  Uiso   1.00
C466   C     0.16808   0.37603   0.49954   0.00000  Uiso   1.00
C467   C     0.19771   0.52746   0.36201   0.00000  Uiso   1.00
C468   C     0.13562   0.47254   0.63799   0.00000  Uiso   1.00
C469   C     0.19779   0.52759   0.64770   0.00000  Uiso   1.00
C470   C     0.13554   0.47241   0.35230   0.00000  Uiso   1.00
C471   C     0.16587   0.57985   0.50015   0.00000  Uiso   1.00
C472   C     0.06717   0.49947   0.48834   0.00000  Uiso   1.00
C473   C     0.26616   0.50053   0.51166   0.00000  Uiso   1.00
C474   C     0.01292   0.49201   0.48382   0.00000  Uiso   1.00
C475   C     0.32041   0.50799   0.51618   0.00000  Uiso   1.00
C476   C     0.12624   0.35469   0.47359   0.00000  Uiso   1.00
C477   C     0.20709   0.64531   0.52641   0.00000  Uiso   1.00
C478   C     0.12452   0.64486   0.47391   0.00000  Uiso   1.00
H479   H     0.09460   0.37162   0.45406   0.00000  Uiso   1.00
H480   H     0.23874   0.62838   0.54594   0.00000  Uiso   1.00
H481   H     0.22253   0.54939   0.38385   0.00000  Uiso   1.00
H482   H     0.11080   0.45061   0.61615   0.00000  Uiso   1.00
N483   N     0.16665   0.49999   0.61907   0.00000  Uiso   1.00
N484   N     0.16668   0.50001   0.38093   0.00000  Uiso   1.00
O485   O     0.16666   0.43892   0.53821   0.00000  Uiso   1.00
O486   O     0.16667   0.56108   0.46179   0.00000  Uiso   1.00
O487   O     0.16666   0.43893   0.46176   0.00000  Uiso   1.00
O488   O     0.16667   0.56107   0.53824   0.00000  Uiso   1.00
O489   O     0.09058   0.50000   0.52928   0.00000  Uiso   1.00
O490   O     0.24275   0.50000   0.47072   0.00000  Uiso   1.00
O491   O     0.09058   0.50000   0.45284   0.00000  Uiso   1.00
O492   O     0.24275   0.50000   0.54716   0.00000  Uiso   1.00
Zn493  Zn    0.16667   0.49999   0.55104   0.00000  Uiso   1.00
Zn494  Zn    0.16667   0.50001   0.44896   0.00000  Uiso   1.00
Br495  Br    0.65234   0.44861   0.43980   0.00000  Uiso   1.00
Br496  Br    0.34766   0.55139   0.56020   0.00000  Uiso   1.00
Br497  Br    0.39857   0.61603   0.43958   0.00000  Uiso   1.00
Br498  Br    0.60143   0.38397   0.56042   0.00000  Uiso   1.00
Br499  Br    0.57600   0.56774   0.62530   0.00000  Uiso   1.00
Br500  Br    0.42400   0.43226   0.37470   0.00000  Uiso   1.00
C501   C     0.50080   0.42015   0.49985   0.00000  Uiso   1.00
C502   C     0.54215   0.35514   0.52609   0.00000  Uiso   1.00
C503   C     0.49859   0.62397   0.50046   0.00000  Uiso   1.00
C504   C     0.50141   0.37603   0.49954   0.00000  Uiso   1.00
C505   C     0.53104   0.52746   0.36201   0.00000  Uiso   1.00
C506   C     0.46896   0.47254   0.63799   0.00000  Uiso   1.00
C507   C     0.53112   0.52759   0.64770   0.00000  Uiso   1.00
C508   C     0.46888   0.47241   0.35230   0.00000  Uiso   1.00
C509   C     0.49920   0.57985   0.50015   0.00000  Uiso   1.00
C510   C     0.40051   0.49947   0.48834   0.00000  Uiso   1.00
C511   C     0.59950   0.50053   0.51166   0.00000  Uiso   1.00
C512   C     0.34625   0.49201   0.48382   0.00000  Uiso   1.00
C513   C     0.65375   0.50799   0.51618   0.00000  Uiso   1.00
C514   C     0.45958   0.35469   0.47359   0.00000  Uiso   1.00
C515   C     0.54042   0.64531   0.52641   0.00000  Uiso   1.00
C516   C     0.45785   0.64486   0.47391   0.00000  Uiso   1.00
H517   H     0.42793   0.37162   0.45406   0.00000  Uiso   1.00
H518   H     0.57207   0.62838   0.54594   0.00000  Uiso   1.00
H519   H     0.55587   0.54939   0.38385   0.00000  Uiso   1.00
H520   H     0.44413   0.45061   0.61615   0.00000  Uiso   1.00
N521   N     0.49999   0.49999   0.61907   0.00000  Uiso   1.00
N522   N     0.50001   0.50001   0.38093   0.00000  Uiso   1.00
O523   O     0.50000   0.43892   0.53821   0.00000  Uiso   1.00
O524   O     0.50000   0.56108   0.46179   0.00000  Uiso   1.00
O525   O     0.50000   0.43893   0.46176   0.00000  Uiso   1.00
O526   O     0.50000   0.56107   0.53824   0.00000  Uiso   1.00
O527   O     0.42392   0.50000   0.52928   0.00000  Uiso   1.00
O528   O     0.57608   0.50000   0.47072   0.00000  Uiso   1.00
O529   O     0.42392   0.50000   0.45284   0.00000  Uiso   1.00
O530   O     0.57608   0.50000   0.54716   0.00000  Uiso   1.00
Zn531  Zn    0.50000   0.49999   0.55104   0.00000  Uiso   1.00
Zn532  Zn    0.50000   0.50001   0.44896   0.00000  Uiso   1.00
Br533  Br    0.98567   0.44861   0.43980   0.00000  Uiso   1.00
Br534  Br    0.68099   0.55139   0.56020   0.00000  Uiso   1.00
Br535  Br    0.73191   0.61603   0.43958   0.00000  Uiso   1.00
Br536  Br    0.93476   0.38397   0.56042   0.00000  Uiso   1.00
Br537  Br    0.90934   0.56774   0.62530   0.00000  Uiso   1.00
Br538  Br    0.75733   0.43226   0.37470   0.00000  Uiso   1.00
C539   C     0.83413   0.42015   0.49985   0.00000  Uiso   1.00
C540   C     0.87548   0.35514   0.52609   0.00000  Uiso   1.00
C541   C     0.83193   0.62397   0.50046   0.00000  Uiso   1.00
C542   C     0.83474   0.37603   0.49954   0.00000  Uiso   1.00
C543   C     0.86438   0.52746   0.36201   0.00000  Uiso   1.00
C544   C     0.80229   0.47254   0.63799   0.00000  Uiso   1.00
C545   C     0.86446   0.52759   0.64770   0.00000  Uiso   1.00
C546   C     0.80221   0.47241   0.35230   0.00000  Uiso   1.00
C547   C     0.83253   0.57985   0.50015   0.00000  Uiso   1.00
C548   C     0.73384   0.49947   0.48834   0.00000  Uiso   1.00
C549   C     0.93283   0.50053   0.51166   0.00000  Uiso   1.00
C550   C     0.67959   0.49201   0.48382   0.00000  Uiso   1.00
C551   C     0.98708   0.50799   0.51618   0.00000  Uiso   1.00
C552   C     0.79291   0.35469   0.47359   0.00000  Uiso   1.00
C553   C     0.87376   0.64531   0.52641   0.00000  Uiso   1.00
C554   C     0.79118   0.64486   0.47391   0.00000  Uiso   1.00
H555   H     0.76126   0.37162   0.45406   0.00000  Uiso   1.00
H556   H     0.90540   0.62838   0.54594   0.00000  Uiso   1.00
H557   H     0.88920   0.54939   0.38385   0.00000  Uiso   1.00
H558   H     0.77747   0.45061   0.61615   0.00000  Uiso   1.00
N559   N     0.83332   0.49999   0.61907   0.00000  Uiso   1.00
N560   N     0.83335   0.50001   0.38093   0.00000  Uiso   1.00
O561   O     0.83333   0.43892   0.53821   0.00000  Uiso   1.00
O562   O     0.83334   0.56108   0.46179   0.00000  Uiso   1.00
O563   O     0.83333   0.43893   0.46176   0.00000  Uiso   1.00
O564   O     0.83334   0.56107   0.53824   0.00000  Uiso   1.00
O565   O     0.75725   0.50000   0.52928   0.00000  Uiso   1.00
O566   O     0.90942   0.50000   0.47072   0.00000  Uiso   1.00
O567   O     0.75725   0.50000   0.45284   0.00000  Uiso   1.00
O568   O     0.90942   0.50000   0.54716   0.00000  Uiso   1.00
Zn569  Zn    0.83333   0.49999   0.55104   0.00000  Uiso   1.00
Zn570  Zn    0.83333   0.50001   0.44896   0.00000  Uiso   1.00
Br571  Br    0.31901   0.78194   0.43980   0.00000  Uiso   1.00
Br572  Br    0.01433   0.88473   0.56020   0.00000  Uiso   1.00
Br573  Br    0.06524   0.94936   0.43958   0.00000  Uiso   1.00
Br574  Br    0.26810   0.71730   0.56042   0.00000  Uiso   1.00
Br575  Br    0.24267   0.90107   0.62530   0.00000  Uiso   1.00
Br576  Br    0.09066   0.76559   0.37470   0.00000  Uiso   1.00
C577   C     0.16747   0.75348   0.49985   0.00000  Uiso   1.00
C578   C     0.20882   0.68847   0.52609   0.00000  Uiso   1.00
C579   C     0.16526   0.95731   0.50046   0.00000  Uiso   1.00
C580   C     0.16808   0.70936   0.49954   0.00000  Uiso   1.00
C581   C     0.19771   0.86079   0.36201   0.00000  Uiso   1.00
C582   C     0.13562   0.80588   0.63799   0.00000  Uiso   1.00
C583   C     0.19779   0.86093   0.64770   0.00000  Uiso   1.00
C584   C     0.13554   0.80574   0.35230   0.00000  Uiso   1.00
C585   C     0.16587   0.91319   0.50015   0.00000  Uiso   1.00
C586   C     0.06717   0.83281   0.48834   0.00000  Uiso   1.00
C587   C     0.26616   0.83386   0.51166   0.00000  Uiso   1.00
C588   C     0.01292   0.82534   0.48382   0.00000  Uiso   1.00
C589   C     0.32041   0.84132   0.51618   0.00000  Uiso   1.00
C590   C     0.12624   0.68803   0.47359   0.00000  Uiso   1.00
C591   C     0.20709   0.97864   0.52641   0.00000  Uiso   1.00
C592   C     0.12452   0.97819   0.47391   0.00000  Uiso   1.00
H593   H     0.09460   0.70495   0.45406   0.00000  Uiso   1.00
H594   H     0.23874   0.96172   0.54594   0.00000  Uiso   1.00
H595   H     0.22253   0.88272   0.38385   0.00000  Uiso   1.00
H596   H     0.11080   0.78395   0.61615   0.00000  Uiso   1.00
N597   N     0.16665   0.83332   0.61907   0.00000  Uiso   1.00
N598   N     0.16668   0.83334   0.38093   0.00000  Uiso   1.00
O599   O     0.16666   0.77225   0.53821   0.00000  Uiso   1.00
O600   O     0.16667   0.89442   0.46179   0.00000  Uiso   1.00
O601   O     0.16666   0.77226   0.46176   0.00000  Uiso   1.00
O602   O     0.16667   0.89441   0.53824   0.00000  Uiso   1.00
O603   O     0.09058   0.83333   0.52928   0.00000  Uiso   1.00
O604   O     0.24275   0.83334   0.47072   0.00000  Uiso   1.00
O605   O     0.09058   0.83334   0.45284   0.00000  Uiso   1.00
O606   O     0.24275   0.83333   0.54716   0.00000  Uiso   1.00
Zn607  Zn    0.16667   0.83333   0.55104   0.00000  Uiso   1.00
Zn608  Zn    0.16667   0.83334   0.44896   0.00000  Uiso   1.00
Br609  Br    0.65234   0.78194   0.43980   0.00000  Uiso   1.00
Br610  Br    0.34766   0.88473   0.56020   0.00000  Uiso   1.00
Br611  Br    0.39857   0.94936   0.43958   0.00000  Uiso   1.00
Br612  Br    0.60143   0.71730   0.56042   0.00000  Uiso   1.00
Br613  Br    0.57600   0.90107   0.62530   0.00000  Uiso   1.00
Br614  Br    0.42400   0.76559   0.37470   0.00000  Uiso   1.00
C615   C     0.50080   0.75348   0.49985   0.00000  Uiso   1.00
C616   C     0.54215   0.68847   0.52609   0.00000  Uiso   1.00
C617   C     0.49859   0.95731   0.50046   0.00000  Uiso   1.00
C618   C     0.50141   0.70936   0.49954   0.00000  Uiso   1.00
C619   C     0.53104   0.86079   0.36201   0.00000  Uiso   1.00
C620   C     0.46896   0.80588   0.63799   0.00000  Uiso   1.00
C621   C     0.53112   0.86093   0.64770   0.00000  Uiso   1.00
C622   C     0.46888   0.80574   0.35230   0.00000  Uiso   1.00
C623   C     0.49920   0.91319   0.50015   0.00000  Uiso   1.00
C624   C     0.40051   0.83281   0.48834   0.00000  Uiso   1.00
C625   C     0.59950   0.83386   0.51166   0.00000  Uiso   1.00
C626   C     0.34625   0.82534   0.48382   0.00000  Uiso   1.00
C627   C     0.65375   0.84132   0.51618   0.00000  Uiso   1.00
C628   C     0.45958   0.68803   0.47359   0.00000  Uiso   1.00
C629   C     0.54042   0.97864   0.52641   0.00000  Uiso   1.00
C630   C     0.45785   0.97819   0.47391   0.00000  Uiso   1.00
H631   H     0.42793   0.70495   0.45406   0.00000  Uiso   1.00
H632   H     0.57207   0.96172   0.54594   0.00000  Uiso   1.00
H633   H     0.55587   0.88272   0.38385   0.00000  Uiso   1.00
H634   H     0.44413   0.78395   0.61615   0.00000  Uiso   1.00
N635   N     0.49999   0.83332   0.61907   0.00000  Uiso   1.00
N636   N     0.50001   0.83334   0.38093   0.00000  Uiso   1.00
O637   O     0.50000   0.77225   0.53821   0.00000  Uiso   1.00
O638   O     0.50000   0.89442   0.46179   0.00000  Uiso   1.00
O639   O     0.50000   0.77226   0.46176   0.00000  Uiso   1.00
O640   O     0.50000   0.89441   0.53824   0.00000  Uiso   1.00
O641   O     0.42392   0.83333   0.52928   0.00000  Uiso   1.00
O642   O     0.57608   0.83334   0.47072   0.00000  Uiso   1.00
O643   O     0.42392   0.83334   0.45284   0.00000  Uiso   1.00
O644   O     0.57608   0.83333   0.54716   0.00000  Uiso   1.00
Zn645  Zn    0.50000   0.83333   0.55104   0.00000  Uiso   1.00
Zn646  Zn    0.50000   0.83334   0.44896   0.00000  Uiso   1.00
Br647  Br    0.98567   0.78194   0.43980   0.00000  Uiso   1.00
Br648  Br    0.68099   0.88473   0.56020   0.00000  Uiso   1.00
Br649  Br    0.73191   0.94936   0.43958   0.00000  Uiso   1.00
Br650  Br    0.93476   0.71730   0.56042   0.00000  Uiso   1.00
Br651  Br    0.90934   0.90107   0.62530   0.00000  Uiso   1.00
Br652  Br    0.75733   0.76559   0.37470   0.00000  Uiso   1.00
C653   C     0.83413   0.75348   0.49985   0.00000  Uiso   1.00
C654   C     0.87548   0.68847   0.52609   0.00000  Uiso   1.00
C655   C     0.83193   0.95731   0.50046   0.00000  Uiso   1.00
C656   C     0.83474   0.70936   0.49954   0.00000  Uiso   1.00
C657   C     0.86438   0.86079   0.36201   0.00000  Uiso   1.00
C658   C     0.80229   0.80588   0.63799   0.00000  Uiso   1.00
C659   C     0.86446   0.86093   0.64770   0.00000  Uiso   1.00
C660   C     0.80221   0.80574   0.35230   0.00000  Uiso   1.00
C661   C     0.83253   0.91319   0.50015   0.00000  Uiso   1.00
C662   C     0.73384   0.83281   0.48834   0.00000  Uiso   1.00
C663   C     0.93283   0.83386   0.51166   0.00000  Uiso   1.00
C664   C     0.67959   0.82534   0.48382   0.00000  Uiso   1.00
C665   C     0.98708   0.84132   0.51618   0.00000  Uiso   1.00
C666   C     0.79291   0.68803   0.47359   0.00000  Uiso   1.00
C667   C     0.87376   0.97864   0.52641   0.00000  Uiso   1.00
C668   C     0.79118   0.97819   0.47391   0.00000  Uiso   1.00
H669   H     0.76126   0.70495   0.45406   0.00000  Uiso   1.00
H670   H     0.90540   0.96172   0.54594   0.00000  Uiso   1.00
H671   H     0.88920   0.88272   0.38385   0.00000  Uiso   1.00
H672   H     0.77747   0.78395   0.61615   0.00000  Uiso   1.00
N673   N     0.83332   0.83332   0.61907   0.00000  Uiso   1.00
N674   N     0.83335   0.83334   0.38093   0.00000  Uiso   1.00
O675   O     0.83333   0.77225   0.53821   0.00000  Uiso   1.00
O676   O     0.83334   0.89442   0.46179   0.00000  Uiso   1.00
O677   O     0.83333   0.77226   0.46176   0.00000  Uiso   1.00
O678   O     0.83334   0.89441   0.53824   0.00000  Uiso   1.00
O679   O     0.75725   0.83333   0.52928   0.00000  Uiso   1.00
O680   O     0.90942   0.83334   0.47072   0.00000  Uiso   1.00
O681   O     0.75725   0.83334   0.45284   0.00000  Uiso   1.00
O682   O     0.90942   0.83333   0.54716   0.00000  Uiso   1.00
Zn683  Zn    0.83333   0.83333   0.55104   0.00000  Uiso   1.00
Zn684  Zn    0.83333   0.83334   0.44896   0.00000  Uiso   1.00
Br685  Br    0.31901   0.11527   0.77313   0.00000  Uiso   1.00
Br686  Br    0.01433   0.21806   0.89354   0.00000  Uiso   1.00
Br687  Br    0.06524   0.28270   0.77292   0.00000  Uiso   1.00
Br688  Br    0.26810   0.05064   0.89375   0.00000  Uiso   1.00
Br689  Br    0.24267   0.23441   0.95864   0.00000  Uiso   1.00
Br690  Br    0.09066   0.09893   0.70803   0.00000  Uiso   1.00
C691   C     0.16747   0.08681   0.83318   0.00000  Uiso   1.00
C692   C     0.20882   0.02181   0.85942   0.00000  Uiso   1.00
C693   C     0.16526   0.29064   0.83380   0.00000  Uiso   1.00
C694   C     0.16808   0.04270   0.83287   0.00000  Uiso   1.00
C695   C     0.19771   0.19412   0.69535   0.00000  Uiso   1.00
C696   C     0.13562   0.13921   0.97132   0.00000  Uiso   1.00
C697   C     0.19779   0.19426   0.98103   0.00000  Uiso   1.00
C698   C     0.13554   0.13908   0.68564   0.00000  Uiso   1.00
C699   C     0.16587   0.24652   0.83349   0.00000  Uiso   1.00
C700   C     0.06717   0.16614   0.82167   0.00000  Uiso   1.00
C701   C     0.26616   0.16719   0.84500   0.00000  Uiso   1.00
C702   C     0.01292   0.15868   0.81716   0.00000  Uiso   1.00
C703   C     0.32041   0.17466   0.84951   0.00000  Uiso   1.00
C704   C     0.12624   0.02136   0.80692   0.00000  Uiso   1.00
C705   C     0.20709   0.31197   0.85974   0.00000  Uiso   1.00
C706   C     0.12452   0.31153   0.80724   0.00000  Uiso   1.00
H707   H     0.09460   0.03828   0.78740   0.00000  Uiso   1.00
H708   H     0.23874   0.29505   0.87927   0.00000  Uiso   1.00
H709   H     0.22253   0.21605   0.71719   0.00000  Uiso   1.00
H710   H     0.11080   0.11728   0.94948   0.00000  Uiso   1.00
N711   N     0.16665   0.16666   0.95240   0.00000  Uiso   1.00
N712   N     0.16668   0.16668   0.71427   0.00000  Uiso   1.00
O713   O     0.16666   0.10558   0.87154   0.00000  Uiso   1.00
O714   O     0.16667   0.22775   0.79513   0.00000  Uiso   1.00
O715   O     0.16666   0.10559   0.79510   0.00000  Uiso   1.00
O716   O     0.16667   0.22774   0.87157   0.00000  Uiso   1.00
O717   O     0.09058   0.16666   0.86261   0.00000  Uiso   1.00
O718   O     0.24275   0.16667   0.80405   0.00000  Uiso   1.00
O719   O     0.09058   0.16667   0.78617   0.00000  Uiso   1.00
O720   O     0.24275   0.16666   0.88050   0.00000  Uiso   1.00
Zn721  Zn    0.16667   0.16666   0.88437   0.00000  Uiso   1.00
Zn722  Zn    0.16667   0.16667   0.78229   0.00000  Uiso   1.00
Br723  Br    0.65234   0.11527   0.77313   0.00000  Uiso   1.00
Br724  Br    0.34766   0.21806   0.89354   0.00000  Uiso   1.00
Br725  Br    0.39857   0.28270   0.77292   0.00000  Uiso   1.00
Br726  Br    0.60143   0.05064   0.89375   0.00000  Uiso   1.00
Br727  Br    0.57600   0.23441   0.95864   0.00000  Uiso   1.00
Br728  Br    0.42400   0.09893   0.70803   0.00000  Uiso   1.00
C729   C     0.50080   0.08681   0.83318   0.00000  Uiso   1.00
C730   C     0.54215   0.02181   0.85942   0.00000  Uiso   1.00
C731   C     0.49859   0.29064   0.83380   0.00000  Uiso   1.00
C732   C     0.50141   0.04270   0.83287   0.00000  Uiso   1.00
C733   C     0.53104   0.19412   0.69535   0.00000  Uiso   1.00
C734   C     0.46896   0.13921   0.97132   0.00000  Uiso   1.00
C735   C     0.53112   0.19426   0.98103   0.00000  Uiso   1.00
C736   C     0.46888   0.13908   0.68564   0.00000  Uiso   1.00
C737   C     0.49920   0.24652   0.83349   0.00000  Uiso   1.00
C738   C     0.40051   0.16614   0.82167   0.00000  Uiso   1.00
C739   C     0.59950   0.16719   0.84500   0.00000  Uiso   1.00
C740   C     0.34625   0.15868   0.81716   0.00000  Uiso   1.00
C741   C     0.65375   0.17466   0.84951   0.00000  Uiso   1.00
C742   C     0.45958   0.02136   0.80692   0.00000  Uiso   1.00
C743   C     0.54042   0.31197   0.85974   0.00000  Uiso   1.00
C744   C     0.45785   0.31153   0.80724   0.00000  Uiso   1.00
H745   H     0.42793   0.03828   0.78740   0.00000  Uiso   1.00
H746   H     0.57207   0.29505   0.87927   0.00000  Uiso   1.00
H747   H     0.55587   0.21605   0.71719   0.00000  Uiso   1.00
H748   H     0.44413   0.11728   0.94948   0.00000  Uiso   1.00
N749   N     0.49999   0.16666   0.95240   0.00000  Uiso   1.00
N750   N     0.50001   0.16668   0.71427   0.00000  Uiso   1.00
O751   O     0.50000   0.10558   0.87154   0.00000  Uiso   1.00
O752   O     0.50000   0.22775   0.79513   0.00000  Uiso   1.00
O753   O     0.50000   0.10559   0.79510   0.00000  Uiso   1.00
O754   O     0.50000   0.22774   0.87157   0.00000  Uiso   1.00
O755   O     0.42392   0.16666   0.86261   0.00000  Uiso   1.00
O756   O     0.57608   0.16667   0.80405   0.00000  Uiso   1.00
O757   O     0.42392   0.16667   0.78617   0.00000  Uiso   1.00
O758   O     0.57608   0.16666   0.88050   0.00000  Uiso   1.00
Zn759  Zn    0.50000   0.16666   0.88437   0.00000  Uiso   1.00
Zn760  Zn    0.50000   0.16667   0.78229   0.00000  Uiso   1.00
Br761  Br    0.98567   0.11527   0.77313   0.00000  Uiso   1.00
Br762  Br    0.68099   0.21806   0.89354   0.00000  Uiso   1.00
Br763  Br    0.73191   0.28270   0.77292   0.00000  Uiso   1.00
Br764  Br    0.93476   0.05064   0.89375   0.00000  Uiso   1.00
Br765  Br    0.90934   0.23441   0.95864   0.00000  Uiso   1.00
Br766  Br    0.75733   0.09893   0.70803   0.00000  Uiso   1.00
C767   C     0.83413   0.08681   0.83318   0.00000  Uiso   1.00
C768   C     0.87548   0.02181   0.85942   0.00000  Uiso   1.00
C769   C     0.83193   0.29064   0.83380   0.00000  Uiso   1.00
C770   C     0.83474   0.04270   0.83287   0.00000  Uiso   1.00
C771   C     0.86438   0.19412   0.69535   0.00000  Uiso   1.00
C772   C     0.80229   0.13921   0.97132   0.00000  Uiso   1.00
C773   C     0.86446   0.19426   0.98103   0.00000  Uiso   1.00
C774   C     0.80221   0.13908   0.68564   0.00000  Uiso   1.00
C775   C     0.83253   0.24652   0.83349   0.00000  Uiso   1.00
C776   C     0.73384   0.16614   0.82167   0.00000  Uiso   1.00
C777   C     0.93283   0.16719   0.84500   0.00000  Uiso   1.00
C778   C     0.67959   0.15868   0.81716   0.00000  Uiso   1.00
C779   C     0.98708   0.17466   0.84951   0.00000  Uiso   1.00
C780   C     0.79291   0.02136   0.80692   0.00000  Uiso   1.00
C781   C     0.87376   0.31197   0.85974   0.00000  Uiso   1.00
C782   C     0.79118   0.31153   0.80724   0.00000  Uiso   1.00
H783   H     0.76126   0.03828   0.78740   0.00000  Uiso   1.00
H784   H     0.90540   0.29505   0.87927   0.00000  Uiso   1.00
H785   H     0.88920   0.21605   0.71719   0.00000  Uiso   1.00
H786   H     0.77747   0.11728   0.94948   0.00000  Uiso   1.00
N787   N     0.83332   0.16666   0.95240   0.00000  Uiso   1.00
N788   N     0.83335   0.16668   0.71427   0.00000  Uiso   1.00
O789   O     0.83333   0.10558   0.87154   0.00000  Uiso   1.00
O790   O     0.83334   0.22775   0.79513   0.00000  Uiso   1.00
O791   O     0.83333   0.10559   0.79510   0.00000  Uiso   1.00
O792   O     0.83334   0.22774   0.87157   0.00000  Uiso   1.00
O793   O     0.75725   0.16666   0.86261   0.00000  Uiso   1.00
O794   O     0.90942   0.16667   0.80405   0.00000  Uiso   1.00
O795   O     0.75725   0.16667   0.78617   0.00000  Uiso   1.00
O796   O     0.90942   0.16666   0.88050   0.00000  Uiso   1.00
Zn797  Zn    0.83333   0.16666   0.88437   0.00000  Uiso   1.00
Zn798  Zn    0.83333   0.16667   0.78229   0.00000  Uiso   1.00
Br799  Br    0.31901   0.44861   0.77313   0.00000  Uiso   1.00
Br800  Br    0.01433   0.55139   0.89354   0.00000  Uiso   1.00
Br801  Br    0.06524   0.61603   0.77292   0.00000  Uiso   1.00
Br802  Br    0.26810   0.38397   0.89375   0.00000  Uiso   1.00
Br803  Br    0.24267   0.56774   0.95864   0.00000  Uiso   1.00
Br804  Br    0.09066   0.43226   0.70803   0.00000  Uiso   1.00
C805   C     0.16747   0.42015   0.83318   0.00000  Uiso   1.00
C806   C     0.20882   0.35514   0.85942   0.00000  Uiso   1.00
C807   C     0.16526   0.62397   0.83380   0.00000  Uiso   1.00
C808   C     0.16808   0.37603   0.83287   0.00000  Uiso   1.00
C809   C     0.19771   0.52746   0.69535   0.00000  Uiso   1.00
C810   C     0.13562   0.47254   0.97132   0.00000  Uiso   1.00
C811   C     0.19779   0.52759   0.98103   0.00000  Uiso   1.00
C812   C     0.13554   0.47241   0.68564   0.00000  Uiso   1.00
C813   C     0.16587   0.57985   0.83349   0.00000  Uiso   1.00
C814   C     0.06717   0.49947   0.82167   0.00000  Uiso   1.00
C815   C     0.26616   0.50053   0.84500   0.00000  Uiso   1.00
C816   C     0.01292   0.49201   0.81716   0.00000  Uiso   1.00
C817   C     0.32041   0.50799   0.84951   0.00000  Uiso   1.00
C818   C     0.12624   0.35469   0.80692   0.00000  Uiso   1.00
C819   C     0.20709   0.64531   0.85974   0.00000  Uiso   1.00
C820   C     0.12452   0.64486   0.80724   0.00000  Uiso   1.00
H821   H     0.09460   0.37162   0.78740   0.00000  Uiso   1.00
H822   H     0.23874   0.62838   0.87927   0.00000  Uiso   1.00
H823   H     0.22253   0.54939   0.71719   0.00000  Uiso   1.00
H824   H     0.11080   0.45061   0.94948   0.00000  Uiso   1.00
N825   N     0.16665   0.49999   0.95240   0.00000  Uiso   1.00
N826   N     0.16668   0.50001   0.71427   0.00000  Uiso   1.00
O827   O     0.16666   0.43892   0.87154   0.00000  Uiso   1.00
O828   O     0.16667   0.56108   0.79513   0.00000  Uiso   1.00
O829   O     0.16666   0.43893   0.79510   0.00000  Uiso   1.00
O830   O     0.16667   0.56107   0.87157   0.00000  Uiso   1.00
O831   O     0.09058   0.50000   0.86261   0.00000  Uiso   1.00
O832   O     0.24275   0.50000   0.80405   0.00000  Uiso   1.00
O833   O     0.09058   0.50000   0.78617   0.00000  Uiso   1.00
O834   O     0.24275   0.50000   0.88050   0.00000  Uiso   1.00
Zn835  Zn    0.16667   0.49999   0.88437   0.00000  Uiso   1.00
Zn836  Zn    0.16667   0.50001   0.78229   0.00000  Uiso   1.00
Br837  Br    0.65234   0.44861   0.77313   0.00000  Uiso   1.00
Br838  Br    0.34766   0.55139   0.89354   0.00000  Uiso   1.00
Br839  Br    0.39857   0.61603   0.77292   0.00000  Uiso   1.00
Br840  Br    0.60143   0.38397   0.89375   0.00000  Uiso   1.00
Br841  Br    0.57600   0.56774   0.95864   0.00000  Uiso   1.00
Br842  Br    0.42400   0.43226   0.70803   0.00000  Uiso   1.00
C843   C     0.50080   0.42015   0.83318   0.00000  Uiso   1.00
C844   C     0.54215   0.35514   0.85942   0.00000  Uiso   1.00
C845   C     0.49859   0.62397   0.83380   0.00000  Uiso   1.00
C846   C     0.50141   0.37603   0.83287   0.00000  Uiso   1.00
C847   C     0.53104   0.52746   0.69535   0.00000  Uiso   1.00
C848   C     0.46896   0.47254   0.97132   0.00000  Uiso   1.00
C849   C     0.53112   0.52759   0.98103   0.00000  Uiso   1.00
C850   C     0.46888   0.47241   0.68564   0.00000  Uiso   1.00
C851   C     0.49920   0.57985   0.83349   0.00000  Uiso   1.00
C852   C     0.40051   0.49947   0.82167   0.00000  Uiso   1.00
C853   C     0.59950   0.50053   0.84500   0.00000  Uiso   1.00
C854   C     0.34625   0.49201   0.81716   0.00000  Uiso   1.00
C855   C     0.65375   0.50799   0.84951   0.00000  Uiso   1.00
C856   C     0.45958   0.35469   0.80692   0.00000  Uiso   1.00
C857   C     0.54042   0.64531   0.85974   0.00000  Uiso   1.00
C858   C     0.45785   0.64486   0.80724   0.00000  Uiso   1.00
H859   H     0.42793   0.37162   0.78740   0.00000  Uiso   1.00
H860   H     0.57207   0.62838   0.87927   0.00000  Uiso   1.00
H861   H     0.55587   0.54939   0.71719   0.00000  Uiso   1.00
H862   H     0.44413   0.45061   0.94948   0.00000  Uiso   1.00
N863   N     0.49999   0.49999   0.95240   0.00000  Uiso   1.00
N864   N     0.50001   0.50001   0.71427   0.00000  Uiso   1.00
O865   O     0.50000   0.43892   0.87154   0.00000  Uiso   1.00
O866   O     0.50000   0.56108   0.79513   0.00000  Uiso   1.00
O867   O     0.50000   0.43893   0.79510   0.00000  Uiso   1.00
O868   O     0.50000   0.56107   0.87157   0.00000  Uiso   1.00
O869   O     0.42392   0.50000   0.86261   0.00000  Uiso   1.00
O870   O     0.57608   0.50000   0.80405   0.00000  Uiso   1.00
O871   O     0.42392   0.50000   0.78617   0.00000  Uiso   1.00
O872   O     0.57608   0.50000   0.88050   0.00000  Uiso   1.00
Zn873  Zn    0.50000   0.49999   0.88437   0.00000  Uiso   1.00
Zn874  Zn    0.50000   0.50001   0.78229   0.00000  Uiso   1.00
Br875  Br    0.98567   0.44861   0.77313   0.00000  Uiso   1.00
Br876  Br    0.68099   0.55139   0.89354   0.00000  Uiso   1.00
Br877  Br    0.73191   0.61603   0.77292   0.00000  Uiso   1.00
Br878  Br    0.93476   0.38397   0.89375   0.00000  Uiso   1.00
Br879  Br    0.90934   0.56774   0.95864   0.00000  Uiso   1.00
Br880  Br    0.75733   0.43226   0.70803   0.00000  Uiso   1.00
C881   C     0.83413   0.42015   0.83318   0.00000  Uiso   1.00
C882   C     0.87548   0.35514   0.85942   0.00000  Uiso   1.00
C883   C     0.83193   0.62397   0.83380   0.00000  Uiso   1.00
C884   C     0.83474   0.37603   0.83287   0.00000  Uiso   1.00
C885   C     0.86438   0.52746   0.69535   0.00000  Uiso   1.00
C886   C     0.80229   0.47254   0.97132   0.00000  Uiso   1.00
C887   C     0.86446   0.52759   0.98103   0.00000  Uiso   1.00
C888   C     0.80221   0.47241   0.68564   0.00000  Uiso   1.00
C889   C     0.83253   0.57985   0.83349   0.00000  Uiso   1.00
C890   C     0.73384   0.49947   0.82167   0.00000  Uiso   1.00
C891   C     0.93283   0.50053   0.84500   0.00000  Uiso   1.00
C892   C     0.67959   0.49201   0.81716   0.00000  Uiso   1.00
C893   C     0.98708   0.50799   0.84951   0.00000  Uiso   1.00
C894   C     0.79291   0.35469   0.80692   0.00000  Uiso   1.00
C895   C     0.87376   0.64531   0.85974   0.00000  Uiso   1.00
C896   C     0.79118   0.64486   0.80724   0.00000  Uiso   1.00
H897   H     0.76126   0.37162   0.78740   0.00000  Uiso   1.00
H898   H     0.90540   0.62838   0.87927   0.00000  Uiso   1.00
H899   H     0.88920   0.54939   0.71719   0.00000  Uiso   1.00
H900   H     0.77747   0.45061   0.94948   0.00000  Uiso   1.00
N901   N     0.83332   0.49999   0.95240   0.00000  Uiso   1.00
N902   N     0.83335   0.50001   0.71427   0.00000  Uiso   1.00
O903   O     0.83333   0.43892   0.87154   0.00000  Uiso   1.00
O904   O     0.83334   0.56108   0.79513   0.00000  Uiso   1.00
O905   O     0.83333   0.43893   0.79510   0.00000  Uiso   1.00
O906   O     0.83334   0.56107   0.87157   0.00000  Uiso   1.00
O907   O     0.75725   0.50000   0.86261   0.00000  Uiso   1.00
O908   O     0.90942   0.50000   0.80405   0.00000  Uiso   1.00
O909   O     0.75725   0.50000   0.78617   0.00000  Uiso   1.00
O910   O     0.90942   0.50000   0.88050   0.00000  Uiso   1.00
Zn911  Zn    0.83333   0.49999   0.88437   0.00000  Uiso   1.00
Zn912  Zn    0.83333   0.50001   0.78229   0.00000  Uiso   1.00
Br913  Br    0.31901   0.78194   0.77313   0.00000  Uiso   1.00
Br914  Br    0.01433   0.88473   0.89354   0.00000  Uiso   1.00
Br915  Br    0.06524   0.94936   0.77292   0.00000  Uiso   1.00
Br916  Br    0.26810   0.71730   0.89375   0.00000  Uiso   1.00
Br917  Br    0.24267   0.90107   0.95864   0.00000  Uiso   1.00
Br918  Br    0.09066   0.76559   0.70803   0.00000  Uiso   1.00
C919   C     0.16747   0.75348   0.83318   0.00000  Uiso   1.00
C920   C     0.20882   0.68847   0.85942   0.00000  Uiso   1.00
C921   C     0.16526   0.95731   0.83380   0.00000  Uiso   1.00
C922   C     0.16808   0.70936   0.83287   0.00000  Uiso   1.00
C923   C     0.19771   0.86079   0.69535   0.00000  Uiso   1.00
C924   C     0.13562   0.80588   0.97132   0.00000  Uiso   1.00
C925   C     0.19779   0.86093   0.98103   0.00000  Uiso   1.00
C926   C     0.13554   0.80574   0.68564   0.00000  Uiso   1.00
C927   C     0.16587   0.91319   0.83349   0.00000  Uiso   1.00
C928   C     0.06717   0.83281   0.82167   0.00000  Uiso   1.00
C929   C     0.26616   0.83386   0.84500   0.00000  Uiso   1.00
C930   C     0.01292   0.82534   0.81716   0.00000  Uiso   1.00
C931   C     0.32041   0.84132   0.84951   0.00000  Uiso   1.00
C932   C     0.12624   0.68803   0.80692   0.00000  Uiso   1.00
C933   C     0.20709   0.97864   0.85974   0.00000  Uiso   1.00
C934   C     0.12452   0.97819   0.80724   0.00000  Uiso   1.00
H935   H     0.09460   0.70495   0.78740   0.00000  Uiso   1.00
H936   H     0.23874   0.96172   0.87927   0.00000  Uiso   1.00
H937   H     0.22253   0.88272   0.71719   0.00000  Uiso   1.00
H938   H     0.11080   0.78395   0.94948   0.00000  Uiso   1.00
N939   N     0.16665   0.83332   0.95240   0.00000  Uiso   1.00
N940   N     0.16668   0.83334   0.71427   0.00000  Uiso   1.00
O941   O     0.16666   0.77225   0.87154   0.00000  Uiso   1.00
O942   O     0.16667   0.89442   0.79513   0.00000  Uiso   1.00
O943   O     0.16666   0.77226   0.79510   0.00000  Uiso   1.00
O944   O     0.16667   0.89441   0.87157   0.00000  Uiso   1.00
O945   O     0.09058   0.83333   0.86261   0.00000  Uiso   1.00
O946   O     0.24275   0.83334   0.80405   0.00000  Uiso   1.00
O947   O     0.09058   0.83334   0.78617   0.00000  Uiso   1.00
O948   O     0.24275   0.83333   0.88050   0.00000  Uiso   1.00
Zn949  Zn    0.16667   0.83333   0.88437   0.00000  Uiso   1.00
Zn950  Zn    0.16667   0.83334   0.78229   0.00000  Uiso   1.00
Br951  Br    0.65234   0.78194   0.77313   0.00000  Uiso   1.00
Br952  Br    0.34766   0.88473   0.89354   0.00000  Uiso   1.00
Br953  Br    0.39857   0.94936   0.77292   0.00000  Uiso   1.00
Br954  Br    0.60143   0.71730   0.89375   0.00000  Uiso   1.00
Br955  Br    0.57600   0.90107   0.95864   0.00000  Uiso   1.00
Br956  Br    0.42400   0.76559   0.70803   0.00000  Uiso   1.00
C957   C     0.50080   0.75348   0.83318   0.00000  Uiso   1.00
C958   C     0.54215   0.68847   0.85942   0.00000  Uiso   1.00
C959   C     0.49859   0.95731   0.83380   0.00000  Uiso   1.00
C960   C     0.50141   0.70936   0.83287   0.00000  Uiso   1.00
C961   C     0.53104   0.86079   0.69535   0.00000  Uiso   1.00
C962   C     0.46896   0.80588   0.97132   0.00000  Uiso   1.00
C963   C     0.53112   0.86093   0.98103   0.00000  Uiso   1.00
C964   C     0.46888   0.80574   0.68564   0.00000  Uiso   1.00
C965   C     0.49920   0.91319   0.83349   0.00000  Uiso   1.00
C966   C     0.40051   0.83281   0.82167   0.00000  Uiso   1.00
C967   C     0.59950   0.83386   0.84500   0.00000  Uiso   1.00
C968   C     0.34625   0.82534   0.81716   0.00000  Uiso   1.00
C969   C     0.65375   0.84132   0.84951   0.00000  Uiso   1.00
C970   C     0.45958   0.68803   0.80692   0.00000  Uiso   1.00
C971   C     0.54042   0.97864   0.85974   0.00000  Uiso   1.00
C972   C     0.45785   0.97819   0.80724   0.00000  Uiso   1.00
H973   H     0.42793   0.70495   0.78740   0.00000  Uiso   1.00
H974   H     0.57207   0.96172   0.87927   0.00000  Uiso   1.00
H975   H     0.55587   0.88272   0.71719   0.00000  Uiso   1.00
H976   H     0.44413   0.78395   0.94948   0.00000  Uiso   1.00
N977   N     0.49999   0.83332   0.95240   0.00000  Uiso   1.00
N978   N     0.50001   0.83334   0.71427   0.00000  Uiso   1.00
O979   O     0.50000   0.77225   0.87154   0.00000  Uiso   1.00
O980   O     0.50000   0.89442   0.79513   0.00000  Uiso   1.00
O981   O     0.50000   0.77226   0.79510   0.00000  Uiso   1.00
O982   O     0.50000   0.89441   0.87157   0.00000  Uiso   1.00
O983   O     0.42392   0.83333   0.86261   0.00000  Uiso   1.00
O984   O     0.57608   0.83334   0.80405   0.00000  Uiso   1.00
O985   O     0.42392   0.83334   0.78617   0.00000  Uiso   1.00
O986   O     0.57608   0.83333   0.88050   0.00000  Uiso   1.00
Zn987  Zn    0.50000   0.83333   0.88437   0.00000  Uiso   1.00
Zn988  Zn    0.50000   0.83334   0.78229   0.00000  Uiso   1.00
Br989  Br    0.98567   0.78194   0.77313   0.00000  Uiso   1.00
Br990  Br    0.68099   0.88473   0.89354   0.00000  Uiso   1.00
Br991  Br    0.73191   0.94936   0.77292   0.00000  Uiso   1.00
Br992  Br    0.93476   0.71730   0.89375   0.00000  Uiso   1.00
Br993  Br    0.90934   0.90107   0.95864   0.00000  Uiso   1.00
Br994  Br    0.75733   0.76559   0.70803   0.00000  Uiso   1.00
C995   C     0.83413   0.75348   0.83318   0.00000  Uiso   1.00
C996   C     0.87548   0.68847   0.85942   0.00000  Uiso   1.00
C997   C     0.83193   0.95731   0.83380   0.00000  Uiso   1.00
C998   C     0.83474   0.70936   0.83287   0.00000  Uiso   1.00
C999   C     0.86438   0.86079   0.69535   0.00000  Uiso   1.00
C1000  C     0.80229   0.80588   0.97132   0.00000  Uiso   1.00
C1001  C     0.86446   0.86093   0.98103   0.00000  Uiso   1.00
C1002  C     0.80221   0.80574   0.68564   0.00000  Uiso   1.00
C1003  C     0.83253   0.91319   0.83349   0.00000  Uiso   1.00
C1004  C     0.73384   0.83281   0.82167   0.00000  Uiso   1.00
C1005  C     0.93283   0.83386   0.84500   0.00000  Uiso   1.00
C1006  C     0.67959   0.82534   0.81716   0.00000  Uiso   1.00
C1007  C     0.98708   0.84132   0.84951   0.00000  Uiso   1.00
C1008  C     0.79291   0.68803   0.80692   0.00000  Uiso   1.00
C1009  C     0.87376   0.97864   0.85974   0.00000  Uiso   1.00
C1010  C     0.79118   0.97819   0.80724   0.00000  Uiso   1.00
H1011  H     0.76126   0.70495   0.78740   0.00000  Uiso   1.00
H1012  H     0.90540   0.96172   0.87927   0.00000  Uiso   1.00
H1013  H     0.88920   0.88272   0.71719   0.00000  Uiso   1.00
H1014  H     0.77747   0.78395   0.94948   0.00000  Uiso   1.00
N1015  N     0.83332   0.83332   0.95240   0.00000  Uiso   1.00
N1016  N     0.83335   0.83334   0.71427   0.00000  Uiso   1.00
O1017  O     0.83333   0.77225   0.87154   0.00000  Uiso   1.00
O1018  O     0.83334   0.89442   0.79513   0.00000  Uiso   1.00
O1019  O     0.83333   0.77226   0.79510   0.00000  Uiso   1.00
O1020  O     0.83334   0.89441   0.87157   0.00000  Uiso   1.00
O1021  O     0.75725   0.83333   0.86261   0.00000  Uiso   1.00
O1022  O     0.90942   0.83334   0.80405   0.00000  Uiso   1.00
O1023  O     0.75725   0.83334   0.78617   0.00000  Uiso   1.00
O1024  O     0.90942   0.83333   0.88050   0.00000  Uiso   1.00
Zn1025 Zn    0.83333   0.83333   0.88437   0.00000  Uiso   1.00
Zn1026 Zn    0.83333   0.83334   0.78229   0.00000  Uiso   1.00
loop_
_geom_bond_atom_site_label_1
_geom_bond_atom_site_label_2
_geom_bond_distance
_geom_bond_site_symmetry_2
_ccdc_geom_bond_type
Br1    C56     1.940   .     S
Br2    C95     1.940   1_455 S
Br3    C22     1.923   .     S
Br4    C8      1.923   .     S
Br5    C13     1.905   .     S
Br6    C14     1.905   .     S
C7     C10     1.404   .     S
C7     O29     1.282   .     A
C7     O31     1.284   .     A
C8     C10     1.399   .     A
C8     C249    1.374   1_545 S
C9     C15     1.404   .     S
C9     C21     1.393   .     A
C9     C22     1.399   .     A
C10    C20     1.393   .     A
C11    N28     1.359   .     A
C11    H25     1.082   .     S
C11    C697    1.416   1_554 S
C12    H26     1.082   .     S
C12    N27     1.359   .     A
C12    C356    1.416   .     S
C13    N27     1.378   .     A
C13    C353    1.416   .     S
C14    N28     1.378   .     A
C14    C696    1.416   1_554 S
C15    O32     1.284   .     A
C15    O30     1.282   .     A
C16    O33     1.275   .     A
C16    O35     1.291   .     A
C16    C18     1.403   .     S
C17    O36     1.291   .     A
C17    C19     1.403   .     S
C17    O34     1.275   .     A
C18    Br77    1.940   1_455 S
C18    C95     1.346   1_455 S
C19    C56     1.346   .     S
C19    Br40    1.940   .     S
C20    H23     1.084   .     S
C20    C250    1.374   1_545 S
C21    H24     1.084   .     S
C21    C122    1.374   .     S
C22    C134    1.374   .     S
N27    Zn37    2.021   .     S
N28    Zn38    2.021   .     S
O29    Zn37    1.976   .     S
O30    Zn38    1.976   .     S
O31    Zn38    1.986   .     S
O32    Zn37    1.986   .     S
O33    Zn37    1.975   .     S
O34    Zn38    1.975   .     S
O35    Zn38    1.984   .     S
O36    Zn37    1.984   .     S
Br39   C94     1.940   .     S
Br41   C60     1.923   .     S
Br42   C46     1.923   .     S
Br43   C51     1.905   .     S
Br44   C52     1.905   .     S
C45    C48     1.404   .     S
C45    O67     1.282   .     A
C45    O69     1.284   .     A
C46    C48     1.399   .     A
C46    C287    1.374   1_545 S
C47    C53     1.404   .     S
C47    C59     1.393   .     A
C47    C60     1.399   .     A
C48    C58     1.393   .     A
C49    N66     1.359   .     A
C49    H63     1.082   .     S
C49    C735    1.416   1_554 S
C50    H64     1.082   .     S
C50    N65     1.359   .     A
C50    C394    1.416   .     S
C51    N65     1.378   .     A
C51    C391    1.416   .     S
C52    N66     1.378   .     A
C52    C734    1.416   1_554 S
C53    O70     1.284   .     A
C53    O68     1.282   .     A
C54    O71     1.275   .     A
C54    O73     1.291   .     A
C54    C56     1.403   .     S
C55    O74     1.291   .     A
C55    C57     1.403   .     S
C55    O72     1.275   .     A
C57    C94     1.346   .     S
C57    Br78    1.940   .     S
C58    H61     1.084   .     S
C58    C288    1.374   1_545 S
C59    H62     1.084   .     S
C59    C160    1.374   .     S
C60    C172    1.374   .     S
N65    Zn75    2.021   .     S
N66    Zn76    2.021   .     S
O67    Zn75    1.976   .     S
O68    Zn76    1.976   .     S
O69    Zn76    1.986   .     S
O70    Zn75    1.986   .     S
O71    Zn75    1.975   .     S
O72    Zn76    1.975   .     S
O73    Zn76    1.984   .     S
O74    Zn75    1.984   .     S
Br77   C18     1.940   1_655 S
Br79   C98     1.923   .     S
Br80   C84     1.923   .     S
Br81   C89     1.905   .     S
Br82   C90     1.905   .     S
C83    C86     1.404   .     S
C83    O105    1.282   .     A
C83    O107    1.284   .     A
C84    C86     1.399   .     A
C84    C325    1.374   1_545 S
C85    C91     1.404   .     S
C85    C97     1.393   .     A
C85    C98     1.399   .     A
C86    C96     1.393   .     A
C87    N104    1.359   .     A
C87    H101    1.082   .     S
C87    C773    1.416   1_554 S
C88    H102    1.082   .     S
C88    N103    1.359   .     A
C88    C432    1.416   .     S
C89    N103    1.378   .     A
C89    C429    1.416   .     S
C90    N104    1.378   .     A
C90    C772    1.416   1_554 S
C91    O108    1.284   .     A
C91    O106    1.282   .     A
C92    O109    1.275   .     A
C92    O111    1.291   .     A
C92    C94     1.403   .     S
C93    O112    1.291   .     A
C93    C95     1.403   .     S
C93    O110    1.275   .     A
C95    C18     1.346   1_655 S
C95    Br2     1.940   1_655 S
C96    H99     1.084   .     S
C96    C326    1.374   1_545 S
C97    H100    1.084   .     S
C97    C198    1.374   .     S
C98    C210    1.374   .     S
N103   Zn113   2.021   .     S
N104   Zn114   2.021   .     S
O105   Zn113   1.976   .     S
O106   Zn114   1.976   .     S
O107   Zn114   1.986   .     S
O108   Zn113   1.986   .     S
O109   Zn113   1.975   .     S
O110   Zn114   1.975   .     S
O111   Zn114   1.984   .     S
O112   Zn113   1.984   .     S
Br115  C170    1.940   .     S
Br116  C209    1.940   1_455 S
Br117  C136    1.923   .     S
Br118  C122    1.923   .     S
Br119  C127    1.905   .     S
Br120  C128    1.905   .     S
C121   C124    1.404   .     S
C121   O143    1.282   .     A
C121   O145    1.284   .     A
C122   C124    1.399   .     A
C123   C129    1.404   .     S
C123   C135    1.393   .     A
C123   C136    1.399   .     A
C124   C134    1.393   .     A
C125   N142    1.359   .     A
C125   H139    1.082   .     S
C125   C811    1.416   1_554 S
C126   H140    1.082   .     S
C126   N141    1.359   .     A
C126   C470    1.416   .     S
C127   N141    1.378   .     A
C127   C467    1.416   .     S
C128   N142    1.378   .     A
C128   C810    1.416   1_554 S
C129   O146    1.284   .     A
C129   O144    1.282   .     A
C130   O147    1.275   .     A
C130   O149    1.291   .     A
C130   C132    1.403   .     S
C131   O150    1.291   .     A
C131   C133    1.403   .     S
C131   O148    1.275   .     A
C132   Br191   1.940   1_455 S
C132   C209    1.346   1_455 S
C133   C170    1.346   .     S
C133   Br154   1.940   .     S
C134   H137    1.084   .     S
C135   H138    1.084   .     S
C135   C236    1.374   .     S
C136   C248    1.374   .     S
N141   Zn151   2.021   .     S
N142   Zn152   2.021   .     S
O143   Zn151   1.976   .     S
O144   Zn152   1.976   .     S
O145   Zn152   1.986   .     S
O146   Zn151   1.986   .     S
O147   Zn151   1.975   .     S
O148   Zn152   1.975   .     S
O149   Zn152   1.984   .     S
O150   Zn151   1.984   .     S
Br153  C208    1.940   .     S
Br155  C174    1.923   .     S
Br156  C160    1.923   .     S
Br157  C165    1.905   .     S
Br158  C166    1.905   .     S
C159   C162    1.404   .     S
C159   O181    1.282   .     A
C159   O183    1.284   .     A
C160   C162    1.399   .     A
C161   C167    1.404   .     S
C161   C173    1.393   .     A
C161   C174    1.399   .     A
C162   C172    1.393   .     A
C163   N180    1.359   .     A
C163   H177    1.082   .     S
C163   C849    1.416   1_554 S
C164   H178    1.082   .     S
C164   N179    1.359   .     A
C164   C508    1.416   .     S
C165   N179    1.378   .     A
C165   C505    1.416   .     S
C166   N180    1.378   .     A
C166   C848    1.416   1_554 S
C167   O184    1.284   .     A
C167   O182    1.282   .     A
C168   O185    1.275   .     A
C168   O187    1.291   .     A
C168   C170    1.403   .     S
C169   O188    1.291   .     A
C169   C171    1.403   .     S
C169   O186    1.275   .     A
C171   C208    1.346   .     S
C171   Br192   1.940   .     S
C172   H175    1.084   .     S
C173   H176    1.084   .     S
C173   C274    1.374   .     S
C174   C286    1.374   .     S
N179   Zn189   2.021   .     S
N180   Zn190   2.021   .     S
O181   Zn189   1.976   .     S
O182   Zn190   1.976   .     S
O183   Zn190   1.986   .     S
O184   Zn189   1.986   .     S
O185   Zn189   1.975   .     S
O186   Zn190   1.975   .     S
O187   Zn190   1.984   .     S
O188   Zn189   1.984   .     S
Br191  C132    1.940   1_655 S
Br193  C212    1.923   .     S
Br194  C198    1.923   .     S
Br195  C203    1.905   .     S
Br196  C204    1.905   .     S
C197   C200    1.404   .     S
C197   O219    1.282   .     A
C197   O221    1.284   .     A
C198   C200    1.399   .     A
C199   C205    1.404   .     S
C199   C211    1.393   .     A
C199   C212    1.399   .     A
C200   C210    1.393   .     A
C201   N218    1.359   .     A
C201   H215    1.082   .     S
C201   C887    1.416   1_554 S
C202   H216    1.082   .     S
C202   N217    1.359   .     A
C202   C546    1.416   .     S
C203   N217    1.378   .     A
C203   C543    1.416   .     S
C204   N218    1.378   .     A
C204   C886    1.416   1_554 S
C205   O222    1.284   .     A
C205   O220    1.282   .     A
C206   O223    1.275   .     A
C206   O225    1.291   .     A
C206   C208    1.403   .     S
C207   O226    1.291   .     A
C207   C209    1.403   .     S
C207   O224    1.275   .     A
C209   C132    1.346   1_655 S
C209   Br116   1.940   1_655 S
C210   H213    1.084   .     S
C211   H214    1.084   .     S
C211   C312    1.374   .     S
C212   C324    1.374   .     S
N217   Zn227   2.021   .     S
N218   Zn228   2.021   .     S
O219   Zn227   1.976   .     S
O220   Zn228   1.976   .     S
O221   Zn228   1.986   .     S
O222   Zn227   1.986   .     S
O223   Zn227   1.975   .     S
O224   Zn228   1.975   .     S
O225   Zn228   1.984   .     S
O226   Zn227   1.984   .     S
Br229  C284    1.940   .     S
Br230  C323    1.940   1_455 S
Br231  C250    1.923   .     S
Br232  C236    1.923   .     S
Br233  C241    1.905   .     S
Br234  C242    1.905   .     S
C235   C238    1.404   .     S
C235   O257    1.282   .     A
C235   O259    1.284   .     A
C236   C238    1.399   .     A
C237   C243    1.404   .     S
C237   C249    1.393   .     A
C237   C250    1.399   .     A
C238   C248    1.393   .     A
C239   N256    1.359   .     A
C239   H253    1.082   .     S
C239   C925    1.416   1_554 S
C240   H254    1.082   .     S
C240   N255    1.359   .     A
C240   C584    1.416   .     S
C241   N255    1.378   .     A
C241   C581    1.416   .     S
C242   N256    1.378   .     A
C242   C924    1.416   1_554 S
C243   O260    1.284   .     A
C243   O258    1.282   .     A
C244   O261    1.275   .     A
C244   O263    1.291   .     A
C244   C246    1.403   .     S
C245   O264    1.291   .     A
C245   C247    1.403   .     S
C245   O262    1.275   .     A
C246   Br305   1.940   1_455 S
C246   C323    1.346   1_455 S
C247   C284    1.346   .     S
C247   Br268   1.940   .     S
C248   H251    1.084   .     S
C249   H252    1.084   .     S
C249   C8      1.374   1_565 S
C250   C20     1.374   1_565 S
N255   Zn265   2.021   .     S
N256   Zn266   2.021   .     S
O257   Zn265   1.976   .     S
O258   Zn266   1.976   .     S
O259   Zn266   1.986   .     S
O260   Zn265   1.986   .     S
O261   Zn265   1.975   .     S
O262   Zn266   1.975   .     S
O263   Zn266   1.984   .     S
O264   Zn265   1.984   .     S
Br267  C322    1.940   .     S
Br269  C288    1.923   .     S
Br270  C274    1.923   .     S
Br271  C279    1.905   .     S
Br272  C280    1.905   .     S
C273   C276    1.404   .     S
C273   O295    1.282   .     A
C273   O297    1.284   .     A
C274   C276    1.399   .     A
C275   C281    1.404   .     S
C275   C287    1.393   .     A
C275   C288    1.399   .     A
C276   C286    1.393   .     A
C277   N294    1.359   .     A
C277   H291    1.082   .     S
C277   C963    1.416   1_554 S
C278   H292    1.082   .     S
C278   N293    1.359   .     A
C278   C622    1.416   .     S
C279   N293    1.378   .     A
C279   C619    1.416   .     S
C280   N294    1.378   .     A
C280   C962    1.416   1_554 S
C281   O298    1.284   .     A
C281   O296    1.282   .     A
C282   O299    1.275   .     A
C282   O301    1.291   .     A
C282   C284    1.403   .     S
C283   O302    1.291   .     A
C283   C285    1.403   .     S
C283   O300    1.275   .     A
C285   C322    1.346   .     S
C285   Br306   1.940   .     S
C286   H289    1.084   .     S
C287   H290    1.084   .     S
C287   C46     1.374   1_565 S
C288   C58     1.374   1_565 S
N293   Zn303   2.021   .     S
N294   Zn304   2.021   .     S
O295   Zn303   1.976   .     S
O296   Zn304   1.976   .     S
O297   Zn304   1.986   .     S
O298   Zn303   1.986   .     S
O299   Zn303   1.975   .     S
O300   Zn304   1.975   .     S
O301   Zn304   1.984   .     S
O302   Zn303   1.984   .     S
Br305  C246    1.940   1_655 S
Br307  C326    1.923   .     S
Br308  C312    1.923   .     S
Br309  C317    1.905   .     S
Br310  C318    1.905   .     S
C311   C314    1.404   .     S
C311   O333    1.282   .     A
C311   O335    1.284   .     A
C312   C314    1.399   .     A
C313   C319    1.404   .     S
C313   C325    1.393   .     A
C313   C326    1.399   .     A
C314   C324    1.393   .     A
C315   N332    1.359   .     A
C315   H329    1.082   .     S
C315   C1001   1.416   1_554 S
C316   H330    1.082   .     S
C316   N331    1.359   .     A
C316   C660    1.416   .     S
C317   N331    1.378   .     A
C317   C657    1.416   .     S
C318   N332    1.378   .     A
C318   C1000   1.416   1_554 S
C319   O336    1.284   .     A
C319   O334    1.282   .     A
C320   O337    1.275   .     A
C320   O339    1.291   .     A
C320   C322    1.403   .     S
C321   O340    1.291   .     A
C321   C323    1.403   .     S
C321   O338    1.275   .     A
C323   C246    1.346   1_655 S
C323   Br230   1.940   1_655 S
C324   H327    1.084   .     S
C325   H328    1.084   .     S
C325   C84     1.374   1_565 S
C326   C96     1.374   1_565 S
N331   Zn341   2.021   .     S
N332   Zn342   2.021   .     S
O333   Zn341   1.976   .     S
O334   Zn342   1.976   .     S
O335   Zn342   1.986   .     S
O336   Zn341   1.986   .     S
O337   Zn341   1.975   .     S
O338   Zn342   1.975   .     S
O339   Zn342   1.984   .     S
O340   Zn341   1.984   .     S
Br343  C398    1.940   .     S
Br344  C437    1.940   1_455 S
Br345  C364    1.923   .     S
Br346  C350    1.923   .     S
Br347  C355    1.905   .     S
Br348  C356    1.905   .     S
C349   C352    1.404   .     S
C349   O371    1.282   .     A
C349   O373    1.284   .     A
C350   C352    1.399   .     A
C350   C591    1.374   1_545 S
C351   C357    1.404   .     S
C351   C363    1.393   .     A
C351   C364    1.399   .     A
C352   C362    1.393   .     A
C353   N370    1.359   .     A
C353   H367    1.082   .     S
C354   H368    1.082   .     S
C354   N369    1.359   .     A
C354   C698    1.416   .     S
C355   N369    1.378   .     A
C355   C695    1.416   .     S
C356   N370    1.378   .     A
C357   O374    1.284   .     A
C357   O372    1.282   .     A
C358   O375    1.275   .     A
C358   O377    1.291   .     A
C358   C360    1.403   .     S
C359   O378    1.291   .     A
C359   C361    1.403   .     S
C359   O376    1.275   .     A
C360   Br419   1.940   1_455 S
C360   C437    1.346   1_455 S
C361   C398    1.346   .     S
C361   Br382   1.940   .     S
C362   H365    1.084   .     S
C362   C592    1.374   1_545 S
C363   H366    1.084   .     S
C363   C464    1.374   .     S
C364   C476    1.374   .     S
N369   Zn379   2.021   .     S
N370   Zn380   2.021   .     S
O371   Zn379   1.976   .     S
O372   Zn380   1.976   .     S
O373   Zn380   1.986   .     S
O374   Zn379   1.986   .     S
O375   Zn379   1.975   .     S
O376   Zn380   1.975   .     S
O377   Zn380   1.984   .     S
O378   Zn379   1.984   .     S
Br381  C436    1.940   .     S
Br383  C402    1.923   .     S
Br384  C388    1.923   .     S
Br385  C393    1.905   .     S
Br386  C394    1.905   .     S
C387   C390    1.404   .     S
C387   O409    1.282   .     A
C387   O411    1.284   .     A
C388   C390    1.399   .     A
C388   C629    1.374   1_545 S
C389   C395    1.404   .     S
C389   C401    1.393   .     A
C389   C402    1.399   .     A
C390   C400    1.393   .     A
C391   N408    1.359   .     A
C391   H405    1.082   .     S
C392   H406    1.082   .     S
C392   N407    1.359   .     A
C392   C736    1.416   .     S
C393   N407    1.378   .     A
C393   C733    1.416   .     S
C394   N408    1.378   .     A
C395   O412    1.284   .     A
C395   O410    1.282   .     A
C396   O413    1.275   .     A
C396   O415    1.291   .     A
C396   C398    1.403   .     S
C397   O416    1.291   .     A
C397   C399    1.403   .     S
C397   O414    1.275   .     A
C399   C436    1.346   .     S
C399   Br420   1.940   .     S
C400   H403    1.084   .     S
C400   C630    1.374   1_545 S
C401   H404    1.084   .     S
C401   C502    1.374   .     S
C402   C514    1.374   .     S
N407   Zn417   2.021   .     S
N408   Zn418   2.021   .     S
O409   Zn417   1.976   .     S
O410   Zn418   1.976   .     S
O411   Zn418   1.986   .     S
O412   Zn417   1.986   .     S
O413   Zn417   1.975   .     S
O414   Zn418   1.975   .     S
O415   Zn418   1.984   .     S
O416   Zn417   1.984   .     S
Br419  C360    1.940   1_655 S
Br421  C440    1.923   .     S
Br422  C426    1.923   .     S
Br423  C431    1.905   .     S
Br424  C432    1.905   .     S
C425   C428    1.404   .     S
C425   O447    1.282   .     A
C425   O449    1.284   .     A
C426   C428    1.399   .     A
C426   C667    1.374   1_545 S
C427   C433    1.404   .     S
C427   C439    1.393   .     A
C427   C440    1.399   .     A
C428   C438    1.393   .     A
C429   N446    1.359   .     A
C429   H443    1.082   .     S
C430   H444    1.082   .     S
C430   N445    1.359   .     A
C430   C774    1.416   .     S
C431   N445    1.378   .     A
C431   C771    1.416   .     S
C432   N446    1.378   .     A
C433   O450    1.284   .     A
C433   O448    1.282   .     A
C434   O451    1.275   .     A
C434   O453    1.291   .     A
C434   C436    1.403   .     S
C435   O454    1.291   .     A
C435   C437    1.403   .     S
C435   O452    1.275   .     A
C437   C360    1.346   1_655 S
C437   Br344   1.940   1_655 S
C438   H441    1.084   .     S
C438   C668    1.374   1_545 S
C439   H442    1.084   .     S
C439   C540    1.374   .     S
C440   C552    1.374   .     S
N445   Zn455   2.021   .     S
N446   Zn456   2.021   .     S
O447   Zn455   1.976   .     S
O448   Zn456   1.976   .     S
O449   Zn456   1.986   .     S
O450   Zn455   1.986   .     S
O451   Zn455   1.975   .     S
O452   Zn456   1.975   .     S
O453   Zn456   1.984   .     S
O454   Zn455   1.984   .     S
Br457  C512    1.940   .     S
Br458  C551    1.940   1_455 S
Br459  C478    1.923   .     S
Br460  C464    1.923   .     S
Br461  C469    1.905   .     S
Br462  C470    1.905   .     S
C463   C466    1.404   .     S
C463   O485    1.282   .     A
C463   O487    1.284   .     A
C464   C466    1.399   .     A
C465   C471    1.404   .     S
C465   C477    1.393   .     A
C465   C478    1.399   .     A
C466   C476    1.393   .     A
C467   N484    1.359   .     A
C467   H481    1.082   .     S
C468   H482    1.082   .     S
C468   N483    1.359   .     A
C468   C812    1.416   .     S
C469   N483    1.378   .     A
C469   C809    1.416   .     S
C470   N484    1.378   .     A
C471   O488    1.284   .     A
C471   O486    1.282   .     A
C472   O489    1.275   .     A
C472   O491    1.291   .     A
C472   C474    1.403   .     S
C473   O492    1.291   .     A
C473   C475    1.403   .     S
C473   O490    1.275   .     A
C474   Br533   1.940   1_455 S
C474   C551    1.346   1_455 S
C475   C512    1.346   .     S
C475   Br496   1.940   .     S
C476   H479    1.084   .     S
C477   H480    1.084   .     S
C477   C578    1.374   .     S
C478   C590    1.374   .     S
N483   Zn493   2.021   .     S
N484   Zn494   2.021   .     S
O485   Zn493   1.976   .     S
O486   Zn494   1.976   .     S
O487   Zn494   1.986   .     S
O488   Zn493   1.986   .     S
O489   Zn493   1.975   .     S
O490   Zn494   1.975   .     S
O491   Zn494   1.984   .     S
O492   Zn493   1.984   .     S
Br495  C550    1.940   .     S
Br497  C516    1.923   .     S
Br498  C502    1.923   .     S
Br499  C507    1.905   .     S
Br500  C508    1.905   .     S
C501   C504    1.404   .     S
C501   O523    1.282   .     A
C501   O525    1.284   .     A
C502   C504    1.399   .     A
C503   C509    1.404   .     S
C503   C515    1.393   .     A
C503   C516    1.399   .     A
C504   C514    1.393   .     A
C505   N522    1.359   .     A
C505   H519    1.082   .     S
C506   H520    1.082   .     S
C506   N521    1.359   .     A
C506   C850    1.416   .     S
C507   N521    1.378   .     A
C507   C847    1.416   .     S
C508   N522    1.378   .     A
C509   O526    1.284   .     A
C509   O524    1.282   .     A
C510   O527    1.275   .     A
C510   O529    1.291   .     A
C510   C512    1.403   .     S
C511   O530    1.291   .     A
C511   C513    1.403   .     S
C511   O528    1.275   .     A
C513   C550    1.346   .     S
C513   Br534   1.940   .     S
C514   H517    1.084   .     S
C515   H518    1.084   .     S
C515   C616    1.374   .     S
C516   C628    1.374   .     S
N521   Zn531   2.021   .     S
N522   Zn532   2.021   .     S
O523   Zn531   1.976   .     S
O524   Zn532   1.976   .     S
O525   Zn532   1.986   .     S
O526   Zn531   1.986   .     S
O527   Zn531   1.975   .     S
O528   Zn532   1.975   .     S
O529   Zn532   1.984   .     S
O530   Zn531   1.984   .     S
Br533  C474    1.940   1_655 S
Br535  C554    1.923   .     S
Br536  C540    1.923   .     S
Br537  C545    1.905   .     S
Br538  C546    1.905   .     S
C539   C542    1.404   .     S
C539   O561    1.282   .     A
C539   O563    1.284   .     A
C540   C542    1.399   .     A
C541   C547    1.404   .     S
C541   C553    1.393   .     A
C541   C554    1.399   .     A
C542   C552    1.393   .     A
C543   N560    1.359   .     A
C543   H557    1.082   .     S
C544   H558    1.082   .     S
C544   N559    1.359   .     A
C544   C888    1.416   .     S
C545   N559    1.378   .     A
C545   C885    1.416   .     S
C546   N560    1.378   .     A
C547   O564    1.284   .     A
C547   O562    1.282   .     A
C548   O565    1.275   .     A
C548   O567    1.291   .     A
C548   C550    1.403   .     S
C549   O568    1.291   .     A
C549   C551    1.403   .     S
C549   O566    1.275   .     A
C551   C474    1.346   1_655 S
C551   Br458   1.940   1_655 S
C552   H555    1.084   .     S
C553   H556    1.084   .     S
C553   C654    1.374   .     S
C554   C666    1.374   .     S
N559   Zn569   2.021   .     S
N560   Zn570   2.021   .     S
O561   Zn569   1.976   .     S
O562   Zn570   1.976   .     S
O563   Zn570   1.986   .     S
O564   Zn569   1.986   .     S
O565   Zn569   1.975   .     S
O566   Zn570   1.975   .     S
O567   Zn570   1.984   .     S
O568   Zn569   1.984   .     S
Br571  C626    1.940   .     S
Br572  C665    1.940   1_455 S
Br573  C592    1.923   .     S
Br574  C578    1.923   .     S
Br575  C583    1.905   .     S
Br576  C584    1.905   .     S
C577   C580    1.404   .     S
C577   O599    1.282   .     A
C577   O601    1.284   .     A
C578   C580    1.399   .     A
C579   C585    1.404   .     S
C579   C591    1.393   .     A
C579   C592    1.399   .     A
C580   C590    1.393   .     A
C581   N598    1.359   .     A
C581   H595    1.082   .     S
C582   H596    1.082   .     S
C582   N597    1.359   .     A
C582   C926    1.416   .     S
C583   N597    1.378   .     A
C583   C923    1.416   .     S
C584   N598    1.378   .     A
C585   O602    1.284   .     A
C585   O600    1.282   .     A
C586   O603    1.275   .     A
C586   O605    1.291   .     A
C586   C588    1.403   .     S
C587   O606    1.291   .     A
C587   C589    1.403   .     S
C587   O604    1.275   .     A
C588   Br647   1.940   1_455 S
C588   C665    1.346   1_455 S
C589   C626    1.346   .     S
C589   Br610   1.940   .     S
C590   H593    1.084   .     S
C591   H594    1.084   .     S
C591   C350    1.374   1_565 S
C592   C362    1.374   1_565 S
N597   Zn607   2.021   .     S
N598   Zn608   2.021   .     S
O599   Zn607   1.976   .     S
O600   Zn608   1.976   .     S
O601   Zn608   1.986   .     S
O602   Zn607   1.986   .     S
O603   Zn607   1.975   .     S
O604   Zn608   1.975   .     S
O605   Zn608   1.984   .     S
O606   Zn607   1.984   .     S
Br609  C664    1.940   .     S
Br611  C630    1.923   .     S
Br612  C616    1.923   .     S
Br613  C621    1.905   .     S
Br614  C622    1.905   .     S
C615   C618    1.404   .     S
C615   O637    1.282   .     A
C615   O639    1.284   .     A
C616   C618    1.399   .     A
C617   C623    1.404   .     S
C617   C629    1.393   .     A
C617   C630    1.399   .     A
C618   C628    1.393   .     A
C619   N636    1.359   .     A
C619   H633    1.082   .     S
C620   H634    1.082   .     S
C620   N635    1.359   .     A
C620   C964    1.416   .     S
C621   N635    1.378   .     A
C621   C961    1.416   .     S
C622   N636    1.378   .     A
C623   O640    1.284   .     A
C623   O638    1.282   .     A
C624   O641    1.275   .     A
C624   O643    1.291   .     A
C624   C626    1.403   .     S
C625   O644    1.291   .     A
C625   C627    1.403   .     S
C625   O642    1.275   .     A
C627   C664    1.346   .     S
C627   Br648   1.940   .     S
C628   H631    1.084   .     S
C629   H632    1.084   .     S
C629   C388    1.374   1_565 S
C630   C400    1.374   1_565 S
N635   Zn645   2.021   .     S
N636   Zn646   2.021   .     S
O637   Zn645   1.976   .     S
O638   Zn646   1.976   .     S
O639   Zn646   1.986   .     S
O640   Zn645   1.986   .     S
O641   Zn645   1.975   .     S
O642   Zn646   1.975   .     S
O643   Zn646   1.984   .     S
O644   Zn645   1.984   .     S
Br647  C588    1.940   1_655 S
Br649  C668    1.923   .     S
Br650  C654    1.923   .     S
Br651  C659    1.905   .     S
Br652  C660    1.905   .     S
C653   C656    1.404   .     S
C653   O675    1.282   .     A
C653   O677    1.284   .     A
C654   C656    1.399   .     A
C655   C661    1.404   .     S
C655   C667    1.393   .     A
C655   C668    1.399   .     A
C656   C666    1.393   .     A
C657   N674    1.359   .     A
C657   H671    1.082   .     S
C658   H672    1.082   .     S
C658   N673    1.359   .     A
C658   C1002   1.416   .     S
C659   N673    1.378   .     A
C659   C999    1.416   .     S
C660   N674    1.378   .     A
C661   O678    1.284   .     A
C661   O676    1.282   .     A
C662   O679    1.275   .     A
C662   O681    1.291   .     A
C662   C664    1.403   .     S
C663   O682    1.291   .     A
C663   C665    1.403   .     S
C663   O680    1.275   .     A
C665   C588    1.346   1_655 S
C665   Br572   1.940   1_655 S
C666   H669    1.084   .     S
C667   H670    1.084   .     S
C667   C426    1.374   1_565 S
C668   C438    1.374   1_565 S
N673   Zn683   2.021   .     S
N674   Zn684   2.021   .     S
O675   Zn683   1.976   .     S
O676   Zn684   1.976   .     S
O677   Zn684   1.986   .     S
O678   Zn683   1.986   .     S
O679   Zn683   1.975   .     S
O680   Zn684   1.975   .     S
O681   Zn684   1.984   .     S
O682   Zn683   1.984   .     S
Br685  C740    1.940   .     S
Br686  C779    1.940   1_455 S
Br687  C706    1.923   .     S
Br688  C692    1.923   .     S
Br689  C697    1.905   .     S
Br690  C698    1.905   .     S
C691   C694    1.404   .     S
C691   O713    1.282   .     A
C691   O715    1.284   .     A
C692   C694    1.399   .     A
C692   C933    1.374   1_545 S
C693   C699    1.404   .     S
C693   C705    1.393   .     A
C693   C706    1.399   .     A
C694   C704    1.393   .     A
C695   N712    1.359   .     A
C695   H709    1.082   .     S
C696   H710    1.082   .     S
C696   N711    1.359   .     A
C696   C14     1.416   1_556 S
C697   N711    1.378   .     A
C697   C11     1.416   1_556 S
C698   N712    1.378   .     A
C699   O716    1.284   .     A
C699   O714    1.282   .     A
C700   O717    1.275   .     A
C700   O719    1.291   .     A
C700   C702    1.403   .     S
C701   O720    1.291   .     A
C701   C703    1.403   .     S
C701   O718    1.275   .     A
C702   Br761   1.940   1_455 S
C702   C779    1.346   1_455 S
C703   C740    1.346   .     S
C703   Br724   1.940   .     S
C704   H707    1.084   .     S
C704   C934    1.374   1_545 S
C705   H708    1.084   .     S
C705   C806    1.374   .     S
C706   C818    1.374   .     S
N711   Zn721   2.021   .     S
N712   Zn722   2.021   .     S
O713   Zn721   1.976   .     S
O714   Zn722   1.976   .     S
O715   Zn722   1.986   .     S
O716   Zn721   1.986   .     S
O717   Zn721   1.975   .     S
O718   Zn722   1.975   .     S
O719   Zn722   1.984   .     S
O720   Zn721   1.984   .     S
Br723  C778    1.940   .     S
Br725  C744    1.923   .     S
Br726  C730    1.923   .     S
Br727  C735    1.905   .     S
Br728  C736    1.905   .     S
C729   C732    1.404   .     S
C729   O751    1.282   .     A
C729   O753    1.284   .     A
C730   C732    1.399   .     A
C730   C971    1.374   1_545 S
C731   C737    1.404   .     S
C731   C743    1.393   .     A
C731   C744    1.399   .     A
C732   C742    1.393   .     A
C733   N750    1.359   .     A
C733   H747    1.082   .     S
C734   H748    1.082   .     S
C734   N749    1.359   .     A
C734   C52     1.416   1_556 S
C735   N749    1.378   .     A
C735   C49     1.416   1_556 S
C736   N750    1.378   .     A
C737   O754    1.284   .     A
C737   O752    1.282   .     A
C738   O755    1.275   .     A
C738   O757    1.291   .     A
C738   C740    1.403   .     S
C739   O758    1.291   .     A
C739   C741    1.403   .     S
C739   O756    1.275   .     A
C741   C778    1.346   .     S
C741   Br762   1.940   .     S
C742   H745    1.084   .     S
C742   C972    1.374   1_545 S
C743   H746    1.084   .     S
C743   C844    1.374   .     S
C744   C856    1.374   .     S
N749   Zn759   2.021   .     S
N750   Zn760   2.021   .     S
O751   Zn759   1.976   .     S
O752   Zn760   1.976   .     S
O753   Zn760   1.986   .     S
O754   Zn759   1.986   .     S
O755   Zn759   1.975   .     S
O756   Zn760   1.975   .     S
O757   Zn760   1.984   .     S
O758   Zn759   1.984   .     S
Br761  C702    1.940   1_655 S
Br763  C782    1.923   .     S
Br764  C768    1.923   .     S
Br765  C773    1.905   .     S
Br766  C774    1.905   .     S
C767   C770    1.404   .     S
C767   O789    1.282   .     A
C767   O791    1.284   .     A
C768   C770    1.399   .     A
C768   C1009   1.374   1_545 S
C769   C775    1.404   .     S
C769   C781    1.393   .     A
C769   C782    1.399   .     A
C770   C780    1.393   .     A
C771   N788    1.359   .     A
C771   H785    1.082   .     S
C772   H786    1.082   .     S
C772   N787    1.359   .     A
C772   C90     1.416   1_556 S
C773   N787    1.378   .     A
C773   C87     1.416   1_556 S
C774   N788    1.378   .     A
C775   O792    1.284   .     A
C775   O790    1.282   .     A
C776   O793    1.275   .     A
C776   O795    1.291   .     A
C776   C778    1.403   .     S
C777   O796    1.291   .     A
C777   C779    1.403   .     S
C777   O794    1.275   .     A
C779   C702    1.346   1_655 S
C779   Br686   1.940   1_655 S
C780   H783    1.084   .     S
C780   C1010   1.374   1_545 S
C781   H784    1.084   .     S
C781   C882    1.374   .     S
C782   C894    1.374   .     S
N787   Zn797   2.021   .     S
N788   Zn798   2.021   .     S
O789   Zn797   1.976   .     S
O790   Zn798   1.976   .     S
O791   Zn798   1.986   .     S
O792   Zn797   1.986   .     S
O793   Zn797   1.975   .     S
O794   Zn798   1.975   .     S
O795   Zn798   1.984   .     S
O796   Zn797   1.984   .     S
Br799  C854    1.940   .     S
Br800  C893    1.940   1_455 S
Br801  C820    1.923   .     S
Br802  C806    1.923   .     S
Br803  C811    1.905   .     S
Br804  C812    1.905   .     S
C805   C808    1.404   .     S
C805   O827    1.282   .     A
C805   O829    1.284   .     A
C806   C808    1.399   .     A
C807   C813    1.404   .     S
C807   C819    1.393   .     A
C807   C820    1.399   .     A
C808   C818    1.393   .     A
C809   N826    1.359   .     A
C809   H823    1.082   .     S
C810   H824    1.082   .     S
C810   N825    1.359   .     A
C810   C128    1.416   1_556 S
C811   N825    1.378   .     A
C811   C125    1.416   1_556 S
C812   N826    1.378   .     A
C813   O830    1.284   .     A
C813   O828    1.282   .     A
C814   O831    1.275   .     A
C814   O833    1.291   .     A
C814   C816    1.403   .     S
C815   O834    1.291   .     A
C815   C817    1.403   .     S
C815   O832    1.275   .     A
C816   Br875   1.940   1_455 S
C816   C893    1.346   1_455 S
C817   C854    1.346   .     S
C817   Br838   1.940   .     S
C818   H821    1.084   .     S
C819   H822    1.084   .     S
C819   C920    1.374   .     S
C820   C932    1.374   .     S
N825   Zn835   2.021   .     S
N826   Zn836   2.021   .     S
O827   Zn835   1.976   .     S
O828   Zn836   1.976   .     S
O829   Zn836   1.986   .     S
O830   Zn835   1.986   .     S
O831   Zn835   1.975   .     S
O832   Zn836   1.975   .     S
O833   Zn836   1.984   .     S
O834   Zn835   1.984   .     S
Br837  C892    1.940   .     S
Br839  C858    1.923   .     S
Br840  C844    1.923   .     S
Br841  C849    1.905   .     S
Br842  C850    1.905   .     S
C843   C846    1.404   .     S
C843   O865    1.282   .     A
C843   O867    1.284   .     A
C844   C846    1.399   .     A
C845   C851    1.404   .     S
C845   C857    1.393   .     A
C845   C858    1.399   .     A
C846   C856    1.393   .     A
C847   N864    1.359   .     A
C847   H861    1.082   .     S
C848   H862    1.082   .     S
C848   N863    1.359   .     A
C848   C166    1.416   1_556 S
C849   N863    1.378   .     A
C849   C163    1.416   1_556 S
C850   N864    1.378   .     A
C851   O868    1.284   .     A
C851   O866    1.282   .     A
C852   O869    1.275   .     A
C852   O871    1.291   .     A
C852   C854    1.403   .     S
C853   O872    1.291   .     A
C853   C855    1.403   .     S
C853   O870    1.275   .     A
C855   C892    1.346   .     S
C855   Br876   1.940   .     S
C856   H859    1.084   .     S
C857   H860    1.084   .     S
C857   C958    1.374   .     S
C858   C970    1.374   .     S
N863   Zn873   2.021   .     S
N864   Zn874   2.021   .     S
O865   Zn873   1.976   .     S
O866   Zn874   1.976   .     S
O867   Zn874   1.986   .     S
O868   Zn873   1.986   .     S
O869   Zn873   1.975   .     S
O870   Zn874   1.975   .     S
O871   Zn874   1.984   .     S
O872   Zn873   1.984   .     S
Br875  C816    1.940   1_655 S
Br877  C896    1.923   .     S
Br878  C882    1.923   .     S
Br879  C887    1.905   .     S
Br880  C888    1.905   .     S
C881   C884    1.404   .     S
C881   O903    1.282   .     A
C881   O905    1.284   .     A
C882   C884    1.399   .     A
C883   C889    1.404   .     S
C883   C895    1.393   .     A
C883   C896    1.399   .     A
C884   C894    1.393   .     A
C885   N902    1.359   .     A
C885   H899    1.082   .     S
C886   H900    1.082   .     S
C886   N901    1.359   .     A
C886   C204    1.416   1_556 S
C887   N901    1.378   .     A
C887   C201    1.416   1_556 S
C888   N902    1.378   .     A
C889   O906    1.284   .     A
C889   O904    1.282   .     A
C890   O907    1.275   .     A
C890   O909    1.291   .     A
C890   C892    1.403   .     S
C891   O910    1.291   .     A
C891   C893    1.403   .     S
C891   O908    1.275   .     A
C893   C816    1.346   1_655 S
C893   Br800   1.940   1_655 S
C894   H897    1.084   .     S
C895   H898    1.084   .     S
C895   C996    1.374   .     S
C896   C1008   1.374   .     S
N901   Zn911   2.021   .     S
N902   Zn912   2.021   .     S
O903   Zn911   1.976   .     S
O904   Zn912   1.976   .     S
O905   Zn912   1.986   .     S
O906   Zn911   1.986   .     S
O907   Zn911   1.975   .     S
O908   Zn912   1.975   .     S
O909   Zn912   1.984   .     S
O910   Zn911   1.984   .     S
Br913  C968    1.940   .     S
Br914  C1007   1.940   1_455 S
Br915  C934    1.923   .     S
Br916  C920    1.923   .     S
Br917  C925    1.905   .     S
Br918  C926    1.905   .     S
C919   C922    1.404   .     S
C919   O941    1.282   .     A
C919   O943    1.284   .     A
C920   C922    1.399   .     A
C921   C927    1.404   .     S
C921   C933    1.393   .     A
C921   C934    1.399   .     A
C922   C932    1.393   .     A
C923   N940    1.359   .     A
C923   H937    1.082   .     S
C924   H938    1.082   .     S
C924   N939    1.359   .     A
C924   C242    1.416   1_556 S
C925   N939    1.378   .     A
C925   C239    1.416   1_556 S
C926   N940    1.378   .     A
C927   O944    1.284   .     A
C927   O942    1.282   .     A
C928   O945    1.275   .     A
C928   O947    1.291   .     A
C928   C930    1.403   .     S
C929   O948    1.291   .     A
C929   C931    1.403   .     S
C929   O946    1.275   .     A
C930   Br989   1.940   1_455 S
C930   C1007   1.346   1_455 S
C931   C968    1.346   .     S
C931   Br952   1.940   .     S
C932   H935    1.084   .     S
C933   H936    1.084   .     S
C933   C692    1.374   1_565 S
C934   C704    1.374   1_565 S
N939   Zn949   2.021   .     S
N940   Zn950   2.021   .     S
O941   Zn949   1.976   .     S
O942   Zn950   1.976   .     S
O943   Zn950   1.986   .     S
O944   Zn949   1.986   .     S
O945   Zn949   1.975   .     S
O946   Zn950   1.975   .     S
O947   Zn950   1.984   .     S
O948   Zn949   1.984   .     S
Br951  C1006   1.940   .     S
Br953  C972    1.923   .     S
Br954  C958    1.923   .     S
Br955  C963    1.905   .     S
Br956  C964    1.905   .     S
C957   C960    1.404   .     S
C957   O979    1.282   .     A
C957   O981    1.284   .     A
C958   C960    1.399   .     A
C959   C965    1.404   .     S
C959   C971    1.393   .     A
C959   C972    1.399   .     A
C960   C970    1.393   .     A
C961   N978    1.359   .     A
C961   H975    1.082   .     S
C962   H976    1.082   .     S
C962   N977    1.359   .     A
C962   C280    1.416   1_556 S
C963   N977    1.378   .     A
C963   C277    1.416   1_556 S
C964   N978    1.378   .     A
C965   O982    1.284   .     A
C965   O980    1.282   .     A
C966   O983    1.275   .     A
C966   O985    1.291   .     A
C966   C968    1.403   .     S
C967   O986    1.291   .     A
C967   C969    1.403   .     S
C967   O984    1.275   .     A
C969   C1006   1.346   .     S
C969   Br990   1.940   .     S
C970   H973    1.084   .     S
C971   H974    1.084   .     S
C971   C730    1.374   1_565 S
C972   C742    1.374   1_565 S
N977   Zn987   2.021   .     S
N978   Zn988   2.021   .     S
O979   Zn987   1.976   .     S
O980   Zn988   1.976   .     S
O981   Zn988   1.986   .     S
O982   Zn987   1.986   .     S
O983   Zn987   1.975   .     S
O984   Zn988   1.975   .     S
O985   Zn988   1.984   .     S
O986   Zn987   1.984   .     S
Br989  C930    1.940   1_655 S
Br991  C1010   1.923   .     S
Br992  C996    1.923   .     S
Br993  C1001   1.905   .     S
Br994  C1002   1.905   .     S
C995   C998    1.404   .     S
C995   O1017   1.282   .     A
C995   O1019   1.284   .     A
C996   C998    1.399   .     A
C997   C1003   1.404   .     S
C997   C1009   1.393   .     A
C997   C1010   1.399   .     A
C998   C1008   1.393   .     A
C999   N1016   1.359   .     A
C999   H1013   1.082   .     S
C1000  H1014   1.082   .     S
C1000  N1015   1.359   .     A
C1000  C318    1.416   1_556 S
C1001  N1015   1.378   .     A
C1001  C315    1.416   1_556 S
C1002  N1016   1.378   .     A
C1003  O1020   1.284   .     A
C1003  O1018   1.282   .     A
C1004  O1021   1.275   .     A
C1004  O1023   1.291   .     A
C1004  C1006   1.403   .     S
C1005  O1024   1.291   .     A
C1005  C1007   1.403   .     S
C1005  O1022   1.275   .     A
C1007  C930    1.346   1_655 S
C1007  Br914   1.940   1_655 S
C1008  H1011   1.084   .     S
C1009  H1012   1.084   .     S
C1009  C768    1.374   1_565 S
C1010  C780    1.374   1_565 S
N1015  Zn1025  2.021   .     S
N1016  Zn1026  2.021   .     S
O1017  Zn1025  1.976   .     S
O1018  Zn1026  1.976   .     S
O1019  Zn1026  1.986   .     S
O1020  Zn1025  1.986   .     S
O1021  Zn1025  1.975   .     S
O1022  Zn1026  1.975   .     S
O1023  Zn1026  1.984   .     S
O1024  Zn1025  1.984   .     S
