data_str_m3_o1_o10_pcu_sym.119
_audit_creation_date              2020-01-03
_audit_creation_method            'Materials Studio'
_symmetry_space_group_name_H-M    'P1'
_symmetry_Int_Tables_number       1
_symmetry_cell_setting            triclinic
loop_
_symmetry_equiv_pos_as_xyz
  x,y,z
_cell_length_a                    25.7448
_cell_length_b                    32.2851
_cell_length_c                    29.7061
_cell_angle_alpha                 90.1829
_cell_angle_beta                  96.3075
_cell_angle_gamma                 90.4409
loop_
_atom_site_label
_atom_site_type_symbol
_atom_site_fract_x
_atom_site_fract_y
_atom_site_fract_z
_atom_site_U_iso_or_equiv
_atom_site_adp_type
_atom_site_occupancy
C1     C     0.16782   0.08673   0.16644   0.00000  Uiso   1.00
C2     C     0.16551   0.24660   0.16690   0.00000  Uiso   1.00
C3     C     0.06759   0.16524   0.15571   0.00000  Uiso   1.00
C4     C     0.26574   0.16810   0.17763   0.00000  Uiso   1.00
C5     C     0.01416   0.15603   0.15288   0.00000  Uiso   1.00
C6     C     0.31917   0.17730   0.18046   0.00000  Uiso   1.00
C7     C     0.18737   0.02008   0.13015   0.00000  Uiso   1.00
C8     C     0.14596   0.31325   0.20319   0.00000  Uiso   1.00
C9     C     0.18562   0.31087   0.13191   0.00000  Uiso   1.00
C10    C     0.14771   0.02246   0.20142   0.00000  Uiso   1.00
C11    C     0.16527   0.29082   0.16770   0.00000  Uiso   1.00
C12    C     0.16806   0.04252   0.16563   0.00000  Uiso   1.00
C13    C     0.20442   0.18803   0.02692   0.00000  Uiso   1.00
C14    C     0.12891   0.14531   0.30641   0.00000  Uiso   1.00
C15    C     0.20390   0.18787   0.31244   0.00000  Uiso   1.00
C16    C     0.12944   0.14546   0.02089   0.00000  Uiso   1.00
H17    H     0.20073   0.29323   0.10521   0.00000  Uiso   1.00
H18    H     0.13260   0.04010   0.22812   0.00000  Uiso   1.00
H19    H     0.23362   0.20451   0.29653   0.00000  Uiso   1.00
H20    H     0.09971   0.12883   0.03680   0.00000  Uiso   1.00
N21    N     0.16665   0.16666   0.28573   0.00000  Uiso   1.00
N22    N     0.16668   0.16668   0.04760   0.00000  Uiso   1.00
O23    O     0.16666   0.10558   0.20487   0.00000  Uiso   1.00
O24    O     0.16667   0.22775   0.12846   0.00000  Uiso   1.00
O25    O     0.16666   0.10559   0.12843   0.00000  Uiso   1.00
O26    O     0.16667   0.22774   0.20490   0.00000  Uiso   1.00
O27    O     0.09058   0.16666   0.19595   0.00000  Uiso   1.00
O28    O     0.24275   0.16667   0.13739   0.00000  Uiso   1.00
O29    O     0.09058   0.16667   0.11950   0.00000  Uiso   1.00
O30    O     0.24275   0.16666   0.21383   0.00000  Uiso   1.00
Zn31   Zn    0.16667   0.16666   0.21771   0.00000  Uiso   1.00
Zn32   Zn    0.16667   0.16667   0.11563   0.00000  Uiso   1.00
C33    C     0.32924   0.11661   0.12760   0.00000  Uiso   1.00
H34    H     0.02924   0.09958   0.11569   0.00000  Uiso   1.00
H35    H     0.31038   0.09552   0.15052   0.00000  Uiso   1.00
H36    H     0.30171   0.12361   0.09730   0.00000  Uiso   1.00
C37    C     0.00409   0.21673   0.20573   0.00000  Uiso   1.00
H38    H     0.30410   0.23375   0.21764   0.00000  Uiso   1.00
H39    H     0.03162   0.20973   0.23603   0.00000  Uiso   1.00
H40    H     0.02295   0.23781   0.18281   0.00000  Uiso   1.00
C41    C     0.21050   0.03981   0.09066   0.00000  Uiso   1.00
H42    H     0.24149   0.06227   0.10314   0.00000  Uiso   1.00
H43    H     0.22868   0.01663   0.06966   0.00000  Uiso   1.00
H44    H     0.17951   0.05551   0.06813   0.00000  Uiso   1.00
C45    C     0.12283   0.29352   0.24267   0.00000  Uiso   1.00
H46    H     0.09184   0.27106   0.23019   0.00000  Uiso   1.00
H47    H     0.15382   0.27783   0.26520   0.00000  Uiso   1.00
H48    H     0.10465   0.31670   0.26367   0.00000  Uiso   1.00
C49    C     0.24844   0.21098   0.05378   0.00000  Uiso   1.00
H50    H     0.26782   0.23301   0.03216   0.00000  Uiso   1.00
H51    H     0.23452   0.22950   0.08109   0.00000  Uiso   1.00
H52    H     0.27857   0.18886   0.06770   0.00000  Uiso   1.00
C53    C     0.08489   0.12236   0.27956   0.00000  Uiso   1.00
H54    H     0.06551   0.10034   0.30117   0.00000  Uiso   1.00
H55    H     0.05476   0.14448   0.26564   0.00000  Uiso   1.00
H56    H     0.09880   0.10384   0.25223   0.00000  Uiso   1.00
C57    C     0.50115   0.08673   0.16644   0.00000  Uiso   1.00
C58    C     0.49884   0.24660   0.16690   0.00000  Uiso   1.00
C59    C     0.40092   0.16524   0.15571   0.00000  Uiso   1.00
C60    C     0.59908   0.16810   0.17763   0.00000  Uiso   1.00
C61    C     0.34750   0.15603   0.15288   0.00000  Uiso   1.00
C62    C     0.65250   0.17730   0.18046   0.00000  Uiso   1.00
C63    C     0.52070   0.02008   0.13015   0.00000  Uiso   1.00
C64    C     0.47929   0.31325   0.20319   0.00000  Uiso   1.00
C65    C     0.51896   0.31087   0.13191   0.00000  Uiso   1.00
C66    C     0.48104   0.02246   0.20142   0.00000  Uiso   1.00
C67    C     0.49860   0.29082   0.16770   0.00000  Uiso   1.00
C68    C     0.50139   0.04252   0.16563   0.00000  Uiso   1.00
C69    C     0.53776   0.18803   0.02692   0.00000  Uiso   1.00
C70    C     0.46224   0.14531   0.30641   0.00000  Uiso   1.00
C71    C     0.53723   0.18787   0.31244   0.00000  Uiso   1.00
C72    C     0.46277   0.14546   0.02089   0.00000  Uiso   1.00
H73    H     0.53407   0.29323   0.10521   0.00000  Uiso   1.00
H74    H     0.46593   0.04010   0.22812   0.00000  Uiso   1.00
H75    H     0.56695   0.20451   0.29653   0.00000  Uiso   1.00
H76    H     0.43305   0.12883   0.03680   0.00000  Uiso   1.00
N77    N     0.49999   0.16666   0.28573   0.00000  Uiso   1.00
N78    N     0.50001   0.16668   0.04760   0.00000  Uiso   1.00
O79    O     0.50000   0.10558   0.20487   0.00000  Uiso   1.00
O80    O     0.50000   0.22775   0.12846   0.00000  Uiso   1.00
O81    O     0.50000   0.10559   0.12843   0.00000  Uiso   1.00
O82    O     0.50000   0.22774   0.20490   0.00000  Uiso   1.00
O83    O     0.42392   0.16666   0.19595   0.00000  Uiso   1.00
O84    O     0.57608   0.16667   0.13739   0.00000  Uiso   1.00
O85    O     0.42392   0.16667   0.11950   0.00000  Uiso   1.00
O86    O     0.57608   0.16666   0.21383   0.00000  Uiso   1.00
Zn87   Zn    0.50000   0.16666   0.21771   0.00000  Uiso   1.00
Zn88   Zn    0.50000   0.16667   0.11563   0.00000  Uiso   1.00
C89    C     0.66257   0.11661   0.12760   0.00000  Uiso   1.00
H90    H     0.36257   0.09958   0.11569   0.00000  Uiso   1.00
H91    H     0.64372   0.09552   0.15052   0.00000  Uiso   1.00
H92    H     0.63505   0.12361   0.09730   0.00000  Uiso   1.00
C93    C     0.33743   0.21673   0.20573   0.00000  Uiso   1.00
H94    H     0.63743   0.23375   0.21764   0.00000  Uiso   1.00
H95    H     0.36495   0.20973   0.23603   0.00000  Uiso   1.00
H96    H     0.35628   0.23781   0.18281   0.00000  Uiso   1.00
C97    C     0.54384   0.03981   0.09066   0.00000  Uiso   1.00
H98    H     0.57482   0.06227   0.10314   0.00000  Uiso   1.00
H99    H     0.56201   0.01663   0.06966   0.00000  Uiso   1.00
H100   H     0.51284   0.05551   0.06813   0.00000  Uiso   1.00
C101   C     0.45616   0.29352   0.24267   0.00000  Uiso   1.00
H102   H     0.42518   0.27106   0.23019   0.00000  Uiso   1.00
H103   H     0.48716   0.27783   0.26520   0.00000  Uiso   1.00
H104   H     0.43798   0.31670   0.26367   0.00000  Uiso   1.00
C105   C     0.58177   0.21098   0.05378   0.00000  Uiso   1.00
H106   H     0.60115   0.23301   0.03216   0.00000  Uiso   1.00
H107   H     0.56785   0.22950   0.08109   0.00000  Uiso   1.00
H108   H     0.61190   0.18886   0.06770   0.00000  Uiso   1.00
C109   C     0.41822   0.12236   0.27956   0.00000  Uiso   1.00
H110   H     0.39884   0.10034   0.30117   0.00000  Uiso   1.00
H111   H     0.38810   0.14448   0.26564   0.00000  Uiso   1.00
H112   H     0.43213   0.10384   0.25223   0.00000  Uiso   1.00
C113   C     0.83449   0.08673   0.16644   0.00000  Uiso   1.00
C114   C     0.83218   0.24660   0.16690   0.00000  Uiso   1.00
C115   C     0.73426   0.16524   0.15571   0.00000  Uiso   1.00
C116   C     0.93241   0.16810   0.17763   0.00000  Uiso   1.00
C117   C     0.68083   0.15603   0.15288   0.00000  Uiso   1.00
C118   C     0.98584   0.17730   0.18046   0.00000  Uiso   1.00
C119   C     0.85404   0.02008   0.13015   0.00000  Uiso   1.00
C120   C     0.81263   0.31325   0.20319   0.00000  Uiso   1.00
C121   C     0.85229   0.31087   0.13191   0.00000  Uiso   1.00
C122   C     0.81437   0.02246   0.20142   0.00000  Uiso   1.00
C123   C     0.83194   0.29082   0.16770   0.00000  Uiso   1.00
C124   C     0.83473   0.04252   0.16563   0.00000  Uiso   1.00
C125   C     0.87109   0.18803   0.02692   0.00000  Uiso   1.00
C126   C     0.79558   0.14531   0.30641   0.00000  Uiso   1.00
C127   C     0.87057   0.18787   0.31244   0.00000  Uiso   1.00
C128   C     0.79610   0.14546   0.02089   0.00000  Uiso   1.00
H129   H     0.86740   0.29323   0.10521   0.00000  Uiso   1.00
H130   H     0.79926   0.04010   0.22812   0.00000  Uiso   1.00
H131   H     0.90029   0.20451   0.29653   0.00000  Uiso   1.00
H132   H     0.76638   0.12883   0.03680   0.00000  Uiso   1.00
N133   N     0.83332   0.16666   0.28573   0.00000  Uiso   1.00
N134   N     0.83335   0.16668   0.04760   0.00000  Uiso   1.00
O135   O     0.83333   0.10558   0.20487   0.00000  Uiso   1.00
O136   O     0.83334   0.22775   0.12846   0.00000  Uiso   1.00
O137   O     0.83333   0.10559   0.12843   0.00000  Uiso   1.00
O138   O     0.83334   0.22774   0.20490   0.00000  Uiso   1.00
O139   O     0.75725   0.16666   0.19595   0.00000  Uiso   1.00
O140   O     0.90942   0.16667   0.13739   0.00000  Uiso   1.00
O141   O     0.75725   0.16667   0.11950   0.00000  Uiso   1.00
O142   O     0.90942   0.16666   0.21383   0.00000  Uiso   1.00
Zn143  Zn    0.83333   0.16666   0.21771   0.00000  Uiso   1.00
Zn144  Zn    0.83333   0.16667   0.11563   0.00000  Uiso   1.00
C145   C     0.99591   0.11661   0.12760   0.00000  Uiso   1.00
H146   H     0.69590   0.09958   0.11569   0.00000  Uiso   1.00
H147   H     0.97705   0.09552   0.15052   0.00000  Uiso   1.00
H148   H     0.96838   0.12361   0.09730   0.00000  Uiso   1.00
C149   C     0.67076   0.21673   0.20573   0.00000  Uiso   1.00
H150   H     0.97076   0.23375   0.21764   0.00000  Uiso   1.00
H151   H     0.69828   0.20973   0.23603   0.00000  Uiso   1.00
H152   H     0.68962   0.23781   0.18281   0.00000  Uiso   1.00
C153   C     0.87717   0.03981   0.09066   0.00000  Uiso   1.00
H154   H     0.90816   0.06227   0.10314   0.00000  Uiso   1.00
H155   H     0.89534   0.01663   0.06966   0.00000  Uiso   1.00
H156   H     0.84617   0.05551   0.06813   0.00000  Uiso   1.00
C157   C     0.78949   0.29352   0.24267   0.00000  Uiso   1.00
H158   H     0.75851   0.27106   0.23019   0.00000  Uiso   1.00
H159   H     0.82049   0.27783   0.26520   0.00000  Uiso   1.00
H160   H     0.77132   0.31670   0.26367   0.00000  Uiso   1.00
C161   C     0.91511   0.21098   0.05378   0.00000  Uiso   1.00
H162   H     0.93448   0.23301   0.03216   0.00000  Uiso   1.00
H163   H     0.90119   0.22950   0.08109   0.00000  Uiso   1.00
H164   H     0.94523   0.18886   0.06770   0.00000  Uiso   1.00
C165   C     0.75155   0.12236   0.27956   0.00000  Uiso   1.00
H166   H     0.73218   0.10034   0.30117   0.00000  Uiso   1.00
H167   H     0.72143   0.14448   0.26564   0.00000  Uiso   1.00
H168   H     0.76547   0.10384   0.25223   0.00000  Uiso   1.00
C169   C     0.16782   0.42006   0.16644   0.00000  Uiso   1.00
C170   C     0.16551   0.57994   0.16690   0.00000  Uiso   1.00
C171   C     0.06759   0.49857   0.15571   0.00000  Uiso   1.00
C172   C     0.26574   0.50143   0.17763   0.00000  Uiso   1.00
C173   C     0.01416   0.48937   0.15288   0.00000  Uiso   1.00
C174   C     0.31917   0.51063   0.18046   0.00000  Uiso   1.00
C175   C     0.18737   0.35341   0.13015   0.00000  Uiso   1.00
C176   C     0.14596   0.64659   0.20319   0.00000  Uiso   1.00
C177   C     0.18562   0.64420   0.13191   0.00000  Uiso   1.00
C178   C     0.14771   0.35580   0.20142   0.00000  Uiso   1.00
C179   C     0.16527   0.62415   0.16770   0.00000  Uiso   1.00
C180   C     0.16806   0.37585   0.16563   0.00000  Uiso   1.00
C181   C     0.20442   0.52136   0.02692   0.00000  Uiso   1.00
C182   C     0.12891   0.47864   0.30641   0.00000  Uiso   1.00
C183   C     0.20390   0.52121   0.31244   0.00000  Uiso   1.00
C184   C     0.12944   0.47879   0.02089   0.00000  Uiso   1.00
H185   H     0.20073   0.62657   0.10521   0.00000  Uiso   1.00
H186   H     0.13260   0.37343   0.22812   0.00000  Uiso   1.00
H187   H     0.23362   0.53784   0.29653   0.00000  Uiso   1.00
H188   H     0.09971   0.46216   0.03680   0.00000  Uiso   1.00
N189   N     0.16665   0.49999   0.28573   0.00000  Uiso   1.00
N190   N     0.16668   0.50001   0.04760   0.00000  Uiso   1.00
O191   O     0.16666   0.43892   0.20487   0.00000  Uiso   1.00
O192   O     0.16667   0.56108   0.12846   0.00000  Uiso   1.00
O193   O     0.16666   0.43893   0.12843   0.00000  Uiso   1.00
O194   O     0.16667   0.56107   0.20490   0.00000  Uiso   1.00
O195   O     0.09058   0.50000   0.19595   0.00000  Uiso   1.00
O196   O     0.24275   0.50000   0.13739   0.00000  Uiso   1.00
O197   O     0.09058   0.50000   0.11950   0.00000  Uiso   1.00
O198   O     0.24275   0.50000   0.21383   0.00000  Uiso   1.00
Zn199  Zn    0.16667   0.49999   0.21771   0.00000  Uiso   1.00
Zn200  Zn    0.16667   0.50001   0.11563   0.00000  Uiso   1.00
C201   C     0.32924   0.44994   0.12760   0.00000  Uiso   1.00
H202   H     0.02924   0.43292   0.11569   0.00000  Uiso   1.00
H203   H     0.31038   0.42886   0.15052   0.00000  Uiso   1.00
H204   H     0.30171   0.45694   0.09730   0.00000  Uiso   1.00
C205   C     0.00409   0.55006   0.20573   0.00000  Uiso   1.00
H206   H     0.30410   0.56709   0.21764   0.00000  Uiso   1.00
H207   H     0.03162   0.54306   0.23603   0.00000  Uiso   1.00
H208   H     0.02295   0.57114   0.18281   0.00000  Uiso   1.00
C209   C     0.21050   0.37315   0.09066   0.00000  Uiso   1.00
H210   H     0.24149   0.39561   0.10314   0.00000  Uiso   1.00
H211   H     0.22868   0.34997   0.06966   0.00000  Uiso   1.00
H212   H     0.17951   0.38884   0.06813   0.00000  Uiso   1.00
C213   C     0.12283   0.62685   0.24267   0.00000  Uiso   1.00
H214   H     0.09184   0.60439   0.23019   0.00000  Uiso   1.00
H215   H     0.15382   0.61116   0.26520   0.00000  Uiso   1.00
H216   H     0.10465   0.65003   0.26367   0.00000  Uiso   1.00
C217   C     0.24844   0.54432   0.05378   0.00000  Uiso   1.00
H218   H     0.26782   0.56634   0.03216   0.00000  Uiso   1.00
H219   H     0.23452   0.56283   0.08109   0.00000  Uiso   1.00
H220   H     0.27857   0.52220   0.06770   0.00000  Uiso   1.00
C221   C     0.08489   0.45569   0.27956   0.00000  Uiso   1.00
H222   H     0.06551   0.43367   0.30117   0.00000  Uiso   1.00
H223   H     0.05476   0.47781   0.26564   0.00000  Uiso   1.00
H224   H     0.09880   0.43718   0.25223   0.00000  Uiso   1.00
C225   C     0.50115   0.42006   0.16644   0.00000  Uiso   1.00
C226   C     0.49884   0.57994   0.16690   0.00000  Uiso   1.00
C227   C     0.40092   0.49857   0.15571   0.00000  Uiso   1.00
C228   C     0.59908   0.50143   0.17763   0.00000  Uiso   1.00
C229   C     0.34750   0.48937   0.15288   0.00000  Uiso   1.00
C230   C     0.65250   0.51063   0.18046   0.00000  Uiso   1.00
C231   C     0.52070   0.35341   0.13015   0.00000  Uiso   1.00
C232   C     0.47929   0.64659   0.20319   0.00000  Uiso   1.00
C233   C     0.51896   0.64420   0.13191   0.00000  Uiso   1.00
C234   C     0.48104   0.35580   0.20142   0.00000  Uiso   1.00
C235   C     0.49860   0.62415   0.16770   0.00000  Uiso   1.00
C236   C     0.50139   0.37585   0.16563   0.00000  Uiso   1.00
C237   C     0.53776   0.52136   0.02692   0.00000  Uiso   1.00
C238   C     0.46224   0.47864   0.30641   0.00000  Uiso   1.00
C239   C     0.53723   0.52121   0.31244   0.00000  Uiso   1.00
C240   C     0.46277   0.47879   0.02089   0.00000  Uiso   1.00
H241   H     0.53407   0.62657   0.10521   0.00000  Uiso   1.00
H242   H     0.46593   0.37343   0.22812   0.00000  Uiso   1.00
H243   H     0.56695   0.53784   0.29653   0.00000  Uiso   1.00
H244   H     0.43305   0.46216   0.03680   0.00000  Uiso   1.00
N245   N     0.49999   0.49999   0.28573   0.00000  Uiso   1.00
N246   N     0.50001   0.50001   0.04760   0.00000  Uiso   1.00
O247   O     0.50000   0.43892   0.20487   0.00000  Uiso   1.00
O248   O     0.50000   0.56108   0.12846   0.00000  Uiso   1.00
O249   O     0.50000   0.43893   0.12843   0.00000  Uiso   1.00
O250   O     0.50000   0.56107   0.20490   0.00000  Uiso   1.00
O251   O     0.42392   0.50000   0.19595   0.00000  Uiso   1.00
O252   O     0.57608   0.50000   0.13739   0.00000  Uiso   1.00
O253   O     0.42392   0.50000   0.11950   0.00000  Uiso   1.00
O254   O     0.57608   0.50000   0.21383   0.00000  Uiso   1.00
Zn255  Zn    0.50000   0.49999   0.21771   0.00000  Uiso   1.00
Zn256  Zn    0.50000   0.50001   0.11563   0.00000  Uiso   1.00
C257   C     0.66257   0.44994   0.12760   0.00000  Uiso   1.00
H258   H     0.36257   0.43292   0.11569   0.00000  Uiso   1.00
H259   H     0.64372   0.42886   0.15052   0.00000  Uiso   1.00
H260   H     0.63505   0.45694   0.09730   0.00000  Uiso   1.00
C261   C     0.33743   0.55006   0.20573   0.00000  Uiso   1.00
H262   H     0.63743   0.56709   0.21764   0.00000  Uiso   1.00
H263   H     0.36495   0.54306   0.23603   0.00000  Uiso   1.00
H264   H     0.35628   0.57114   0.18281   0.00000  Uiso   1.00
C265   C     0.54384   0.37315   0.09066   0.00000  Uiso   1.00
H266   H     0.57482   0.39561   0.10314   0.00000  Uiso   1.00
H267   H     0.56201   0.34997   0.06966   0.00000  Uiso   1.00
H268   H     0.51284   0.38884   0.06813   0.00000  Uiso   1.00
C269   C     0.45616   0.62685   0.24267   0.00000  Uiso   1.00
H270   H     0.42518   0.60439   0.23019   0.00000  Uiso   1.00
H271   H     0.48716   0.61116   0.26520   0.00000  Uiso   1.00
H272   H     0.43798   0.65003   0.26367   0.00000  Uiso   1.00
C273   C     0.58177   0.54432   0.05378   0.00000  Uiso   1.00
H274   H     0.60115   0.56634   0.03216   0.00000  Uiso   1.00
H275   H     0.56785   0.56283   0.08109   0.00000  Uiso   1.00
H276   H     0.61190   0.52220   0.06770   0.00000  Uiso   1.00
C277   C     0.41822   0.45569   0.27956   0.00000  Uiso   1.00
H278   H     0.39884   0.43367   0.30117   0.00000  Uiso   1.00
H279   H     0.38810   0.47781   0.26564   0.00000  Uiso   1.00
H280   H     0.43213   0.43718   0.25223   0.00000  Uiso   1.00
C281   C     0.83449   0.42006   0.16644   0.00000  Uiso   1.00
C282   C     0.83218   0.57994   0.16690   0.00000  Uiso   1.00
C283   C     0.73426   0.49857   0.15571   0.00000  Uiso   1.00
C284   C     0.93241   0.50143   0.17763   0.00000  Uiso   1.00
C285   C     0.68083   0.48937   0.15288   0.00000  Uiso   1.00
C286   C     0.98584   0.51063   0.18046   0.00000  Uiso   1.00
C287   C     0.85404   0.35341   0.13015   0.00000  Uiso   1.00
C288   C     0.81263   0.64659   0.20319   0.00000  Uiso   1.00
C289   C     0.85229   0.64420   0.13191   0.00000  Uiso   1.00
C290   C     0.81437   0.35580   0.20142   0.00000  Uiso   1.00
C291   C     0.83194   0.62415   0.16770   0.00000  Uiso   1.00
C292   C     0.83473   0.37585   0.16563   0.00000  Uiso   1.00
C293   C     0.87109   0.52136   0.02692   0.00000  Uiso   1.00
C294   C     0.79558   0.47864   0.30641   0.00000  Uiso   1.00
C295   C     0.87057   0.52121   0.31244   0.00000  Uiso   1.00
C296   C     0.79610   0.47879   0.02089   0.00000  Uiso   1.00
H297   H     0.86740   0.62657   0.10521   0.00000  Uiso   1.00
H298   H     0.79926   0.37343   0.22812   0.00000  Uiso   1.00
H299   H     0.90029   0.53784   0.29653   0.00000  Uiso   1.00
H300   H     0.76638   0.46216   0.03680   0.00000  Uiso   1.00
N301   N     0.83332   0.49999   0.28573   0.00000  Uiso   1.00
N302   N     0.83335   0.50001   0.04760   0.00000  Uiso   1.00
O303   O     0.83333   0.43892   0.20487   0.00000  Uiso   1.00
O304   O     0.83334   0.56108   0.12846   0.00000  Uiso   1.00
O305   O     0.83333   0.43893   0.12843   0.00000  Uiso   1.00
O306   O     0.83334   0.56107   0.20490   0.00000  Uiso   1.00
O307   O     0.75725   0.50000   0.19595   0.00000  Uiso   1.00
O308   O     0.90942   0.50000   0.13739   0.00000  Uiso   1.00
O309   O     0.75725   0.50000   0.11950   0.00000  Uiso   1.00
O310   O     0.90942   0.50000   0.21383   0.00000  Uiso   1.00
Zn311  Zn    0.83333   0.49999   0.21771   0.00000  Uiso   1.00
Zn312  Zn    0.83333   0.50001   0.11563   0.00000  Uiso   1.00
C313   C     0.99591   0.44994   0.12760   0.00000  Uiso   1.00
H314   H     0.69590   0.43292   0.11569   0.00000  Uiso   1.00
H315   H     0.97705   0.42886   0.15052   0.00000  Uiso   1.00
H316   H     0.96838   0.45694   0.09730   0.00000  Uiso   1.00
C317   C     0.67076   0.55006   0.20573   0.00000  Uiso   1.00
H318   H     0.97076   0.56709   0.21764   0.00000  Uiso   1.00
H319   H     0.69828   0.54306   0.23603   0.00000  Uiso   1.00
H320   H     0.68962   0.57114   0.18281   0.00000  Uiso   1.00
C321   C     0.87717   0.37315   0.09066   0.00000  Uiso   1.00
H322   H     0.90816   0.39561   0.10314   0.00000  Uiso   1.00
H323   H     0.89534   0.34997   0.06966   0.00000  Uiso   1.00
H324   H     0.84617   0.38884   0.06813   0.00000  Uiso   1.00
C325   C     0.78949   0.62685   0.24267   0.00000  Uiso   1.00
H326   H     0.75851   0.60439   0.23019   0.00000  Uiso   1.00
H327   H     0.82049   0.61116   0.26520   0.00000  Uiso   1.00
H328   H     0.77132   0.65003   0.26367   0.00000  Uiso   1.00
C329   C     0.91511   0.54432   0.05378   0.00000  Uiso   1.00
H330   H     0.93448   0.56634   0.03216   0.00000  Uiso   1.00
H331   H     0.90119   0.56283   0.08109   0.00000  Uiso   1.00
H332   H     0.94523   0.52220   0.06770   0.00000  Uiso   1.00
C333   C     0.75155   0.45569   0.27956   0.00000  Uiso   1.00
H334   H     0.73218   0.43367   0.30117   0.00000  Uiso   1.00
H335   H     0.72143   0.47781   0.26564   0.00000  Uiso   1.00
H336   H     0.76547   0.43718   0.25223   0.00000  Uiso   1.00
C337   C     0.16782   0.75340   0.16644   0.00000  Uiso   1.00
C338   C     0.16551   0.91327   0.16690   0.00000  Uiso   1.00
C339   C     0.06759   0.83190   0.15571   0.00000  Uiso   1.00
C340   C     0.26574   0.83476   0.17763   0.00000  Uiso   1.00
C341   C     0.01416   0.82270   0.15288   0.00000  Uiso   1.00
C342   C     0.31917   0.84397   0.18046   0.00000  Uiso   1.00
C343   C     0.18737   0.68675   0.13015   0.00000  Uiso   1.00
C344   C     0.14596   0.97992   0.20319   0.00000  Uiso   1.00
C345   C     0.18562   0.97754   0.13191   0.00000  Uiso   1.00
C346   C     0.14771   0.68913   0.20142   0.00000  Uiso   1.00
C347   C     0.16527   0.95748   0.16770   0.00000  Uiso   1.00
C348   C     0.16806   0.70918   0.16563   0.00000  Uiso   1.00
C349   C     0.20442   0.85469   0.02692   0.00000  Uiso   1.00
C350   C     0.12891   0.81197   0.30641   0.00000  Uiso   1.00
C351   C     0.20390   0.85454   0.31244   0.00000  Uiso   1.00
C352   C     0.12944   0.81213   0.02089   0.00000  Uiso   1.00
H353   H     0.20073   0.95990   0.10521   0.00000  Uiso   1.00
H354   H     0.13260   0.70677   0.22812   0.00000  Uiso   1.00
H355   H     0.23362   0.87117   0.29653   0.00000  Uiso   1.00
H356   H     0.09971   0.79549   0.03680   0.00000  Uiso   1.00
N357   N     0.16665   0.83332   0.28573   0.00000  Uiso   1.00
N358   N     0.16668   0.83334   0.04760   0.00000  Uiso   1.00
O359   O     0.16666   0.77225   0.20487   0.00000  Uiso   1.00
O360   O     0.16667   0.89442   0.12846   0.00000  Uiso   1.00
O361   O     0.16666   0.77226   0.12843   0.00000  Uiso   1.00
O362   O     0.16667   0.89441   0.20490   0.00000  Uiso   1.00
O363   O     0.09058   0.83333   0.19595   0.00000  Uiso   1.00
O364   O     0.24275   0.83334   0.13739   0.00000  Uiso   1.00
O365   O     0.09058   0.83334   0.11950   0.00000  Uiso   1.00
O366   O     0.24275   0.83333   0.21383   0.00000  Uiso   1.00
Zn367  Zn    0.16667   0.83333   0.21771   0.00000  Uiso   1.00
Zn368  Zn    0.16667   0.83334   0.11563   0.00000  Uiso   1.00
C369   C     0.32924   0.78327   0.12760   0.00000  Uiso   1.00
H370   H     0.02924   0.76625   0.11569   0.00000  Uiso   1.00
H371   H     0.31038   0.76219   0.15052   0.00000  Uiso   1.00
H372   H     0.30171   0.79028   0.09730   0.00000  Uiso   1.00
C373   C     0.00409   0.88340   0.20573   0.00000  Uiso   1.00
H374   H     0.30410   0.90042   0.21764   0.00000  Uiso   1.00
H375   H     0.03162   0.87639   0.23603   0.00000  Uiso   1.00
H376   H     0.02295   0.90448   0.18281   0.00000  Uiso   1.00
C377   C     0.21050   0.70648   0.09066   0.00000  Uiso   1.00
H378   H     0.24149   0.72894   0.10314   0.00000  Uiso   1.00
H379   H     0.22868   0.68330   0.06966   0.00000  Uiso   1.00
H380   H     0.17951   0.72217   0.06813   0.00000  Uiso   1.00
C381   C     0.12283   0.96019   0.24267   0.00000  Uiso   1.00
H382   H     0.09184   0.93772   0.23019   0.00000  Uiso   1.00
H383   H     0.15382   0.94449   0.26520   0.00000  Uiso   1.00
H384   H     0.10465   0.98337   0.26367   0.00000  Uiso   1.00
C385   C     0.24844   0.87765   0.05378   0.00000  Uiso   1.00
H386   H     0.26782   0.89967   0.03216   0.00000  Uiso   1.00
H387   H     0.23452   0.89617   0.08109   0.00000  Uiso   1.00
H388   H     0.27857   0.85553   0.06770   0.00000  Uiso   1.00
C389   C     0.08489   0.78902   0.27956   0.00000  Uiso   1.00
H390   H     0.06551   0.76700   0.30117   0.00000  Uiso   1.00
H391   H     0.05476   0.81115   0.26564   0.00000  Uiso   1.00
H392   H     0.09880   0.77051   0.25223   0.00000  Uiso   1.00
C393   C     0.50115   0.75340   0.16644   0.00000  Uiso   1.00
C394   C     0.49884   0.91327   0.16690   0.00000  Uiso   1.00
C395   C     0.40092   0.83190   0.15571   0.00000  Uiso   1.00
C396   C     0.59908   0.83476   0.17763   0.00000  Uiso   1.00
C397   C     0.34750   0.82270   0.15288   0.00000  Uiso   1.00
C398   C     0.65250   0.84397   0.18046   0.00000  Uiso   1.00
C399   C     0.52070   0.68675   0.13015   0.00000  Uiso   1.00
C400   C     0.47929   0.97992   0.20319   0.00000  Uiso   1.00
C401   C     0.51896   0.97754   0.13191   0.00000  Uiso   1.00
C402   C     0.48104   0.68913   0.20142   0.00000  Uiso   1.00
C403   C     0.49860   0.95748   0.16770   0.00000  Uiso   1.00
C404   C     0.50139   0.70918   0.16563   0.00000  Uiso   1.00
C405   C     0.53776   0.85469   0.02692   0.00000  Uiso   1.00
C406   C     0.46224   0.81197   0.30641   0.00000  Uiso   1.00
C407   C     0.53723   0.85454   0.31244   0.00000  Uiso   1.00
C408   C     0.46277   0.81213   0.02089   0.00000  Uiso   1.00
H409   H     0.53407   0.95990   0.10521   0.00000  Uiso   1.00
H410   H     0.46593   0.70677   0.22812   0.00000  Uiso   1.00
H411   H     0.56695   0.87117   0.29653   0.00000  Uiso   1.00
H412   H     0.43305   0.79549   0.03680   0.00000  Uiso   1.00
N413   N     0.49999   0.83332   0.28573   0.00000  Uiso   1.00
N414   N     0.50001   0.83334   0.04760   0.00000  Uiso   1.00
O415   O     0.50000   0.77225   0.20487   0.00000  Uiso   1.00
O416   O     0.50000   0.89442   0.12846   0.00000  Uiso   1.00
O417   O     0.50000   0.77226   0.12843   0.00000  Uiso   1.00
O418   O     0.50000   0.89441   0.20490   0.00000  Uiso   1.00
O419   O     0.42392   0.83333   0.19595   0.00000  Uiso   1.00
O420   O     0.57608   0.83334   0.13739   0.00000  Uiso   1.00
O421   O     0.42392   0.83334   0.11950   0.00000  Uiso   1.00
O422   O     0.57608   0.83333   0.21383   0.00000  Uiso   1.00
Zn423  Zn    0.50000   0.83333   0.21771   0.00000  Uiso   1.00
Zn424  Zn    0.50000   0.83334   0.11563   0.00000  Uiso   1.00
C425   C     0.66257   0.78327   0.12760   0.00000  Uiso   1.00
H426   H     0.36257   0.76625   0.11569   0.00000  Uiso   1.00
H427   H     0.64372   0.76219   0.15052   0.00000  Uiso   1.00
H428   H     0.63505   0.79028   0.09730   0.00000  Uiso   1.00
C429   C     0.33743   0.88340   0.20573   0.00000  Uiso   1.00
H430   H     0.63743   0.90042   0.21764   0.00000  Uiso   1.00
H431   H     0.36495   0.87639   0.23603   0.00000  Uiso   1.00
H432   H     0.35628   0.90448   0.18281   0.00000  Uiso   1.00
C433   C     0.54384   0.70648   0.09066   0.00000  Uiso   1.00
H434   H     0.57482   0.72894   0.10314   0.00000  Uiso   1.00
H435   H     0.56201   0.68330   0.06966   0.00000  Uiso   1.00
H436   H     0.51284   0.72217   0.06813   0.00000  Uiso   1.00
C437   C     0.45616   0.96019   0.24267   0.00000  Uiso   1.00
H438   H     0.42518   0.93772   0.23019   0.00000  Uiso   1.00
H439   H     0.48716   0.94449   0.26520   0.00000  Uiso   1.00
H440   H     0.43798   0.98337   0.26367   0.00000  Uiso   1.00
C441   C     0.58177   0.87765   0.05378   0.00000  Uiso   1.00
H442   H     0.60115   0.89967   0.03216   0.00000  Uiso   1.00
H443   H     0.56785   0.89617   0.08109   0.00000  Uiso   1.00
H444   H     0.61190   0.85553   0.06770   0.00000  Uiso   1.00
C445   C     0.41822   0.78902   0.27956   0.00000  Uiso   1.00
H446   H     0.39884   0.76700   0.30117   0.00000  Uiso   1.00
H447   H     0.38810   0.81115   0.26564   0.00000  Uiso   1.00
H448   H     0.43213   0.77051   0.25223   0.00000  Uiso   1.00
C449   C     0.83449   0.75340   0.16644   0.00000  Uiso   1.00
C450   C     0.83218   0.91327   0.16690   0.00000  Uiso   1.00
C451   C     0.73426   0.83190   0.15571   0.00000  Uiso   1.00
C452   C     0.93241   0.83476   0.17763   0.00000  Uiso   1.00
C453   C     0.68083   0.82270   0.15288   0.00000  Uiso   1.00
C454   C     0.98584   0.84397   0.18046   0.00000  Uiso   1.00
C455   C     0.85404   0.68675   0.13015   0.00000  Uiso   1.00
C456   C     0.81263   0.97992   0.20319   0.00000  Uiso   1.00
C457   C     0.85229   0.97754   0.13191   0.00000  Uiso   1.00
C458   C     0.81437   0.68913   0.20142   0.00000  Uiso   1.00
C459   C     0.83194   0.95748   0.16770   0.00000  Uiso   1.00
C460   C     0.83473   0.70918   0.16563   0.00000  Uiso   1.00
C461   C     0.87109   0.85469   0.02692   0.00000  Uiso   1.00
C462   C     0.79558   0.81197   0.30641   0.00000  Uiso   1.00
C463   C     0.87057   0.85454   0.31244   0.00000  Uiso   1.00
C464   C     0.79610   0.81213   0.02089   0.00000  Uiso   1.00
H465   H     0.86740   0.95990   0.10521   0.00000  Uiso   1.00
H466   H     0.79926   0.70677   0.22812   0.00000  Uiso   1.00
H467   H     0.90029   0.87117   0.29653   0.00000  Uiso   1.00
H468   H     0.76638   0.79549   0.03680   0.00000  Uiso   1.00
N469   N     0.83332   0.83332   0.28573   0.00000  Uiso   1.00
N470   N     0.83335   0.83334   0.04760   0.00000  Uiso   1.00
O471   O     0.83333   0.77225   0.20487   0.00000  Uiso   1.00
O472   O     0.83334   0.89442   0.12846   0.00000  Uiso   1.00
O473   O     0.83333   0.77226   0.12843   0.00000  Uiso   1.00
O474   O     0.83334   0.89441   0.20490   0.00000  Uiso   1.00
O475   O     0.75725   0.83333   0.19595   0.00000  Uiso   1.00
O476   O     0.90942   0.83334   0.13739   0.00000  Uiso   1.00
O477   O     0.75725   0.83334   0.11950   0.00000  Uiso   1.00
O478   O     0.90942   0.83333   0.21383   0.00000  Uiso   1.00
Zn479  Zn    0.83333   0.83333   0.21771   0.00000  Uiso   1.00
Zn480  Zn    0.83333   0.83334   0.11563   0.00000  Uiso   1.00
C481   C     0.99591   0.78327   0.12760   0.00000  Uiso   1.00
H482   H     0.69590   0.76625   0.11569   0.00000  Uiso   1.00
H483   H     0.97705   0.76219   0.15052   0.00000  Uiso   1.00
H484   H     0.96838   0.79028   0.09730   0.00000  Uiso   1.00
C485   C     0.67076   0.88340   0.20573   0.00000  Uiso   1.00
H486   H     0.97076   0.90042   0.21764   0.00000  Uiso   1.00
H487   H     0.69828   0.87639   0.23603   0.00000  Uiso   1.00
H488   H     0.68962   0.90448   0.18281   0.00000  Uiso   1.00
C489   C     0.87717   0.70648   0.09066   0.00000  Uiso   1.00
H490   H     0.90816   0.72894   0.10314   0.00000  Uiso   1.00
H491   H     0.89534   0.68330   0.06966   0.00000  Uiso   1.00
H492   H     0.84617   0.72217   0.06813   0.00000  Uiso   1.00
C493   C     0.78949   0.96019   0.24267   0.00000  Uiso   1.00
H494   H     0.75851   0.93772   0.23019   0.00000  Uiso   1.00
H495   H     0.82049   0.94449   0.26520   0.00000  Uiso   1.00
H496   H     0.77132   0.98337   0.26367   0.00000  Uiso   1.00
C497   C     0.91511   0.87765   0.05378   0.00000  Uiso   1.00
H498   H     0.93448   0.89967   0.03216   0.00000  Uiso   1.00
H499   H     0.90119   0.89617   0.08109   0.00000  Uiso   1.00
H500   H     0.94523   0.85553   0.06770   0.00000  Uiso   1.00
C501   C     0.75155   0.78902   0.27956   0.00000  Uiso   1.00
H502   H     0.73218   0.76700   0.30117   0.00000  Uiso   1.00
H503   H     0.72143   0.81115   0.26564   0.00000  Uiso   1.00
H504   H     0.76547   0.77051   0.25223   0.00000  Uiso   1.00
C505   C     0.16782   0.08673   0.49977   0.00000  Uiso   1.00
C506   C     0.16551   0.24660   0.50023   0.00000  Uiso   1.00
C507   C     0.06759   0.16524   0.48904   0.00000  Uiso   1.00
C508   C     0.26574   0.16810   0.51096   0.00000  Uiso   1.00
C509   C     0.01416   0.15603   0.48621   0.00000  Uiso   1.00
C510   C     0.31917   0.17730   0.51379   0.00000  Uiso   1.00
C511   C     0.18737   0.02008   0.46348   0.00000  Uiso   1.00
C512   C     0.14596   0.31325   0.53652   0.00000  Uiso   1.00
C513   C     0.18562   0.31087   0.46525   0.00000  Uiso   1.00
C514   C     0.14771   0.02246   0.53475   0.00000  Uiso   1.00
C515   C     0.16527   0.29082   0.50104   0.00000  Uiso   1.00
C516   C     0.16806   0.04252   0.49896   0.00000  Uiso   1.00
C517   C     0.20442   0.18803   0.36026   0.00000  Uiso   1.00
C518   C     0.12891   0.14531   0.63974   0.00000  Uiso   1.00
C519   C     0.20390   0.18787   0.64578   0.00000  Uiso   1.00
C520   C     0.12944   0.14546   0.35422   0.00000  Uiso   1.00
H521   H     0.20073   0.29323   0.43855   0.00000  Uiso   1.00
H522   H     0.13260   0.04010   0.56145   0.00000  Uiso   1.00
H523   H     0.23362   0.20451   0.62986   0.00000  Uiso   1.00
H524   H     0.09971   0.12883   0.37014   0.00000  Uiso   1.00
N525   N     0.16665   0.16666   0.61907   0.00000  Uiso   1.00
N526   N     0.16668   0.16668   0.38093   0.00000  Uiso   1.00
O527   O     0.16666   0.10558   0.53821   0.00000  Uiso   1.00
O528   O     0.16667   0.22775   0.46179   0.00000  Uiso   1.00
O529   O     0.16666   0.10559   0.46176   0.00000  Uiso   1.00
O530   O     0.16667   0.22774   0.53824   0.00000  Uiso   1.00
O531   O     0.09058   0.16666   0.52928   0.00000  Uiso   1.00
O532   O     0.24275   0.16667   0.47072   0.00000  Uiso   1.00
O533   O     0.09058   0.16667   0.45284   0.00000  Uiso   1.00
O534   O     0.24275   0.16666   0.54716   0.00000  Uiso   1.00
Zn535  Zn    0.16667   0.16666   0.55104   0.00000  Uiso   1.00
Zn536  Zn    0.16667   0.16667   0.44896   0.00000  Uiso   1.00
C537   C     0.32924   0.11661   0.46093   0.00000  Uiso   1.00
H538   H     0.02924   0.09958   0.44902   0.00000  Uiso   1.00
H539   H     0.31038   0.09552   0.48386   0.00000  Uiso   1.00
H540   H     0.30171   0.12361   0.43064   0.00000  Uiso   1.00
C541   C     0.00409   0.21673   0.53906   0.00000  Uiso   1.00
H542   H     0.30410   0.23375   0.55097   0.00000  Uiso   1.00
H543   H     0.03162   0.20973   0.56936   0.00000  Uiso   1.00
H544   H     0.02295   0.23781   0.51614   0.00000  Uiso   1.00
C545   C     0.21050   0.03981   0.42399   0.00000  Uiso   1.00
H546   H     0.24149   0.06227   0.43647   0.00000  Uiso   1.00
H547   H     0.22868   0.01663   0.40300   0.00000  Uiso   1.00
H548   H     0.17951   0.05551   0.40147   0.00000  Uiso   1.00
C549   C     0.12283   0.29352   0.57601   0.00000  Uiso   1.00
H550   H     0.09184   0.27106   0.56353   0.00000  Uiso   1.00
H551   H     0.15382   0.27783   0.59853   0.00000  Uiso   1.00
H552   H     0.10465   0.31670   0.59700   0.00000  Uiso   1.00
C553   C     0.24844   0.21098   0.38711   0.00000  Uiso   1.00
H554   H     0.26782   0.23301   0.36550   0.00000  Uiso   1.00
H555   H     0.23452   0.22950   0.41443   0.00000  Uiso   1.00
H556   H     0.27857   0.18886   0.40103   0.00000  Uiso   1.00
C557   C     0.08489   0.12236   0.61289   0.00000  Uiso   1.00
H558   H     0.06551   0.10034   0.63450   0.00000  Uiso   1.00
H559   H     0.05476   0.14448   0.59898   0.00000  Uiso   1.00
H560   H     0.09880   0.10384   0.58556   0.00000  Uiso   1.00
C561   C     0.50115   0.08673   0.49977   0.00000  Uiso   1.00
C562   C     0.49884   0.24660   0.50023   0.00000  Uiso   1.00
C563   C     0.40092   0.16524   0.48904   0.00000  Uiso   1.00
C564   C     0.59908   0.16810   0.51096   0.00000  Uiso   1.00
C565   C     0.34750   0.15603   0.48621   0.00000  Uiso   1.00
C566   C     0.65250   0.17730   0.51379   0.00000  Uiso   1.00
C567   C     0.52070   0.02008   0.46348   0.00000  Uiso   1.00
C568   C     0.47929   0.31325   0.53652   0.00000  Uiso   1.00
C569   C     0.51896   0.31087   0.46525   0.00000  Uiso   1.00
C570   C     0.48104   0.02246   0.53475   0.00000  Uiso   1.00
C571   C     0.49860   0.29082   0.50104   0.00000  Uiso   1.00
C572   C     0.50139   0.04252   0.49896   0.00000  Uiso   1.00
C573   C     0.53776   0.18803   0.36026   0.00000  Uiso   1.00
C574   C     0.46224   0.14531   0.63974   0.00000  Uiso   1.00
C575   C     0.53723   0.18787   0.64578   0.00000  Uiso   1.00
C576   C     0.46277   0.14546   0.35422   0.00000  Uiso   1.00
H577   H     0.53407   0.29323   0.43855   0.00000  Uiso   1.00
H578   H     0.46593   0.04010   0.56145   0.00000  Uiso   1.00
H579   H     0.56695   0.20451   0.62986   0.00000  Uiso   1.00
H580   H     0.43305   0.12883   0.37014   0.00000  Uiso   1.00
N581   N     0.49999   0.16666   0.61907   0.00000  Uiso   1.00
N582   N     0.50001   0.16668   0.38093   0.00000  Uiso   1.00
O583   O     0.50000   0.10558   0.53821   0.00000  Uiso   1.00
O584   O     0.50000   0.22775   0.46179   0.00000  Uiso   1.00
O585   O     0.50000   0.10559   0.46176   0.00000  Uiso   1.00
O586   O     0.50000   0.22774   0.53824   0.00000  Uiso   1.00
O587   O     0.42392   0.16666   0.52928   0.00000  Uiso   1.00
O588   O     0.57608   0.16667   0.47072   0.00000  Uiso   1.00
O589   O     0.42392   0.16667   0.45284   0.00000  Uiso   1.00
O590   O     0.57608   0.16666   0.54716   0.00000  Uiso   1.00
Zn591  Zn    0.50000   0.16666   0.55104   0.00000  Uiso   1.00
Zn592  Zn    0.50000   0.16667   0.44896   0.00000  Uiso   1.00
C593   C     0.66257   0.11661   0.46093   0.00000  Uiso   1.00
H594   H     0.36257   0.09958   0.44902   0.00000  Uiso   1.00
H595   H     0.64372   0.09552   0.48386   0.00000  Uiso   1.00
H596   H     0.63505   0.12361   0.43064   0.00000  Uiso   1.00
C597   C     0.33743   0.21673   0.53906   0.00000  Uiso   1.00
H598   H     0.63743   0.23375   0.55097   0.00000  Uiso   1.00
H599   H     0.36495   0.20973   0.56936   0.00000  Uiso   1.00
H600   H     0.35628   0.23781   0.51614   0.00000  Uiso   1.00
C601   C     0.54384   0.03981   0.42399   0.00000  Uiso   1.00
H602   H     0.57482   0.06227   0.43647   0.00000  Uiso   1.00
H603   H     0.56201   0.01663   0.40300   0.00000  Uiso   1.00
H604   H     0.51284   0.05551   0.40147   0.00000  Uiso   1.00
C605   C     0.45616   0.29352   0.57601   0.00000  Uiso   1.00
H606   H     0.42518   0.27106   0.56353   0.00000  Uiso   1.00
H607   H     0.48716   0.27783   0.59853   0.00000  Uiso   1.00
H608   H     0.43798   0.31670   0.59700   0.00000  Uiso   1.00
C609   C     0.58177   0.21098   0.38711   0.00000  Uiso   1.00
H610   H     0.60115   0.23301   0.36550   0.00000  Uiso   1.00
H611   H     0.56785   0.22950   0.41443   0.00000  Uiso   1.00
H612   H     0.61190   0.18886   0.40103   0.00000  Uiso   1.00
C613   C     0.41822   0.12236   0.61289   0.00000  Uiso   1.00
H614   H     0.39884   0.10034   0.63450   0.00000  Uiso   1.00
H615   H     0.38810   0.14448   0.59898   0.00000  Uiso   1.00
H616   H     0.43213   0.10384   0.58556   0.00000  Uiso   1.00
C617   C     0.83449   0.08673   0.49977   0.00000  Uiso   1.00
C618   C     0.83218   0.24660   0.50023   0.00000  Uiso   1.00
C619   C     0.73426   0.16524   0.48904   0.00000  Uiso   1.00
C620   C     0.93241   0.16810   0.51096   0.00000  Uiso   1.00
C621   C     0.68083   0.15603   0.48621   0.00000  Uiso   1.00
C622   C     0.98584   0.17730   0.51379   0.00000  Uiso   1.00
C623   C     0.85404   0.02008   0.46348   0.00000  Uiso   1.00
C624   C     0.81263   0.31325   0.53652   0.00000  Uiso   1.00
C625   C     0.85229   0.31087   0.46525   0.00000  Uiso   1.00
C626   C     0.81437   0.02246   0.53475   0.00000  Uiso   1.00
C627   C     0.83194   0.29082   0.50104   0.00000  Uiso   1.00
C628   C     0.83473   0.04252   0.49896   0.00000  Uiso   1.00
C629   C     0.87109   0.18803   0.36026   0.00000  Uiso   1.00
C630   C     0.79558   0.14531   0.63974   0.00000  Uiso   1.00
C631   C     0.87057   0.18787   0.64578   0.00000  Uiso   1.00
C632   C     0.79610   0.14546   0.35422   0.00000  Uiso   1.00
H633   H     0.86740   0.29323   0.43855   0.00000  Uiso   1.00
H634   H     0.79926   0.04010   0.56145   0.00000  Uiso   1.00
H635   H     0.90029   0.20451   0.62986   0.00000  Uiso   1.00
H636   H     0.76638   0.12883   0.37014   0.00000  Uiso   1.00
N637   N     0.83332   0.16666   0.61907   0.00000  Uiso   1.00
N638   N     0.83335   0.16668   0.38093   0.00000  Uiso   1.00
O639   O     0.83333   0.10558   0.53821   0.00000  Uiso   1.00
O640   O     0.83334   0.22775   0.46179   0.00000  Uiso   1.00
O641   O     0.83333   0.10559   0.46176   0.00000  Uiso   1.00
O642   O     0.83334   0.22774   0.53824   0.00000  Uiso   1.00
O643   O     0.75725   0.16666   0.52928   0.00000  Uiso   1.00
O644   O     0.90942   0.16667   0.47072   0.00000  Uiso   1.00
O645   O     0.75725   0.16667   0.45284   0.00000  Uiso   1.00
O646   O     0.90942   0.16666   0.54716   0.00000  Uiso   1.00
Zn647  Zn    0.83333   0.16666   0.55104   0.00000  Uiso   1.00
Zn648  Zn    0.83333   0.16667   0.44896   0.00000  Uiso   1.00
C649   C     0.99591   0.11661   0.46093   0.00000  Uiso   1.00
H650   H     0.69590   0.09958   0.44902   0.00000  Uiso   1.00
H651   H     0.97705   0.09552   0.48386   0.00000  Uiso   1.00
H652   H     0.96838   0.12361   0.43064   0.00000  Uiso   1.00
C653   C     0.67076   0.21673   0.53906   0.00000  Uiso   1.00
H654   H     0.97076   0.23375   0.55097   0.00000  Uiso   1.00
H655   H     0.69828   0.20973   0.56936   0.00000  Uiso   1.00
H656   H     0.68962   0.23781   0.51614   0.00000  Uiso   1.00
C657   C     0.87717   0.03981   0.42399   0.00000  Uiso   1.00
H658   H     0.90816   0.06227   0.43647   0.00000  Uiso   1.00
H659   H     0.89534   0.01663   0.40300   0.00000  Uiso   1.00
H660   H     0.84617   0.05551   0.40147   0.00000  Uiso   1.00
C661   C     0.78949   0.29352   0.57601   0.00000  Uiso   1.00
H662   H     0.75851   0.27106   0.56353   0.00000  Uiso   1.00
H663   H     0.82049   0.27783   0.59853   0.00000  Uiso   1.00
H664   H     0.77132   0.31670   0.59700   0.00000  Uiso   1.00
C665   C     0.91511   0.21098   0.38711   0.00000  Uiso   1.00
H666   H     0.93448   0.23301   0.36550   0.00000  Uiso   1.00
H667   H     0.90119   0.22950   0.41443   0.00000  Uiso   1.00
H668   H     0.94523   0.18886   0.40103   0.00000  Uiso   1.00
C669   C     0.75155   0.12236   0.61289   0.00000  Uiso   1.00
H670   H     0.73218   0.10034   0.63450   0.00000  Uiso   1.00
H671   H     0.72143   0.14448   0.59898   0.00000  Uiso   1.00
H672   H     0.76547   0.10384   0.58556   0.00000  Uiso   1.00
C673   C     0.16782   0.42006   0.49977   0.00000  Uiso   1.00
C674   C     0.16551   0.57994   0.50023   0.00000  Uiso   1.00
C675   C     0.06759   0.49857   0.48904   0.00000  Uiso   1.00
C676   C     0.26574   0.50143   0.51096   0.00000  Uiso   1.00
C677   C     0.01416   0.48937   0.48621   0.00000  Uiso   1.00
C678   C     0.31917   0.51063   0.51379   0.00000  Uiso   1.00
C679   C     0.18737   0.35341   0.46348   0.00000  Uiso   1.00
C680   C     0.14596   0.64659   0.53652   0.00000  Uiso   1.00
C681   C     0.18562   0.64420   0.46525   0.00000  Uiso   1.00
C682   C     0.14771   0.35580   0.53475   0.00000  Uiso   1.00
C683   C     0.16527   0.62415   0.50104   0.00000  Uiso   1.00
C684   C     0.16806   0.37585   0.49896   0.00000  Uiso   1.00
C685   C     0.20442   0.52136   0.36026   0.00000  Uiso   1.00
C686   C     0.12891   0.47864   0.63974   0.00000  Uiso   1.00
C687   C     0.20390   0.52121   0.64578   0.00000  Uiso   1.00
C688   C     0.12944   0.47879   0.35422   0.00000  Uiso   1.00
H689   H     0.20073   0.62657   0.43855   0.00000  Uiso   1.00
H690   H     0.13260   0.37343   0.56145   0.00000  Uiso   1.00
H691   H     0.23362   0.53784   0.62986   0.00000  Uiso   1.00
H692   H     0.09971   0.46216   0.37014   0.00000  Uiso   1.00
N693   N     0.16665   0.49999   0.61907   0.00000  Uiso   1.00
N694   N     0.16668   0.50001   0.38093   0.00000  Uiso   1.00
O695   O     0.16666   0.43892   0.53821   0.00000  Uiso   1.00
O696   O     0.16667   0.56108   0.46179   0.00000  Uiso   1.00
O697   O     0.16666   0.43893   0.46176   0.00000  Uiso   1.00
O698   O     0.16667   0.56107   0.53824   0.00000  Uiso   1.00
O699   O     0.09058   0.50000   0.52928   0.00000  Uiso   1.00
O700   O     0.24275   0.50000   0.47072   0.00000  Uiso   1.00
O701   O     0.09058   0.50000   0.45284   0.00000  Uiso   1.00
O702   O     0.24275   0.50000   0.54716   0.00000  Uiso   1.00
Zn703  Zn    0.16667   0.49999   0.55104   0.00000  Uiso   1.00
Zn704  Zn    0.16667   0.50001   0.44896   0.00000  Uiso   1.00
C705   C     0.32924   0.44994   0.46093   0.00000  Uiso   1.00
H706   H     0.02924   0.43292   0.44902   0.00000  Uiso   1.00
H707   H     0.31038   0.42886   0.48386   0.00000  Uiso   1.00
H708   H     0.30171   0.45694   0.43064   0.00000  Uiso   1.00
C709   C     0.00409   0.55006   0.53906   0.00000  Uiso   1.00
H710   H     0.30410   0.56709   0.55097   0.00000  Uiso   1.00
H711   H     0.03162   0.54306   0.56936   0.00000  Uiso   1.00
H712   H     0.02295   0.57114   0.51614   0.00000  Uiso   1.00
C713   C     0.21050   0.37315   0.42399   0.00000  Uiso   1.00
H714   H     0.24149   0.39561   0.43647   0.00000  Uiso   1.00
H715   H     0.22868   0.34997   0.40300   0.00000  Uiso   1.00
H716   H     0.17951   0.38884   0.40147   0.00000  Uiso   1.00
C717   C     0.12283   0.62685   0.57601   0.00000  Uiso   1.00
H718   H     0.09184   0.60439   0.56353   0.00000  Uiso   1.00
H719   H     0.15382   0.61116   0.59853   0.00000  Uiso   1.00
H720   H     0.10465   0.65003   0.59700   0.00000  Uiso   1.00
C721   C     0.24844   0.54432   0.38711   0.00000  Uiso   1.00
H722   H     0.26782   0.56634   0.36550   0.00000  Uiso   1.00
H723   H     0.23452   0.56283   0.41443   0.00000  Uiso   1.00
H724   H     0.27857   0.52220   0.40103   0.00000  Uiso   1.00
C725   C     0.08489   0.45569   0.61289   0.00000  Uiso   1.00
H726   H     0.06551   0.43367   0.63450   0.00000  Uiso   1.00
H727   H     0.05476   0.47781   0.59898   0.00000  Uiso   1.00
H728   H     0.09880   0.43718   0.58556   0.00000  Uiso   1.00
C729   C     0.50115   0.42006   0.49977   0.00000  Uiso   1.00
C730   C     0.49884   0.57994   0.50023   0.00000  Uiso   1.00
C731   C     0.40092   0.49857   0.48904   0.00000  Uiso   1.00
C732   C     0.59908   0.50143   0.51096   0.00000  Uiso   1.00
C733   C     0.34750   0.48937   0.48621   0.00000  Uiso   1.00
C734   C     0.65250   0.51063   0.51379   0.00000  Uiso   1.00
C735   C     0.52070   0.35341   0.46348   0.00000  Uiso   1.00
C736   C     0.47929   0.64659   0.53652   0.00000  Uiso   1.00
C737   C     0.51896   0.64420   0.46525   0.00000  Uiso   1.00
C738   C     0.48104   0.35580   0.53475   0.00000  Uiso   1.00
C739   C     0.49860   0.62415   0.50104   0.00000  Uiso   1.00
C740   C     0.50139   0.37585   0.49896   0.00000  Uiso   1.00
C741   C     0.53776   0.52136   0.36026   0.00000  Uiso   1.00
C742   C     0.46224   0.47864   0.63974   0.00000  Uiso   1.00
C743   C     0.53723   0.52121   0.64578   0.00000  Uiso   1.00
C744   C     0.46277   0.47879   0.35422   0.00000  Uiso   1.00
H745   H     0.53407   0.62657   0.43855   0.00000  Uiso   1.00
H746   H     0.46593   0.37343   0.56145   0.00000  Uiso   1.00
H747   H     0.56695   0.53784   0.62986   0.00000  Uiso   1.00
H748   H     0.43305   0.46216   0.37014   0.00000  Uiso   1.00
N749   N     0.49999   0.49999   0.61907   0.00000  Uiso   1.00
N750   N     0.50001   0.50001   0.38093   0.00000  Uiso   1.00
O751   O     0.50000   0.43892   0.53821   0.00000  Uiso   1.00
O752   O     0.50000   0.56108   0.46179   0.00000  Uiso   1.00
O753   O     0.50000   0.43893   0.46176   0.00000  Uiso   1.00
O754   O     0.50000   0.56107   0.53824   0.00000  Uiso   1.00
O755   O     0.42392   0.50000   0.52928   0.00000  Uiso   1.00
O756   O     0.57608   0.50000   0.47072   0.00000  Uiso   1.00
O757   O     0.42392   0.50000   0.45284   0.00000  Uiso   1.00
O758   O     0.57608   0.50000   0.54716   0.00000  Uiso   1.00
Zn759  Zn    0.50000   0.49999   0.55104   0.00000  Uiso   1.00
Zn760  Zn    0.50000   0.50001   0.44896   0.00000  Uiso   1.00
C761   C     0.66257   0.44994   0.46093   0.00000  Uiso   1.00
H762   H     0.36257   0.43292   0.44902   0.00000  Uiso   1.00
H763   H     0.64372   0.42886   0.48386   0.00000  Uiso   1.00
H764   H     0.63505   0.45694   0.43064   0.00000  Uiso   1.00
C765   C     0.33743   0.55006   0.53906   0.00000  Uiso   1.00
H766   H     0.63743   0.56709   0.55097   0.00000  Uiso   1.00
H767   H     0.36495   0.54306   0.56936   0.00000  Uiso   1.00
H768   H     0.35628   0.57114   0.51614   0.00000  Uiso   1.00
C769   C     0.54384   0.37315   0.42399   0.00000  Uiso   1.00
H770   H     0.57482   0.39561   0.43647   0.00000  Uiso   1.00
H771   H     0.56201   0.34997   0.40300   0.00000  Uiso   1.00
H772   H     0.51284   0.38884   0.40147   0.00000  Uiso   1.00
C773   C     0.45616   0.62685   0.57601   0.00000  Uiso   1.00
H774   H     0.42518   0.60439   0.56353   0.00000  Uiso   1.00
H775   H     0.48716   0.61116   0.59853   0.00000  Uiso   1.00
H776   H     0.43798   0.65003   0.59700   0.00000  Uiso   1.00
C777   C     0.58177   0.54432   0.38711   0.00000  Uiso   1.00
H778   H     0.60115   0.56634   0.36550   0.00000  Uiso   1.00
H779   H     0.56785   0.56283   0.41443   0.00000  Uiso   1.00
H780   H     0.61190   0.52220   0.40103   0.00000  Uiso   1.00
C781   C     0.41822   0.45569   0.61289   0.00000  Uiso   1.00
H782   H     0.39884   0.43367   0.63450   0.00000  Uiso   1.00
H783   H     0.38810   0.47781   0.59898   0.00000  Uiso   1.00
H784   H     0.43213   0.43718   0.58556   0.00000  Uiso   1.00
C785   C     0.83449   0.42006   0.49977   0.00000  Uiso   1.00
C786   C     0.83218   0.57994   0.50023   0.00000  Uiso   1.00
C787   C     0.73426   0.49857   0.48904   0.00000  Uiso   1.00
C788   C     0.93241   0.50143   0.51096   0.00000  Uiso   1.00
C789   C     0.68083   0.48937   0.48621   0.00000  Uiso   1.00
C790   C     0.98584   0.51063   0.51379   0.00000  Uiso   1.00
C791   C     0.85404   0.35341   0.46348   0.00000  Uiso   1.00
C792   C     0.81263   0.64659   0.53652   0.00000  Uiso   1.00
C793   C     0.85229   0.64420   0.46525   0.00000  Uiso   1.00
C794   C     0.81437   0.35580   0.53475   0.00000  Uiso   1.00
C795   C     0.83194   0.62415   0.50104   0.00000  Uiso   1.00
C796   C     0.83473   0.37585   0.49896   0.00000  Uiso   1.00
C797   C     0.87109   0.52136   0.36026   0.00000  Uiso   1.00
C798   C     0.79558   0.47864   0.63974   0.00000  Uiso   1.00
C799   C     0.87057   0.52121   0.64578   0.00000  Uiso   1.00
C800   C     0.79610   0.47879   0.35422   0.00000  Uiso   1.00
H801   H     0.86740   0.62657   0.43855   0.00000  Uiso   1.00
H802   H     0.79926   0.37343   0.56145   0.00000  Uiso   1.00
H803   H     0.90029   0.53784   0.62986   0.00000  Uiso   1.00
H804   H     0.76638   0.46216   0.37014   0.00000  Uiso   1.00
N805   N     0.83332   0.49999   0.61907   0.00000  Uiso   1.00
N806   N     0.83335   0.50001   0.38093   0.00000  Uiso   1.00
O807   O     0.83333   0.43892   0.53821   0.00000  Uiso   1.00
O808   O     0.83334   0.56108   0.46179   0.00000  Uiso   1.00
O809   O     0.83333   0.43893   0.46176   0.00000  Uiso   1.00
O810   O     0.83334   0.56107   0.53824   0.00000  Uiso   1.00
O811   O     0.75725   0.50000   0.52928   0.00000  Uiso   1.00
O812   O     0.90942   0.50000   0.47072   0.00000  Uiso   1.00
O813   O     0.75725   0.50000   0.45284   0.00000  Uiso   1.00
O814   O     0.90942   0.50000   0.54716   0.00000  Uiso   1.00
Zn815  Zn    0.83333   0.49999   0.55104   0.00000  Uiso   1.00
Zn816  Zn    0.83333   0.50001   0.44896   0.00000  Uiso   1.00
C817   C     0.99591   0.44994   0.46093   0.00000  Uiso   1.00
H818   H     0.69590   0.43292   0.44902   0.00000  Uiso   1.00
H819   H     0.97705   0.42886   0.48386   0.00000  Uiso   1.00
H820   H     0.96838   0.45694   0.43064   0.00000  Uiso   1.00
C821   C     0.67076   0.55006   0.53906   0.00000  Uiso   1.00
H822   H     0.97076   0.56709   0.55097   0.00000  Uiso   1.00
H823   H     0.69828   0.54306   0.56936   0.00000  Uiso   1.00
H824   H     0.68962   0.57114   0.51614   0.00000  Uiso   1.00
C825   C     0.87717   0.37315   0.42399   0.00000  Uiso   1.00
H826   H     0.90816   0.39561   0.43647   0.00000  Uiso   1.00
H827   H     0.89534   0.34997   0.40300   0.00000  Uiso   1.00
H828   H     0.84617   0.38884   0.40147   0.00000  Uiso   1.00
C829   C     0.78949   0.62685   0.57601   0.00000  Uiso   1.00
H830   H     0.75851   0.60439   0.56353   0.00000  Uiso   1.00
H831   H     0.82049   0.61116   0.59853   0.00000  Uiso   1.00
H832   H     0.77132   0.65003   0.59700   0.00000  Uiso   1.00
C833   C     0.91511   0.54432   0.38711   0.00000  Uiso   1.00
H834   H     0.93448   0.56634   0.36550   0.00000  Uiso   1.00
H835   H     0.90119   0.56283   0.41443   0.00000  Uiso   1.00
H836   H     0.94523   0.52220   0.40103   0.00000  Uiso   1.00
C837   C     0.75155   0.45569   0.61289   0.00000  Uiso   1.00
H838   H     0.73218   0.43367   0.63450   0.00000  Uiso   1.00
H839   H     0.72143   0.47781   0.59898   0.00000  Uiso   1.00
H840   H     0.76547   0.43718   0.58556   0.00000  Uiso   1.00
C841   C     0.16782   0.75340   0.49977   0.00000  Uiso   1.00
C842   C     0.16551   0.91327   0.50023   0.00000  Uiso   1.00
C843   C     0.06759   0.83190   0.48904   0.00000  Uiso   1.00
C844   C     0.26574   0.83476   0.51096   0.00000  Uiso   1.00
C845   C     0.01416   0.82270   0.48621   0.00000  Uiso   1.00
C846   C     0.31917   0.84397   0.51379   0.00000  Uiso   1.00
C847   C     0.18737   0.68675   0.46348   0.00000  Uiso   1.00
C848   C     0.14596   0.97992   0.53652   0.00000  Uiso   1.00
C849   C     0.18562   0.97754   0.46525   0.00000  Uiso   1.00
C850   C     0.14771   0.68913   0.53475   0.00000  Uiso   1.00
C851   C     0.16527   0.95748   0.50104   0.00000  Uiso   1.00
C852   C     0.16806   0.70918   0.49896   0.00000  Uiso   1.00
C853   C     0.20442   0.85469   0.36026   0.00000  Uiso   1.00
C854   C     0.12891   0.81197   0.63974   0.00000  Uiso   1.00
C855   C     0.20390   0.85454   0.64578   0.00000  Uiso   1.00
C856   C     0.12944   0.81213   0.35422   0.00000  Uiso   1.00
H857   H     0.20073   0.95990   0.43855   0.00000  Uiso   1.00
H858   H     0.13260   0.70677   0.56145   0.00000  Uiso   1.00
H859   H     0.23362   0.87117   0.62986   0.00000  Uiso   1.00
H860   H     0.09971   0.79549   0.37014   0.00000  Uiso   1.00
N861   N     0.16665   0.83332   0.61907   0.00000  Uiso   1.00
N862   N     0.16668   0.83334   0.38093   0.00000  Uiso   1.00
O863   O     0.16666   0.77225   0.53821   0.00000  Uiso   1.00
O864   O     0.16667   0.89442   0.46179   0.00000  Uiso   1.00
O865   O     0.16666   0.77226   0.46176   0.00000  Uiso   1.00
O866   O     0.16667   0.89441   0.53824   0.00000  Uiso   1.00
O867   O     0.09058   0.83333   0.52928   0.00000  Uiso   1.00
O868   O     0.24275   0.83334   0.47072   0.00000  Uiso   1.00
O869   O     0.09058   0.83334   0.45284   0.00000  Uiso   1.00
O870   O     0.24275   0.83333   0.54716   0.00000  Uiso   1.00
Zn871  Zn    0.16667   0.83333   0.55104   0.00000  Uiso   1.00
Zn872  Zn    0.16667   0.83334   0.44896   0.00000  Uiso   1.00
C873   C     0.32924   0.78327   0.46093   0.00000  Uiso   1.00
H874   H     0.02924   0.76625   0.44902   0.00000  Uiso   1.00
H875   H     0.31038   0.76219   0.48386   0.00000  Uiso   1.00
H876   H     0.30171   0.79028   0.43064   0.00000  Uiso   1.00
C877   C     0.00409   0.88340   0.53906   0.00000  Uiso   1.00
H878   H     0.30410   0.90042   0.55097   0.00000  Uiso   1.00
H879   H     0.03162   0.87639   0.56936   0.00000  Uiso   1.00
H880   H     0.02295   0.90448   0.51614   0.00000  Uiso   1.00
C881   C     0.21050   0.70648   0.42399   0.00000  Uiso   1.00
H882   H     0.24149   0.72894   0.43647   0.00000  Uiso   1.00
H883   H     0.22868   0.68330   0.40300   0.00000  Uiso   1.00
H884   H     0.17951   0.72217   0.40147   0.00000  Uiso   1.00
C885   C     0.12283   0.96019   0.57601   0.00000  Uiso   1.00
H886   H     0.09184   0.93772   0.56353   0.00000  Uiso   1.00
H887   H     0.15382   0.94449   0.59853   0.00000  Uiso   1.00
H888   H     0.10465   0.98337   0.59700   0.00000  Uiso   1.00
C889   C     0.24844   0.87765   0.38711   0.00000  Uiso   1.00
H890   H     0.26782   0.89967   0.36550   0.00000  Uiso   1.00
H891   H     0.23452   0.89617   0.41443   0.00000  Uiso   1.00
H892   H     0.27857   0.85553   0.40103   0.00000  Uiso   1.00
C893   C     0.08489   0.78902   0.61289   0.00000  Uiso   1.00
H894   H     0.06551   0.76700   0.63450   0.00000  Uiso   1.00
H895   H     0.05476   0.81115   0.59898   0.00000  Uiso   1.00
H896   H     0.09880   0.77051   0.58556   0.00000  Uiso   1.00
C897   C     0.50115   0.75340   0.49977   0.00000  Uiso   1.00
C898   C     0.49884   0.91327   0.50023   0.00000  Uiso   1.00
C899   C     0.40092   0.83190   0.48904   0.00000  Uiso   1.00
C900   C     0.59908   0.83476   0.51096   0.00000  Uiso   1.00
C901   C     0.34750   0.82270   0.48621   0.00000  Uiso   1.00
C902   C     0.65250   0.84397   0.51379   0.00000  Uiso   1.00
C903   C     0.52070   0.68675   0.46348   0.00000  Uiso   1.00
C904   C     0.47929   0.97992   0.53652   0.00000  Uiso   1.00
C905   C     0.51896   0.97754   0.46525   0.00000  Uiso   1.00
C906   C     0.48104   0.68913   0.53475   0.00000  Uiso   1.00
C907   C     0.49860   0.95748   0.50104   0.00000  Uiso   1.00
C908   C     0.50139   0.70918   0.49896   0.00000  Uiso   1.00
C909   C     0.53776   0.85469   0.36026   0.00000  Uiso   1.00
C910   C     0.46224   0.81197   0.63974   0.00000  Uiso   1.00
C911   C     0.53723   0.85454   0.64578   0.00000  Uiso   1.00
C912   C     0.46277   0.81213   0.35422   0.00000  Uiso   1.00
H913   H     0.53407   0.95990   0.43855   0.00000  Uiso   1.00
H914   H     0.46593   0.70677   0.56145   0.00000  Uiso   1.00
H915   H     0.56695   0.87117   0.62986   0.00000  Uiso   1.00
H916   H     0.43305   0.79549   0.37014   0.00000  Uiso   1.00
N917   N     0.49999   0.83332   0.61907   0.00000  Uiso   1.00
N918   N     0.50001   0.83334   0.38093   0.00000  Uiso   1.00
O919   O     0.50000   0.77225   0.53821   0.00000  Uiso   1.00
O920   O     0.50000   0.89442   0.46179   0.00000  Uiso   1.00
O921   O     0.50000   0.77226   0.46176   0.00000  Uiso   1.00
O922   O     0.50000   0.89441   0.53824   0.00000  Uiso   1.00
O923   O     0.42392   0.83333   0.52928   0.00000  Uiso   1.00
O924   O     0.57608   0.83334   0.47072   0.00000  Uiso   1.00
O925   O     0.42392   0.83334   0.45284   0.00000  Uiso   1.00
O926   O     0.57608   0.83333   0.54716   0.00000  Uiso   1.00
Zn927  Zn    0.50000   0.83333   0.55104   0.00000  Uiso   1.00
Zn928  Zn    0.50000   0.83334   0.44896   0.00000  Uiso   1.00
C929   C     0.66257   0.78327   0.46093   0.00000  Uiso   1.00
H930   H     0.36257   0.76625   0.44902   0.00000  Uiso   1.00
H931   H     0.64372   0.76219   0.48386   0.00000  Uiso   1.00
H932   H     0.63505   0.79028   0.43064   0.00000  Uiso   1.00
C933   C     0.33743   0.88340   0.53906   0.00000  Uiso   1.00
H934   H     0.63743   0.90042   0.55097   0.00000  Uiso   1.00
H935   H     0.36495   0.87639   0.56936   0.00000  Uiso   1.00
H936   H     0.35628   0.90448   0.51614   0.00000  Uiso   1.00
C937   C     0.54384   0.70648   0.42399   0.00000  Uiso   1.00
H938   H     0.57482   0.72894   0.43647   0.00000  Uiso   1.00
H939   H     0.56201   0.68330   0.40300   0.00000  Uiso   1.00
H940   H     0.51284   0.72217   0.40147   0.00000  Uiso   1.00
C941   C     0.45616   0.96019   0.57601   0.00000  Uiso   1.00
H942   H     0.42518   0.93772   0.56353   0.00000  Uiso   1.00
H943   H     0.48716   0.94449   0.59853   0.00000  Uiso   1.00
H944   H     0.43798   0.98337   0.59700   0.00000  Uiso   1.00
C945   C     0.58177   0.87765   0.38711   0.00000  Uiso   1.00
H946   H     0.60115   0.89967   0.36550   0.00000  Uiso   1.00
H947   H     0.56785   0.89617   0.41443   0.00000  Uiso   1.00
H948   H     0.61190   0.85553   0.40103   0.00000  Uiso   1.00
C949   C     0.41822   0.78902   0.61289   0.00000  Uiso   1.00
H950   H     0.39884   0.76700   0.63450   0.00000  Uiso   1.00
H951   H     0.38810   0.81115   0.59898   0.00000  Uiso   1.00
H952   H     0.43213   0.77051   0.58556   0.00000  Uiso   1.00
C953   C     0.83449   0.75340   0.49977   0.00000  Uiso   1.00
C954   C     0.83218   0.91327   0.50023   0.00000  Uiso   1.00
C955   C     0.73426   0.83190   0.48904   0.00000  Uiso   1.00
C956   C     0.93241   0.83476   0.51096   0.00000  Uiso   1.00
C957   C     0.68083   0.82270   0.48621   0.00000  Uiso   1.00
C958   C     0.98584   0.84397   0.51379   0.00000  Uiso   1.00
C959   C     0.85404   0.68675   0.46348   0.00000  Uiso   1.00
C960   C     0.81263   0.97992   0.53652   0.00000  Uiso   1.00
C961   C     0.85229   0.97754   0.46525   0.00000  Uiso   1.00
C962   C     0.81437   0.68913   0.53475   0.00000  Uiso   1.00
C963   C     0.83194   0.95748   0.50104   0.00000  Uiso   1.00
C964   C     0.83473   0.70918   0.49896   0.00000  Uiso   1.00
C965   C     0.87109   0.85469   0.36026   0.00000  Uiso   1.00
C966   C     0.79558   0.81197   0.63974   0.00000  Uiso   1.00
C967   C     0.87057   0.85454   0.64578   0.00000  Uiso   1.00
C968   C     0.79610   0.81213   0.35422   0.00000  Uiso   1.00
H969   H     0.86740   0.95990   0.43855   0.00000  Uiso   1.00
H970   H     0.79926   0.70677   0.56145   0.00000  Uiso   1.00
H971   H     0.90029   0.87117   0.62986   0.00000  Uiso   1.00
H972   H     0.76638   0.79549   0.37014   0.00000  Uiso   1.00
N973   N     0.83332   0.83332   0.61907   0.00000  Uiso   1.00
N974   N     0.83335   0.83334   0.38093   0.00000  Uiso   1.00
O975   O     0.83333   0.77225   0.53821   0.00000  Uiso   1.00
O976   O     0.83334   0.89442   0.46179   0.00000  Uiso   1.00
O977   O     0.83333   0.77226   0.46176   0.00000  Uiso   1.00
O978   O     0.83334   0.89441   0.53824   0.00000  Uiso   1.00
O979   O     0.75725   0.83333   0.52928   0.00000  Uiso   1.00
O980   O     0.90942   0.83334   0.47072   0.00000  Uiso   1.00
O981   O     0.75725   0.83334   0.45284   0.00000  Uiso   1.00
O982   O     0.90942   0.83333   0.54716   0.00000  Uiso   1.00
Zn983  Zn    0.83333   0.83333   0.55104   0.00000  Uiso   1.00
Zn984  Zn    0.83333   0.83334   0.44896   0.00000  Uiso   1.00
C985   C     0.99591   0.78327   0.46093   0.00000  Uiso   1.00
H986   H     0.69590   0.76625   0.44902   0.00000  Uiso   1.00
H987   H     0.97705   0.76219   0.48386   0.00000  Uiso   1.00
H988   H     0.96838   0.79028   0.43064   0.00000  Uiso   1.00
C989   C     0.67076   0.88340   0.53906   0.00000  Uiso   1.00
H990   H     0.97076   0.90042   0.55097   0.00000  Uiso   1.00
H991   H     0.69828   0.87639   0.56936   0.00000  Uiso   1.00
H992   H     0.68962   0.90448   0.51614   0.00000  Uiso   1.00
C993   C     0.87717   0.70648   0.42399   0.00000  Uiso   1.00
H994   H     0.90816   0.72894   0.43647   0.00000  Uiso   1.00
H995   H     0.89534   0.68330   0.40300   0.00000  Uiso   1.00
H996   H     0.84617   0.72217   0.40147   0.00000  Uiso   1.00
C997   C     0.78949   0.96019   0.57601   0.00000  Uiso   1.00
H998   H     0.75851   0.93772   0.56353   0.00000  Uiso   1.00
H999   H     0.82049   0.94449   0.59853   0.00000  Uiso   1.00
H1000  H     0.77132   0.98337   0.59700   0.00000  Uiso   1.00
C1001  C     0.91511   0.87765   0.38711   0.00000  Uiso   1.00
H1002  H     0.93448   0.89967   0.36550   0.00000  Uiso   1.00
H1003  H     0.90119   0.89617   0.41443   0.00000  Uiso   1.00
H1004  H     0.94523   0.85553   0.40103   0.00000  Uiso   1.00
C1005  C     0.75155   0.78902   0.61289   0.00000  Uiso   1.00
H1006  H     0.73218   0.76700   0.63450   0.00000  Uiso   1.00
H1007  H     0.72143   0.81115   0.59898   0.00000  Uiso   1.00
H1008  H     0.76547   0.77051   0.58556   0.00000  Uiso   1.00
C1009  C     0.16782   0.08673   0.83310   0.00000  Uiso   1.00
C1010  C     0.16551   0.24660   0.83356   0.00000  Uiso   1.00
C1011  C     0.06759   0.16524   0.82237   0.00000  Uiso   1.00
C1012  C     0.26574   0.16810   0.84429   0.00000  Uiso   1.00
C1013  C     0.01416   0.15603   0.81954   0.00000  Uiso   1.00
C1014  C     0.31917   0.17730   0.84712   0.00000  Uiso   1.00
C1015  C     0.18737   0.02008   0.79681   0.00000  Uiso   1.00
C1016  C     0.14596   0.31325   0.86985   0.00000  Uiso   1.00
C1017  C     0.18562   0.31087   0.79858   0.00000  Uiso   1.00
C1018  C     0.14771   0.02246   0.86809   0.00000  Uiso   1.00
C1019  C     0.16527   0.29082   0.83437   0.00000  Uiso   1.00
C1020  C     0.16806   0.04252   0.83229   0.00000  Uiso   1.00
C1021  C     0.20442   0.18803   0.69359   0.00000  Uiso   1.00
C1022  C     0.12891   0.14531   0.97308   0.00000  Uiso   1.00
C1023  C     0.20390   0.18787   0.97911   0.00000  Uiso   1.00
C1024  C     0.12944   0.14546   0.68756   0.00000  Uiso   1.00
H1025  H     0.20073   0.29323   0.77188   0.00000  Uiso   1.00
H1026  H     0.13260   0.04010   0.89479   0.00000  Uiso   1.00
H1027  H     0.23362   0.20451   0.96320   0.00000  Uiso   1.00
H1028  H     0.09971   0.12883   0.70347   0.00000  Uiso   1.00
N1029  N     0.16665   0.16666   0.95240   0.00000  Uiso   1.00
N1030  N     0.16668   0.16668   0.71427   0.00000  Uiso   1.00
O1031  O     0.16666   0.10558   0.87154   0.00000  Uiso   1.00
O1032  O     0.16667   0.22775   0.79513   0.00000  Uiso   1.00
O1033  O     0.16666   0.10559   0.79510   0.00000  Uiso   1.00
O1034  O     0.16667   0.22774   0.87157   0.00000  Uiso   1.00
O1035  O     0.09058   0.16666   0.86261   0.00000  Uiso   1.00
O1036  O     0.24275   0.16667   0.80405   0.00000  Uiso   1.00
O1037  O     0.09058   0.16667   0.78617   0.00000  Uiso   1.00
O1038  O     0.24275   0.16666   0.88050   0.00000  Uiso   1.00
Zn1039 Zn    0.16667   0.16666   0.88437   0.00000  Uiso   1.00
Zn1040 Zn    0.16667   0.16667   0.78229   0.00000  Uiso   1.00
C1041  C     0.32924   0.11661   0.79427   0.00000  Uiso   1.00
H1042  H     0.02924   0.09958   0.78236   0.00000  Uiso   1.00
H1043  H     0.31038   0.09552   0.81719   0.00000  Uiso   1.00
H1044  H     0.30171   0.12361   0.76397   0.00000  Uiso   1.00
C1045  C     0.00409   0.21673   0.87240   0.00000  Uiso   1.00
H1046  H     0.30410   0.23375   0.88431   0.00000  Uiso   1.00
H1047  H     0.03162   0.20973   0.90269   0.00000  Uiso   1.00
H1048  H     0.02295   0.23781   0.84947   0.00000  Uiso   1.00
C1049  C     0.21050   0.03981   0.75733   0.00000  Uiso   1.00
H1050  H     0.24149   0.06227   0.76981   0.00000  Uiso   1.00
H1051  H     0.22868   0.01663   0.73633   0.00000  Uiso   1.00
H1052  H     0.17951   0.05551   0.73480   0.00000  Uiso   1.00
C1053  C     0.12283   0.29352   0.90934   0.00000  Uiso   1.00
H1054  H     0.09184   0.27106   0.89686   0.00000  Uiso   1.00
H1055  H     0.15382   0.27783   0.93187   0.00000  Uiso   1.00
H1056  H     0.10465   0.31670   0.93033   0.00000  Uiso   1.00
C1057  C     0.24844   0.21098   0.72044   0.00000  Uiso   1.00
H1058  H     0.26782   0.23301   0.69883   0.00000  Uiso   1.00
H1059  H     0.23452   0.22950   0.74776   0.00000  Uiso   1.00
H1060  H     0.27857   0.18886   0.73436   0.00000  Uiso   1.00
C1061  C     0.08489   0.12236   0.94622   0.00000  Uiso   1.00
H1062  H     0.06551   0.10034   0.96783   0.00000  Uiso   1.00
H1063  H     0.05476   0.14448   0.93231   0.00000  Uiso   1.00
H1064  H     0.09880   0.10384   0.91890   0.00000  Uiso   1.00
C1065  C     0.50115   0.08673   0.83310   0.00000  Uiso   1.00
C1066  C     0.49884   0.24660   0.83356   0.00000  Uiso   1.00
C1067  C     0.40092   0.16524   0.82237   0.00000  Uiso   1.00
C1068  C     0.59908   0.16810   0.84429   0.00000  Uiso   1.00
C1069  C     0.34750   0.15603   0.81954   0.00000  Uiso   1.00
C1070  C     0.65250   0.17730   0.84712   0.00000  Uiso   1.00
C1071  C     0.52070   0.02008   0.79681   0.00000  Uiso   1.00
C1072  C     0.47929   0.31325   0.86985   0.00000  Uiso   1.00
C1073  C     0.51896   0.31087   0.79858   0.00000  Uiso   1.00
C1074  C     0.48104   0.02246   0.86809   0.00000  Uiso   1.00
C1075  C     0.49860   0.29082   0.83437   0.00000  Uiso   1.00
C1076  C     0.50139   0.04252   0.83229   0.00000  Uiso   1.00
C1077  C     0.53776   0.18803   0.69359   0.00000  Uiso   1.00
C1078  C     0.46224   0.14531   0.97308   0.00000  Uiso   1.00
C1079  C     0.53723   0.18787   0.97911   0.00000  Uiso   1.00
C1080  C     0.46277   0.14546   0.68756   0.00000  Uiso   1.00
H1081  H     0.53407   0.29323   0.77188   0.00000  Uiso   1.00
H1082  H     0.46593   0.04010   0.89479   0.00000  Uiso   1.00
H1083  H     0.56695   0.20451   0.96320   0.00000  Uiso   1.00
H1084  H     0.43305   0.12883   0.70347   0.00000  Uiso   1.00
N1085  N     0.49999   0.16666   0.95240   0.00000  Uiso   1.00
N1086  N     0.50001   0.16668   0.71427   0.00000  Uiso   1.00
O1087  O     0.50000   0.10558   0.87154   0.00000  Uiso   1.00
O1088  O     0.50000   0.22775   0.79513   0.00000  Uiso   1.00
O1089  O     0.50000   0.10559   0.79510   0.00000  Uiso   1.00
O1090  O     0.50000   0.22774   0.87157   0.00000  Uiso   1.00
O1091  O     0.42392   0.16666   0.86261   0.00000  Uiso   1.00
O1092  O     0.57608   0.16667   0.80405   0.00000  Uiso   1.00
O1093  O     0.42392   0.16667   0.78617   0.00000  Uiso   1.00
O1094  O     0.57608   0.16666   0.88050   0.00000  Uiso   1.00
Zn1095 Zn    0.50000   0.16666   0.88437   0.00000  Uiso   1.00
Zn1096 Zn    0.50000   0.16667   0.78229   0.00000  Uiso   1.00
C1097  C     0.66257   0.11661   0.79427   0.00000  Uiso   1.00
H1098  H     0.36257   0.09958   0.78236   0.00000  Uiso   1.00
H1099  H     0.64372   0.09552   0.81719   0.00000  Uiso   1.00
H1100  H     0.63505   0.12361   0.76397   0.00000  Uiso   1.00
C1101  C     0.33743   0.21673   0.87240   0.00000  Uiso   1.00
H1102  H     0.63743   0.23375   0.88431   0.00000  Uiso   1.00
H1103  H     0.36495   0.20973   0.90269   0.00000  Uiso   1.00
H1104  H     0.35628   0.23781   0.84947   0.00000  Uiso   1.00
C1105  C     0.54384   0.03981   0.75733   0.00000  Uiso   1.00
H1106  H     0.57482   0.06227   0.76981   0.00000  Uiso   1.00
H1107  H     0.56201   0.01663   0.73633   0.00000  Uiso   1.00
H1108  H     0.51284   0.05551   0.73480   0.00000  Uiso   1.00
C1109  C     0.45616   0.29352   0.90934   0.00000  Uiso   1.00
H1110  H     0.42518   0.27106   0.89686   0.00000  Uiso   1.00
H1111  H     0.48716   0.27783   0.93187   0.00000  Uiso   1.00
H1112  H     0.43798   0.31670   0.93033   0.00000  Uiso   1.00
C1113  C     0.58177   0.21098   0.72044   0.00000  Uiso   1.00
H1114  H     0.60115   0.23301   0.69883   0.00000  Uiso   1.00
H1115  H     0.56785   0.22950   0.74776   0.00000  Uiso   1.00
H1116  H     0.61190   0.18886   0.73436   0.00000  Uiso   1.00
C1117  C     0.41822   0.12236   0.94622   0.00000  Uiso   1.00
H1118  H     0.39884   0.10034   0.96783   0.00000  Uiso   1.00
H1119  H     0.38810   0.14448   0.93231   0.00000  Uiso   1.00
H1120  H     0.43213   0.10384   0.91890   0.00000  Uiso   1.00
C1121  C     0.83449   0.08673   0.83310   0.00000  Uiso   1.00
C1122  C     0.83218   0.24660   0.83356   0.00000  Uiso   1.00
C1123  C     0.73426   0.16524   0.82237   0.00000  Uiso   1.00
C1124  C     0.93241   0.16810   0.84429   0.00000  Uiso   1.00
C1125  C     0.68083   0.15603   0.81954   0.00000  Uiso   1.00
C1126  C     0.98584   0.17730   0.84712   0.00000  Uiso   1.00
C1127  C     0.85404   0.02008   0.79681   0.00000  Uiso   1.00
C1128  C     0.81263   0.31325   0.86985   0.00000  Uiso   1.00
C1129  C     0.85229   0.31087   0.79858   0.00000  Uiso   1.00
C1130  C     0.81437   0.02246   0.86809   0.00000  Uiso   1.00
C1131  C     0.83194   0.29082   0.83437   0.00000  Uiso   1.00
C1132  C     0.83473   0.04252   0.83229   0.00000  Uiso   1.00
C1133  C     0.87109   0.18803   0.69359   0.00000  Uiso   1.00
C1134  C     0.79558   0.14531   0.97308   0.00000  Uiso   1.00
C1135  C     0.87057   0.18787   0.97911   0.00000  Uiso   1.00
C1136  C     0.79610   0.14546   0.68756   0.00000  Uiso   1.00
H1137  H     0.86740   0.29323   0.77188   0.00000  Uiso   1.00
H1138  H     0.79926   0.04010   0.89479   0.00000  Uiso   1.00
H1139  H     0.90029   0.20451   0.96320   0.00000  Uiso   1.00
H1140  H     0.76638   0.12883   0.70347   0.00000  Uiso   1.00
N1141  N     0.83332   0.16666   0.95240   0.00000  Uiso   1.00
N1142  N     0.83335   0.16668   0.71427   0.00000  Uiso   1.00
O1143  O     0.83333   0.10558   0.87154   0.00000  Uiso   1.00
O1144  O     0.83334   0.22775   0.79513   0.00000  Uiso   1.00
O1145  O     0.83333   0.10559   0.79510   0.00000  Uiso   1.00
O1146  O     0.83334   0.22774   0.87157   0.00000  Uiso   1.00
O1147  O     0.75725   0.16666   0.86261   0.00000  Uiso   1.00
O1148  O     0.90942   0.16667   0.80405   0.00000  Uiso   1.00
O1149  O     0.75725   0.16667   0.78617   0.00000  Uiso   1.00
O1150  O     0.90942   0.16666   0.88050   0.00000  Uiso   1.00
Zn1151 Zn    0.83333   0.16666   0.88437   0.00000  Uiso   1.00
Zn1152 Zn    0.83333   0.16667   0.78229   0.00000  Uiso   1.00
C1153  C     0.99591   0.11661   0.79427   0.00000  Uiso   1.00
H1154  H     0.69590   0.09958   0.78236   0.00000  Uiso   1.00
H1155  H     0.97705   0.09552   0.81719   0.00000  Uiso   1.00
H1156  H     0.96838   0.12361   0.76397   0.00000  Uiso   1.00
C1157  C     0.67076   0.21673   0.87240   0.00000  Uiso   1.00
H1158  H     0.97076   0.23375   0.88431   0.00000  Uiso   1.00
H1159  H     0.69828   0.20973   0.90269   0.00000  Uiso   1.00
H1160  H     0.68962   0.23781   0.84947   0.00000  Uiso   1.00
C1161  C     0.87717   0.03981   0.75733   0.00000  Uiso   1.00
H1162  H     0.90816   0.06227   0.76981   0.00000  Uiso   1.00
H1163  H     0.89534   0.01663   0.73633   0.00000  Uiso   1.00
H1164  H     0.84617   0.05551   0.73480   0.00000  Uiso   1.00
C1165  C     0.78949   0.29352   0.90934   0.00000  Uiso   1.00
H1166  H     0.75851   0.27106   0.89686   0.00000  Uiso   1.00
H1167  H     0.82049   0.27783   0.93187   0.00000  Uiso   1.00
H1168  H     0.77132   0.31670   0.93033   0.00000  Uiso   1.00
C1169  C     0.91511   0.21098   0.72044   0.00000  Uiso   1.00
H1170  H     0.93448   0.23301   0.69883   0.00000  Uiso   1.00
H1171  H     0.90119   0.22950   0.74776   0.00000  Uiso   1.00
H1172  H     0.94523   0.18886   0.73436   0.00000  Uiso   1.00
C1173  C     0.75155   0.12236   0.94622   0.00000  Uiso   1.00
H1174  H     0.73218   0.10034   0.96783   0.00000  Uiso   1.00
H1175  H     0.72143   0.14448   0.93231   0.00000  Uiso   1.00
H1176  H     0.76547   0.10384   0.91890   0.00000  Uiso   1.00
C1177  C     0.16782   0.42006   0.83310   0.00000  Uiso   1.00
C1178  C     0.16551   0.57994   0.83356   0.00000  Uiso   1.00
C1179  C     0.06759   0.49857   0.82237   0.00000  Uiso   1.00
C1180  C     0.26574   0.50143   0.84429   0.00000  Uiso   1.00
C1181  C     0.01416   0.48937   0.81954   0.00000  Uiso   1.00
C1182  C     0.31917   0.51063   0.84712   0.00000  Uiso   1.00
C1183  C     0.18737   0.35341   0.79681   0.00000  Uiso   1.00
C1184  C     0.14596   0.64659   0.86985   0.00000  Uiso   1.00
C1185  C     0.18562   0.64420   0.79858   0.00000  Uiso   1.00
C1186  C     0.14771   0.35580   0.86809   0.00000  Uiso   1.00
C1187  C     0.16527   0.62415   0.83437   0.00000  Uiso   1.00
C1188  C     0.16806   0.37585   0.83229   0.00000  Uiso   1.00
C1189  C     0.20442   0.52136   0.69359   0.00000  Uiso   1.00
C1190  C     0.12891   0.47864   0.97308   0.00000  Uiso   1.00
C1191  C     0.20390   0.52121   0.97911   0.00000  Uiso   1.00
C1192  C     0.12944   0.47879   0.68756   0.00000  Uiso   1.00
H1193  H     0.20073   0.62657   0.77188   0.00000  Uiso   1.00
H1194  H     0.13260   0.37343   0.89479   0.00000  Uiso   1.00
H1195  H     0.23362   0.53784   0.96320   0.00000  Uiso   1.00
H1196  H     0.09971   0.46216   0.70347   0.00000  Uiso   1.00
N1197  N     0.16665   0.49999   0.95240   0.00000  Uiso   1.00
N1198  N     0.16668   0.50001   0.71427   0.00000  Uiso   1.00
O1199  O     0.16666   0.43892   0.87154   0.00000  Uiso   1.00
O1200  O     0.16667   0.56108   0.79513   0.00000  Uiso   1.00
O1201  O     0.16666   0.43893   0.79510   0.00000  Uiso   1.00
O1202  O     0.16667   0.56107   0.87157   0.00000  Uiso   1.00
O1203  O     0.09058   0.50000   0.86261   0.00000  Uiso   1.00
O1204  O     0.24275   0.50000   0.80405   0.00000  Uiso   1.00
O1205  O     0.09058   0.50000   0.78617   0.00000  Uiso   1.00
O1206  O     0.24275   0.50000   0.88050   0.00000  Uiso   1.00
Zn1207 Zn    0.16667   0.49999   0.88437   0.00000  Uiso   1.00
Zn1208 Zn    0.16667   0.50001   0.78229   0.00000  Uiso   1.00
C1209  C     0.32924   0.44994   0.79427   0.00000  Uiso   1.00
H1210  H     0.02924   0.43292   0.78236   0.00000  Uiso   1.00
H1211  H     0.31038   0.42886   0.81719   0.00000  Uiso   1.00
H1212  H     0.30171   0.45694   0.76397   0.00000  Uiso   1.00
C1213  C     0.00409   0.55006   0.87240   0.00000  Uiso   1.00
H1214  H     0.30410   0.56709   0.88431   0.00000  Uiso   1.00
H1215  H     0.03162   0.54306   0.90269   0.00000  Uiso   1.00
H1216  H     0.02295   0.57114   0.84947   0.00000  Uiso   1.00
C1217  C     0.21050   0.37315   0.75733   0.00000  Uiso   1.00
H1218  H     0.24149   0.39561   0.76981   0.00000  Uiso   1.00
H1219  H     0.22868   0.34997   0.73633   0.00000  Uiso   1.00
H1220  H     0.17951   0.38884   0.73480   0.00000  Uiso   1.00
C1221  C     0.12283   0.62685   0.90934   0.00000  Uiso   1.00
H1222  H     0.09184   0.60439   0.89686   0.00000  Uiso   1.00
H1223  H     0.15382   0.61116   0.93187   0.00000  Uiso   1.00
H1224  H     0.10465   0.65003   0.93033   0.00000  Uiso   1.00
C1225  C     0.24844   0.54432   0.72044   0.00000  Uiso   1.00
H1226  H     0.26782   0.56634   0.69883   0.00000  Uiso   1.00
H1227  H     0.23452   0.56283   0.74776   0.00000  Uiso   1.00
H1228  H     0.27857   0.52220   0.73436   0.00000  Uiso   1.00
C1229  C     0.08489   0.45569   0.94622   0.00000  Uiso   1.00
H1230  H     0.06551   0.43367   0.96783   0.00000  Uiso   1.00
H1231  H     0.05476   0.47781   0.93231   0.00000  Uiso   1.00
H1232  H     0.09880   0.43718   0.91890   0.00000  Uiso   1.00
C1233  C     0.50115   0.42006   0.83310   0.00000  Uiso   1.00
C1234  C     0.49884   0.57994   0.83356   0.00000  Uiso   1.00
C1235  C     0.40092   0.49857   0.82237   0.00000  Uiso   1.00
C1236  C     0.59908   0.50143   0.84429   0.00000  Uiso   1.00
C1237  C     0.34750   0.48937   0.81954   0.00000  Uiso   1.00
C1238  C     0.65250   0.51063   0.84712   0.00000  Uiso   1.00
C1239  C     0.52070   0.35341   0.79681   0.00000  Uiso   1.00
C1240  C     0.47929   0.64659   0.86985   0.00000  Uiso   1.00
C1241  C     0.51896   0.64420   0.79858   0.00000  Uiso   1.00
C1242  C     0.48104   0.35580   0.86809   0.00000  Uiso   1.00
C1243  C     0.49860   0.62415   0.83437   0.00000  Uiso   1.00
C1244  C     0.50139   0.37585   0.83229   0.00000  Uiso   1.00
C1245  C     0.53776   0.52136   0.69359   0.00000  Uiso   1.00
C1246  C     0.46224   0.47864   0.97308   0.00000  Uiso   1.00
C1247  C     0.53723   0.52121   0.97911   0.00000  Uiso   1.00
C1248  C     0.46277   0.47879   0.68756   0.00000  Uiso   1.00
H1249  H     0.53407   0.62657   0.77188   0.00000  Uiso   1.00
H1250  H     0.46593   0.37343   0.89479   0.00000  Uiso   1.00
H1251  H     0.56695   0.53784   0.96320   0.00000  Uiso   1.00
H1252  H     0.43305   0.46216   0.70347   0.00000  Uiso   1.00
N1253  N     0.49999   0.49999   0.95240   0.00000  Uiso   1.00
N1254  N     0.50001   0.50001   0.71427   0.00000  Uiso   1.00
O1255  O     0.50000   0.43892   0.87154   0.00000  Uiso   1.00
O1256  O     0.50000   0.56108   0.79513   0.00000  Uiso   1.00
O1257  O     0.50000   0.43893   0.79510   0.00000  Uiso   1.00
O1258  O     0.50000   0.56107   0.87157   0.00000  Uiso   1.00
O1259  O     0.42392   0.50000   0.86261   0.00000  Uiso   1.00
O1260  O     0.57608   0.50000   0.80405   0.00000  Uiso   1.00
O1261  O     0.42392   0.50000   0.78617   0.00000  Uiso   1.00
O1262  O     0.57608   0.50000   0.88050   0.00000  Uiso   1.00
Zn1263 Zn    0.50000   0.49999   0.88437   0.00000  Uiso   1.00
Zn1264 Zn    0.50000   0.50001   0.78229   0.00000  Uiso   1.00
C1265  C     0.66257   0.44994   0.79427   0.00000  Uiso   1.00
H1266  H     0.36257   0.43292   0.78236   0.00000  Uiso   1.00
H1267  H     0.64372   0.42886   0.81719   0.00000  Uiso   1.00
H1268  H     0.63505   0.45694   0.76397   0.00000  Uiso   1.00
C1269  C     0.33743   0.55006   0.87240   0.00000  Uiso   1.00
H1270  H     0.63743   0.56709   0.88431   0.00000  Uiso   1.00
H1271  H     0.36495   0.54306   0.90269   0.00000  Uiso   1.00
H1272  H     0.35628   0.57114   0.84947   0.00000  Uiso   1.00
C1273  C     0.54384   0.37315   0.75733   0.00000  Uiso   1.00
H1274  H     0.57482   0.39561   0.76981   0.00000  Uiso   1.00
H1275  H     0.56201   0.34997   0.73633   0.00000  Uiso   1.00
H1276  H     0.51284   0.38884   0.73480   0.00000  Uiso   1.00
C1277  C     0.45616   0.62685   0.90934   0.00000  Uiso   1.00
H1278  H     0.42518   0.60439   0.89686   0.00000  Uiso   1.00
H1279  H     0.48716   0.61116   0.93187   0.00000  Uiso   1.00
H1280  H     0.43798   0.65003   0.93033   0.00000  Uiso   1.00
C1281  C     0.58177   0.54432   0.72044   0.00000  Uiso   1.00
H1282  H     0.60115   0.56634   0.69883   0.00000  Uiso   1.00
H1283  H     0.56785   0.56283   0.74776   0.00000  Uiso   1.00
H1284  H     0.61190   0.52220   0.73436   0.00000  Uiso   1.00
C1285  C     0.41822   0.45569   0.94622   0.00000  Uiso   1.00
H1286  H     0.39884   0.43367   0.96783   0.00000  Uiso   1.00
H1287  H     0.38810   0.47781   0.93231   0.00000  Uiso   1.00
H1288  H     0.43213   0.43718   0.91890   0.00000  Uiso   1.00
C1289  C     0.83449   0.42006   0.83310   0.00000  Uiso   1.00
C1290  C     0.83218   0.57994   0.83356   0.00000  Uiso   1.00
C1291  C     0.73426   0.49857   0.82237   0.00000  Uiso   1.00
C1292  C     0.93241   0.50143   0.84429   0.00000  Uiso   1.00
C1293  C     0.68083   0.48937   0.81954   0.00000  Uiso   1.00
C1294  C     0.98584   0.51063   0.84712   0.00000  Uiso   1.00
C1295  C     0.85404   0.35341   0.79681   0.00000  Uiso   1.00
C1296  C     0.81263   0.64659   0.86985   0.00000  Uiso   1.00
C1297  C     0.85229   0.64420   0.79858   0.00000  Uiso   1.00
C1298  C     0.81437   0.35580   0.86809   0.00000  Uiso   1.00
C1299  C     0.83194   0.62415   0.83437   0.00000  Uiso   1.00
C1300  C     0.83473   0.37585   0.83229   0.00000  Uiso   1.00
C1301  C     0.87109   0.52136   0.69359   0.00000  Uiso   1.00
C1302  C     0.79558   0.47864   0.97308   0.00000  Uiso   1.00
C1303  C     0.87057   0.52121   0.97911   0.00000  Uiso   1.00
C1304  C     0.79610   0.47879   0.68756   0.00000  Uiso   1.00
H1305  H     0.86740   0.62657   0.77188   0.00000  Uiso   1.00
H1306  H     0.79926   0.37343   0.89479   0.00000  Uiso   1.00
H1307  H     0.90029   0.53784   0.96320   0.00000  Uiso   1.00
H1308  H     0.76638   0.46216   0.70347   0.00000  Uiso   1.00
N1309  N     0.83332   0.49999   0.95240   0.00000  Uiso   1.00
N1310  N     0.83335   0.50001   0.71427   0.00000  Uiso   1.00
O1311  O     0.83333   0.43892   0.87154   0.00000  Uiso   1.00
O1312  O     0.83334   0.56108   0.79513   0.00000  Uiso   1.00
O1313  O     0.83333   0.43893   0.79510   0.00000  Uiso   1.00
O1314  O     0.83334   0.56107   0.87157   0.00000  Uiso   1.00
O1315  O     0.75725   0.50000   0.86261   0.00000  Uiso   1.00
O1316  O     0.90942   0.50000   0.80405   0.00000  Uiso   1.00
O1317  O     0.75725   0.50000   0.78617   0.00000  Uiso   1.00
O1318  O     0.90942   0.50000   0.88050   0.00000  Uiso   1.00
Zn1319 Zn    0.83333   0.49999   0.88437   0.00000  Uiso   1.00
Zn1320 Zn    0.83333   0.50001   0.78229   0.00000  Uiso   1.00
C1321  C     0.99591   0.44994   0.79427   0.00000  Uiso   1.00
H1322  H     0.69590   0.43292   0.78236   0.00000  Uiso   1.00
H1323  H     0.97705   0.42886   0.81719   0.00000  Uiso   1.00
H1324  H     0.96838   0.45694   0.76397   0.00000  Uiso   1.00
C1325  C     0.67076   0.55006   0.87240   0.00000  Uiso   1.00
H1326  H     0.97076   0.56709   0.88431   0.00000  Uiso   1.00
H1327  H     0.69828   0.54306   0.90269   0.00000  Uiso   1.00
H1328  H     0.68962   0.57114   0.84947   0.00000  Uiso   1.00
C1329  C     0.87717   0.37315   0.75733   0.00000  Uiso   1.00
H1330  H     0.90816   0.39561   0.76981   0.00000  Uiso   1.00
H1331  H     0.89534   0.34997   0.73633   0.00000  Uiso   1.00
H1332  H     0.84617   0.38884   0.73480   0.00000  Uiso   1.00
C1333  C     0.78949   0.62685   0.90934   0.00000  Uiso   1.00
H1334  H     0.75851   0.60439   0.89686   0.00000  Uiso   1.00
H1335  H     0.82049   0.61116   0.93187   0.00000  Uiso   1.00
H1336  H     0.77132   0.65003   0.93033   0.00000  Uiso   1.00
C1337  C     0.91511   0.54432   0.72044   0.00000  Uiso   1.00
H1338  H     0.93448   0.56634   0.69883   0.00000  Uiso   1.00
H1339  H     0.90119   0.56283   0.74776   0.00000  Uiso   1.00
H1340  H     0.94523   0.52220   0.73436   0.00000  Uiso   1.00
C1341  C     0.75155   0.45569   0.94622   0.00000  Uiso   1.00
H1342  H     0.73218   0.43367   0.96783   0.00000  Uiso   1.00
H1343  H     0.72143   0.47781   0.93231   0.00000  Uiso   1.00
H1344  H     0.76547   0.43718   0.91890   0.00000  Uiso   1.00
C1345  C     0.16782   0.75340   0.83310   0.00000  Uiso   1.00
C1346  C     0.16551   0.91327   0.83356   0.00000  Uiso   1.00
C1347  C     0.06759   0.83190   0.82237   0.00000  Uiso   1.00
C1348  C     0.26574   0.83476   0.84429   0.00000  Uiso   1.00
C1349  C     0.01416   0.82270   0.81954   0.00000  Uiso   1.00
C1350  C     0.31917   0.84397   0.84712   0.00000  Uiso   1.00
C1351  C     0.18737   0.68675   0.79681   0.00000  Uiso   1.00
C1352  C     0.14596   0.97992   0.86985   0.00000  Uiso   1.00
C1353  C     0.18562   0.97754   0.79858   0.00000  Uiso   1.00
C1354  C     0.14771   0.68913   0.86809   0.00000  Uiso   1.00
C1355  C     0.16527   0.95748   0.83437   0.00000  Uiso   1.00
C1356  C     0.16806   0.70918   0.83229   0.00000  Uiso   1.00
C1357  C     0.20442   0.85469   0.69359   0.00000  Uiso   1.00
C1358  C     0.12891   0.81197   0.97308   0.00000  Uiso   1.00
C1359  C     0.20390   0.85454   0.97911   0.00000  Uiso   1.00
C1360  C     0.12944   0.81213   0.68756   0.00000  Uiso   1.00
H1361  H     0.20073   0.95990   0.77188   0.00000  Uiso   1.00
H1362  H     0.13260   0.70677   0.89479   0.00000  Uiso   1.00
H1363  H     0.23362   0.87117   0.96320   0.00000  Uiso   1.00
H1364  H     0.09971   0.79549   0.70347   0.00000  Uiso   1.00
N1365  N     0.16665   0.83332   0.95240   0.00000  Uiso   1.00
N1366  N     0.16668   0.83334   0.71427   0.00000  Uiso   1.00
O1367  O     0.16666   0.77225   0.87154   0.00000  Uiso   1.00
O1368  O     0.16667   0.89442   0.79513   0.00000  Uiso   1.00
O1369  O     0.16666   0.77226   0.79510   0.00000  Uiso   1.00
O1370  O     0.16667   0.89441   0.87157   0.00000  Uiso   1.00
O1371  O     0.09058   0.83333   0.86261   0.00000  Uiso   1.00
O1372  O     0.24275   0.83334   0.80405   0.00000  Uiso   1.00
O1373  O     0.09058   0.83334   0.78617   0.00000  Uiso   1.00
O1374  O     0.24275   0.83333   0.88050   0.00000  Uiso   1.00
Zn1375 Zn    0.16667   0.83333   0.88437   0.00000  Uiso   1.00
Zn1376 Zn    0.16667   0.83334   0.78229   0.00000  Uiso   1.00
C1377  C     0.32924   0.78327   0.79427   0.00000  Uiso   1.00
H1378  H     0.02924   0.76625   0.78236   0.00000  Uiso   1.00
H1379  H     0.31038   0.76219   0.81719   0.00000  Uiso   1.00
H1380  H     0.30171   0.79028   0.76397   0.00000  Uiso   1.00
C1381  C     0.00409   0.88340   0.87240   0.00000  Uiso   1.00
H1382  H     0.30410   0.90042   0.88431   0.00000  Uiso   1.00
H1383  H     0.03162   0.87639   0.90269   0.00000  Uiso   1.00
H1384  H     0.02295   0.90448   0.84947   0.00000  Uiso   1.00
C1385  C     0.21050   0.70648   0.75733   0.00000  Uiso   1.00
H1386  H     0.24149   0.72894   0.76981   0.00000  Uiso   1.00
H1387  H     0.22868   0.68330   0.73633   0.00000  Uiso   1.00
H1388  H     0.17951   0.72217   0.73480   0.00000  Uiso   1.00
C1389  C     0.12283   0.96019   0.90934   0.00000  Uiso   1.00
H1390  H     0.09184   0.93772   0.89686   0.00000  Uiso   1.00
H1391  H     0.15382   0.94449   0.93187   0.00000  Uiso   1.00
H1392  H     0.10465   0.98337   0.93033   0.00000  Uiso   1.00
C1393  C     0.24844   0.87765   0.72044   0.00000  Uiso   1.00
H1394  H     0.26782   0.89967   0.69883   0.00000  Uiso   1.00
H1395  H     0.23452   0.89617   0.74776   0.00000  Uiso   1.00
H1396  H     0.27857   0.85553   0.73436   0.00000  Uiso   1.00
C1397  C     0.08489   0.78902   0.94622   0.00000  Uiso   1.00
H1398  H     0.06551   0.76700   0.96783   0.00000  Uiso   1.00
H1399  H     0.05476   0.81115   0.93231   0.00000  Uiso   1.00
H1400  H     0.09880   0.77051   0.91890   0.00000  Uiso   1.00
C1401  C     0.50115   0.75340   0.83310   0.00000  Uiso   1.00
C1402  C     0.49884   0.91327   0.83356   0.00000  Uiso   1.00
C1403  C     0.40092   0.83190   0.82237   0.00000  Uiso   1.00
C1404  C     0.59908   0.83476   0.84429   0.00000  Uiso   1.00
C1405  C     0.34750   0.82270   0.81954   0.00000  Uiso   1.00
C1406  C     0.65250   0.84397   0.84712   0.00000  Uiso   1.00
C1407  C     0.52070   0.68675   0.79681   0.00000  Uiso   1.00
C1408  C     0.47929   0.97992   0.86985   0.00000  Uiso   1.00
C1409  C     0.51896   0.97754   0.79858   0.00000  Uiso   1.00
C1410  C     0.48104   0.68913   0.86809   0.00000  Uiso   1.00
C1411  C     0.49860   0.95748   0.83437   0.00000  Uiso   1.00
C1412  C     0.50139   0.70918   0.83229   0.00000  Uiso   1.00
C1413  C     0.53776   0.85469   0.69359   0.00000  Uiso   1.00
C1414  C     0.46224   0.81197   0.97308   0.00000  Uiso   1.00
C1415  C     0.53723   0.85454   0.97911   0.00000  Uiso   1.00
C1416  C     0.46277   0.81213   0.68756   0.00000  Uiso   1.00
H1417  H     0.53407   0.95990   0.77188   0.00000  Uiso   1.00
H1418  H     0.46593   0.70677   0.89479   0.00000  Uiso   1.00
H1419  H     0.56695   0.87117   0.96320   0.00000  Uiso   1.00
H1420  H     0.43305   0.79549   0.70347   0.00000  Uiso   1.00
N1421  N     0.49999   0.83332   0.95240   0.00000  Uiso   1.00
N1422  N     0.50001   0.83334   0.71427   0.00000  Uiso   1.00
O1423  O     0.50000   0.77225   0.87154   0.00000  Uiso   1.00
O1424  O     0.50000   0.89442   0.79513   0.00000  Uiso   1.00
O1425  O     0.50000   0.77226   0.79510   0.00000  Uiso   1.00
O1426  O     0.50000   0.89441   0.87157   0.00000  Uiso   1.00
O1427  O     0.42392   0.83333   0.86261   0.00000  Uiso   1.00
O1428  O     0.57608   0.83334   0.80405   0.00000  Uiso   1.00
O1429  O     0.42392   0.83334   0.78617   0.00000  Uiso   1.00
O1430  O     0.57608   0.83333   0.88050   0.00000  Uiso   1.00
Zn1431 Zn    0.50000   0.83333   0.88437   0.00000  Uiso   1.00
Zn1432 Zn    0.50000   0.83334   0.78229   0.00000  Uiso   1.00
C1433  C     0.66257   0.78327   0.79427   0.00000  Uiso   1.00
H1434  H     0.36257   0.76625   0.78236   0.00000  Uiso   1.00
H1435  H     0.64372   0.76219   0.81719   0.00000  Uiso   1.00
H1436  H     0.63505   0.79028   0.76397   0.00000  Uiso   1.00
C1437  C     0.33743   0.88340   0.87240   0.00000  Uiso   1.00
H1438  H     0.63743   0.90042   0.88431   0.00000  Uiso   1.00
H1439  H     0.36495   0.87639   0.90269   0.00000  Uiso   1.00
H1440  H     0.35628   0.90448   0.84947   0.00000  Uiso   1.00
C1441  C     0.54384   0.70648   0.75733   0.00000  Uiso   1.00
H1442  H     0.57482   0.72894   0.76981   0.00000  Uiso   1.00
H1443  H     0.56201   0.68330   0.73633   0.00000  Uiso   1.00
H1444  H     0.51284   0.72217   0.73480   0.00000  Uiso   1.00
C1445  C     0.45616   0.96019   0.90934   0.00000  Uiso   1.00
H1446  H     0.42518   0.93772   0.89686   0.00000  Uiso   1.00
H1447  H     0.48716   0.94449   0.93187   0.00000  Uiso   1.00
H1448  H     0.43798   0.98337   0.93033   0.00000  Uiso   1.00
C1449  C     0.58177   0.87765   0.72044   0.00000  Uiso   1.00
H1450  H     0.60115   0.89967   0.69883   0.00000  Uiso   1.00
H1451  H     0.56785   0.89617   0.74776   0.00000  Uiso   1.00
H1452  H     0.61190   0.85553   0.73436   0.00000  Uiso   1.00
C1453  C     0.41822   0.78902   0.94622   0.00000  Uiso   1.00
H1454  H     0.39884   0.76700   0.96783   0.00000  Uiso   1.00
H1455  H     0.38810   0.81115   0.93231   0.00000  Uiso   1.00
H1456  H     0.43213   0.77051   0.91890   0.00000  Uiso   1.00
C1457  C     0.83449   0.75340   0.83310   0.00000  Uiso   1.00
C1458  C     0.83218   0.91327   0.83356   0.00000  Uiso   1.00
C1459  C     0.73426   0.83190   0.82237   0.00000  Uiso   1.00
C1460  C     0.93241   0.83476   0.84429   0.00000  Uiso   1.00
C1461  C     0.68083   0.82270   0.81954   0.00000  Uiso   1.00
C1462  C     0.98584   0.84397   0.84712   0.00000  Uiso   1.00
C1463  C     0.85404   0.68675   0.79681   0.00000  Uiso   1.00
C1464  C     0.81263   0.97992   0.86985   0.00000  Uiso   1.00
C1465  C     0.85229   0.97754   0.79858   0.00000  Uiso   1.00
C1466  C     0.81437   0.68913   0.86809   0.00000  Uiso   1.00
C1467  C     0.83194   0.95748   0.83437   0.00000  Uiso   1.00
C1468  C     0.83473   0.70918   0.83229   0.00000  Uiso   1.00
C1469  C     0.87109   0.85469   0.69359   0.00000  Uiso   1.00
C1470  C     0.79558   0.81197   0.97308   0.00000  Uiso   1.00
C1471  C     0.87057   0.85454   0.97911   0.00000  Uiso   1.00
C1472  C     0.79610   0.81213   0.68756   0.00000  Uiso   1.00
H1473  H     0.86740   0.95990   0.77188   0.00000  Uiso   1.00
H1474  H     0.79926   0.70677   0.89479   0.00000  Uiso   1.00
H1475  H     0.90029   0.87117   0.96320   0.00000  Uiso   1.00
H1476  H     0.76638   0.79549   0.70347   0.00000  Uiso   1.00
N1477  N     0.83332   0.83332   0.95240   0.00000  Uiso   1.00
N1478  N     0.83335   0.83334   0.71427   0.00000  Uiso   1.00
O1479  O     0.83333   0.77225   0.87154   0.00000  Uiso   1.00
O1480  O     0.83334   0.89442   0.79513   0.00000  Uiso   1.00
O1481  O     0.83333   0.77226   0.79510   0.00000  Uiso   1.00
O1482  O     0.83334   0.89441   0.87157   0.00000  Uiso   1.00
O1483  O     0.75725   0.83333   0.86261   0.00000  Uiso   1.00
O1484  O     0.90942   0.83334   0.80405   0.00000  Uiso   1.00
O1485  O     0.75725   0.83334   0.78617   0.00000  Uiso   1.00
O1486  O     0.90942   0.83333   0.88050   0.00000  Uiso   1.00
Zn1487 Zn    0.83333   0.83333   0.88437   0.00000  Uiso   1.00
Zn1488 Zn    0.83333   0.83334   0.78229   0.00000  Uiso   1.00
C1489  C     0.99591   0.78327   0.79427   0.00000  Uiso   1.00
H1490  H     0.69590   0.76625   0.78236   0.00000  Uiso   1.00
H1491  H     0.97705   0.76219   0.81719   0.00000  Uiso   1.00
H1492  H     0.96838   0.79028   0.76397   0.00000  Uiso   1.00
C1493  C     0.67076   0.88340   0.87240   0.00000  Uiso   1.00
H1494  H     0.97076   0.90042   0.88431   0.00000  Uiso   1.00
H1495  H     0.69828   0.87639   0.90269   0.00000  Uiso   1.00
H1496  H     0.68962   0.90448   0.84947   0.00000  Uiso   1.00
C1497  C     0.87717   0.70648   0.75733   0.00000  Uiso   1.00
H1498  H     0.90816   0.72894   0.76981   0.00000  Uiso   1.00
H1499  H     0.89534   0.68330   0.73633   0.00000  Uiso   1.00
H1500  H     0.84617   0.72217   0.73480   0.00000  Uiso   1.00
C1501  C     0.78949   0.96019   0.90934   0.00000  Uiso   1.00
H1502  H     0.75851   0.93772   0.89686   0.00000  Uiso   1.00
H1503  H     0.82049   0.94449   0.93187   0.00000  Uiso   1.00
H1504  H     0.77132   0.98337   0.93033   0.00000  Uiso   1.00
C1505  C     0.91511   0.87765   0.72044   0.00000  Uiso   1.00
H1506  H     0.93448   0.89967   0.69883   0.00000  Uiso   1.00
H1507  H     0.90119   0.89617   0.74776   0.00000  Uiso   1.00
H1508  H     0.94523   0.85553   0.73436   0.00000  Uiso   1.00
C1509  C     0.75155   0.78902   0.94622   0.00000  Uiso   1.00
H1510  H     0.73218   0.76700   0.96783   0.00000  Uiso   1.00
H1511  H     0.72143   0.81115   0.93231   0.00000  Uiso   1.00
H1512  H     0.76547   0.77051   0.91890   0.00000  Uiso   1.00
loop_
_geom_bond_atom_site_label_1
_geom_bond_atom_site_label_2
_geom_bond_distance
_geom_bond_site_symmetry_2
_ccdc_geom_bond_type
C1     O25     1.282   .     A
C1     C12     1.428   .     S
C1     O23     1.296   .     A
C2     O26     1.282   .     A
C2     C11     1.428   .     S
C2     O24     1.296   .     A
C3     O27     1.275   .     A
C3     O29     1.284   .     A
C3     C5      1.398   .     S
C4     C6      1.398   .     S
C4     O28     1.275   .     A
C4     O30     1.284   .     A
C5     C118    1.345   1_455 S
C5     C145    1.521   1_455 S
C6     C61     1.345   .     S
C6     C93     1.521   .     S
C7     C12     1.414   .     A
C7     C41     1.513   .     S
C7     C345    1.375   1_545 S
C8     C11     1.414   .     A
C8     C45     1.513   .     S
C8     C178    1.375   .     S
C9     C11     1.395   .     A
C9     H17     1.083   .     S
C9     C175    1.375   .     S
C10    H18     1.083   .     S
C10    C12     1.395   .     A
C10    C344    1.375   1_545 S
C13    C49     1.502   .     S
C13    N22     1.386   .     A
C13    C1023   1.419   1_554 S
C14    N21     1.386   .     A
C14    C53     1.502   .     S
C14    C520    1.419   .     S
C15    N21     1.355   .     A
C15    H19     1.083   .     S
C15    C517    1.419   .     S
C16    H20     1.083   .     S
C16    N22     1.355   .     A
C16    C1022   1.419   1_554 S
N21    Zn31    2.021   .     S
N22    Zn32    2.021   .     S
O23    Zn31    2.007   .     S
O24    Zn32    2.007   .     S
O25    Zn32    2.010   .     S
O26    Zn31    2.010   .     S
O27    Zn31    1.994   .     S
O28    Zn32    1.994   .     S
O29    Zn32    1.975   .     S
O30    Zn31    1.975   .     S
C33    H36     1.108   .     S
C33    H35     1.110   .     S
C33    C61     1.521   .     S
C33    H90     1.112   .     S
H34    C145    1.112   1_455 S
C37    H40     1.110   .     S
C37    H39     1.108   .     S
C37    C118    1.521   1_455 S
C37    H150    1.112   1_455 S
H38    C93     1.112   .     S
C41    H43     1.111   .     S
C41    H42     1.106   .     S
C41    H44     1.110   .     S
C45    H48     1.111   .     S
C45    H47     1.110   .     S
C45    H46     1.106   .     S
C49    H52     1.106   .     S
C49    H50     1.111   .     S
C49    H51     1.099   .     S
C53    H54     1.111   .     S
C53    H55     1.106   .     S
C53    H56     1.099   .     S
C57    O81     1.282   .     A
C57    C68     1.428   .     S
C57    O79     1.296   .     A
C58    O82     1.282   .     A
C58    C67     1.428   .     S
C58    O80     1.296   .     A
C59    O83     1.275   .     A
C59    O85     1.284   .     A
C59    C61     1.398   .     S
C60    C62     1.398   .     S
C60    O84     1.275   .     A
C60    O86     1.284   .     A
C62    C117    1.345   .     S
C62    C149    1.521   .     S
C63    C68     1.414   .     A
C63    C97     1.513   .     S
C63    C401    1.375   1_545 S
C64    C67     1.414   .     A
C64    C101    1.513   .     S
C64    C234    1.375   .     S
C65    C67     1.395   .     A
C65    H73     1.083   .     S
C65    C231    1.375   .     S
C66    H74     1.083   .     S
C66    C68     1.395   .     A
C66    C400    1.375   1_545 S
C69    C105    1.502   .     S
C69    N78     1.386   .     A
C69    C1079   1.419   1_554 S
C70    N77     1.386   .     A
C70    C109    1.502   .     S
C70    C576    1.419   .     S
C71    N77     1.355   .     A
C71    H75     1.083   .     S
C71    C573    1.419   .     S
C72    H76     1.083   .     S
C72    N78     1.355   .     A
C72    C1078   1.419   1_554 S
N77    Zn87    2.021   .     S
N78    Zn88    2.021   .     S
O79    Zn87    2.007   .     S
O80    Zn88    2.007   .     S
O81    Zn88    2.010   .     S
O82    Zn87    2.010   .     S
O83    Zn87    1.994   .     S
O84    Zn88    1.994   .     S
O85    Zn88    1.975   .     S
O86    Zn87    1.975   .     S
C89    H92     1.108   .     S
C89    H91     1.110   .     S
C89    C117    1.521   .     S
C89    H146    1.112   .     S
C93    H96     1.110   .     S
C93    H95     1.108   .     S
H94    C149    1.112   .     S
C97    H99     1.111   .     S
C97    H98     1.106   .     S
C97    H100    1.110   .     S
C101   H104    1.111   .     S
C101   H103    1.110   .     S
C101   H102    1.106   .     S
C105   H108    1.106   .     S
C105   H106    1.111   .     S
C105   H107    1.099   .     S
C109   H110    1.111   .     S
C109   H111    1.106   .     S
C109   H112    1.099   .     S
C113   O137    1.282   .     A
C113   C124    1.428   .     S
C113   O135    1.296   .     A
C114   O138    1.282   .     A
C114   C123    1.428   .     S
C114   O136    1.296   .     A
C115   O139    1.275   .     A
C115   O141    1.284   .     A
C115   C117    1.398   .     S
C116   C118    1.398   .     S
C116   O140    1.275   .     A
C116   O142    1.284   .     A
C118   C5      1.345   1_655 S
C118   C37     1.521   1_655 S
C119   C124    1.414   .     A
C119   C153    1.513   .     S
C119   C457    1.375   1_545 S
C120   C123    1.414   .     A
C120   C157    1.513   .     S
C120   C290    1.375   .     S
C121   C123    1.395   .     A
C121   H129    1.083   .     S
C121   C287    1.375   .     S
C122   H130    1.083   .     S
C122   C124    1.395   .     A
C122   C456    1.375   1_545 S
C125   C161    1.502   .     S
C125   N134    1.386   .     A
C125   C1135   1.419   1_554 S
C126   N133    1.386   .     A
C126   C165    1.502   .     S
C126   C632    1.419   .     S
C127   N133    1.355   .     A
C127   H131    1.083   .     S
C127   C629    1.419   .     S
C128   H132    1.083   .     S
C128   N134    1.355   .     A
C128   C1134   1.419   1_554 S
N133   Zn143   2.021   .     S
N134   Zn144   2.021   .     S
O135   Zn143   2.007   .     S
O136   Zn144   2.007   .     S
O137   Zn144   2.010   .     S
O138   Zn143   2.010   .     S
O139   Zn143   1.994   .     S
O140   Zn144   1.994   .     S
O141   Zn144   1.975   .     S
O142   Zn143   1.975   .     S
C145   H148    1.108   .     S
C145   H147    1.110   .     S
C145   C5      1.521   1_655 S
C145   H34     1.112   1_655 S
C149   H152    1.110   .     S
C149   H151    1.108   .     S
H150   C37     1.112   1_655 S
C153   H155    1.111   .     S
C153   H154    1.106   .     S
C153   H156    1.110   .     S
C157   H160    1.111   .     S
C157   H159    1.110   .     S
C157   H158    1.106   .     S
C161   H164    1.106   .     S
C161   H162    1.111   .     S
C161   H163    1.099   .     S
C165   H166    1.111   .     S
C165   H167    1.106   .     S
C165   H168    1.099   .     S
C169   O193    1.282   .     A
C169   C180    1.428   .     S
C169   O191    1.296   .     A
C170   O194    1.282   .     A
C170   C179    1.428   .     S
C170   O192    1.296   .     A
C171   O195    1.275   .     A
C171   O197    1.284   .     A
C171   C173    1.398   .     S
C172   C174    1.398   .     S
C172   O196    1.275   .     A
C172   O198    1.284   .     A
C173   C286    1.345   1_455 S
C173   C313    1.521   1_455 S
C174   C229    1.345   .     S
C174   C261    1.521   .     S
C175   C180    1.414   .     A
C175   C209    1.513   .     S
C176   C179    1.414   .     A
C176   C213    1.513   .     S
C176   C346    1.375   .     S
C177   C179    1.395   .     A
C177   H185    1.083   .     S
C177   C343    1.375   .     S
C178   H186    1.083   .     S
C178   C180    1.395   .     A
C181   C217    1.502   .     S
C181   N190    1.386   .     A
C181   C1191   1.419   1_554 S
C182   N189    1.386   .     A
C182   C221    1.502   .     S
C182   C688    1.419   .     S
C183   N189    1.355   .     A
C183   H187    1.083   .     S
C183   C685    1.419   .     S
C184   H188    1.083   .     S
C184   N190    1.355   .     A
C184   C1190   1.419   1_554 S
N189   Zn199   2.021   .     S
N190   Zn200   2.021   .     S
O191   Zn199   2.007   .     S
O192   Zn200   2.007   .     S
O193   Zn200   2.010   .     S
O194   Zn199   2.010   .     S
O195   Zn199   1.994   .     S
O196   Zn200   1.994   .     S
O197   Zn200   1.975   .     S
O198   Zn199   1.975   .     S
C201   H204    1.108   .     S
C201   H203    1.110   .     S
C201   C229    1.521   .     S
C201   H258    1.112   .     S
H202   C313    1.112   1_455 S
C205   H208    1.110   .     S
C205   H207    1.108   .     S
C205   C286    1.521   1_455 S
C205   H318    1.112   1_455 S
H206   C261    1.112   .     S
C209   H211    1.111   .     S
C209   H210    1.106   .     S
C209   H212    1.110   .     S
C213   H216    1.111   .     S
C213   H215    1.110   .     S
C213   H214    1.106   .     S
C217   H220    1.106   .     S
C217   H218    1.111   .     S
C217   H219    1.099   .     S
C221   H222    1.111   .     S
C221   H223    1.106   .     S
C221   H224    1.099   .     S
C225   O249    1.282   .     A
C225   C236    1.428   .     S
C225   O247    1.296   .     A
C226   O250    1.282   .     A
C226   C235    1.428   .     S
C226   O248    1.296   .     A
C227   O251    1.275   .     A
C227   O253    1.284   .     A
C227   C229    1.398   .     S
C228   C230    1.398   .     S
C228   O252    1.275   .     A
C228   O254    1.284   .     A
C230   C285    1.345   .     S
C230   C317    1.521   .     S
C231   C236    1.414   .     A
C231   C265    1.513   .     S
C232   C235    1.414   .     A
C232   C269    1.513   .     S
C232   C402    1.375   .     S
C233   C235    1.395   .     A
C233   H241    1.083   .     S
C233   C399    1.375   .     S
C234   H242    1.083   .     S
C234   C236    1.395   .     A
C237   C273    1.502   .     S
C237   N246    1.386   .     A
C237   C1247   1.419   1_554 S
C238   N245    1.386   .     A
C238   C277    1.502   .     S
C238   C744    1.419   .     S
C239   N245    1.355   .     A
C239   H243    1.083   .     S
C239   C741    1.419   .     S
C240   H244    1.083   .     S
C240   N246    1.355   .     A
C240   C1246   1.419   1_554 S
N245   Zn255   2.021   .     S
N246   Zn256   2.021   .     S
O247   Zn255   2.007   .     S
O248   Zn256   2.007   .     S
O249   Zn256   2.010   .     S
O250   Zn255   2.010   .     S
O251   Zn255   1.994   .     S
O252   Zn256   1.994   .     S
O253   Zn256   1.975   .     S
O254   Zn255   1.975   .     S
C257   H260    1.108   .     S
C257   H259    1.110   .     S
C257   C285    1.521   .     S
C257   H314    1.112   .     S
C261   H264    1.110   .     S
C261   H263    1.108   .     S
H262   C317    1.112   .     S
C265   H267    1.111   .     S
C265   H266    1.106   .     S
C265   H268    1.110   .     S
C269   H272    1.111   .     S
C269   H271    1.110   .     S
C269   H270    1.106   .     S
C273   H276    1.106   .     S
C273   H274    1.111   .     S
C273   H275    1.099   .     S
C277   H278    1.111   .     S
C277   H279    1.106   .     S
C277   H280    1.099   .     S
C281   O305    1.282   .     A
C281   C292    1.428   .     S
C281   O303    1.296   .     A
C282   O306    1.282   .     A
C282   C291    1.428   .     S
C282   O304    1.296   .     A
C283   O307    1.275   .     A
C283   O309    1.284   .     A
C283   C285    1.398   .     S
C284   C286    1.398   .     S
C284   O308    1.275   .     A
C284   O310    1.284   .     A
C286   C173    1.345   1_655 S
C286   C205    1.521   1_655 S
C287   C292    1.414   .     A
C287   C321    1.513   .     S
C288   C291    1.414   .     A
C288   C325    1.513   .     S
C288   C458    1.375   .     S
C289   C291    1.395   .     A
C289   H297    1.083   .     S
C289   C455    1.375   .     S
C290   H298    1.083   .     S
C290   C292    1.395   .     A
C293   C329    1.502   .     S
C293   N302    1.386   .     A
C293   C1303   1.419   1_554 S
C294   N301    1.386   .     A
C294   C333    1.502   .     S
C294   C800    1.419   .     S
C295   N301    1.355   .     A
C295   H299    1.083   .     S
C295   C797    1.419   .     S
C296   H300    1.083   .     S
C296   N302    1.355   .     A
C296   C1302   1.419   1_554 S
N301   Zn311   2.021   .     S
N302   Zn312   2.021   .     S
O303   Zn311   2.007   .     S
O304   Zn312   2.007   .     S
O305   Zn312   2.010   .     S
O306   Zn311   2.010   .     S
O307   Zn311   1.994   .     S
O308   Zn312   1.994   .     S
O309   Zn312   1.975   .     S
O310   Zn311   1.975   .     S
C313   H316    1.108   .     S
C313   H315    1.110   .     S
C313   C173    1.521   1_655 S
C313   H202    1.112   1_655 S
C317   H320    1.110   .     S
C317   H319    1.108   .     S
H318   C205    1.112   1_655 S
C321   H323    1.111   .     S
C321   H322    1.106   .     S
C321   H324    1.110   .     S
C325   H328    1.111   .     S
C325   H327    1.110   .     S
C325   H326    1.106   .     S
C329   H332    1.106   .     S
C329   H330    1.111   .     S
C329   H331    1.099   .     S
C333   H334    1.111   .     S
C333   H335    1.106   .     S
C333   H336    1.099   .     S
C337   O361    1.282   .     A
C337   C348    1.428   .     S
C337   O359    1.296   .     A
C338   O362    1.282   .     A
C338   C347    1.428   .     S
C338   O360    1.296   .     A
C339   O363    1.275   .     A
C339   O365    1.284   .     A
C339   C341    1.398   .     S
C340   C342    1.398   .     S
C340   O364    1.275   .     A
C340   O366    1.284   .     A
C341   C454    1.345   1_455 S
C341   C481    1.521   1_455 S
C342   C397    1.345   .     S
C342   C429    1.521   .     S
C343   C348    1.414   .     A
C343   C377    1.513   .     S
C344   C347    1.414   .     A
C344   C381    1.513   .     S
C344   C10     1.375   1_565 S
C345   C347    1.395   .     A
C345   H353    1.083   .     S
C345   C7      1.375   1_565 S
C346   H354    1.083   .     S
C346   C348    1.395   .     A
C349   C385    1.502   .     S
C349   N358    1.386   .     A
C349   C1359   1.419   1_554 S
C350   N357    1.386   .     A
C350   C389    1.502   .     S
C350   C856    1.419   .     S
C351   N357    1.355   .     A
C351   H355    1.083   .     S
C351   C853    1.419   .     S
C352   H356    1.083   .     S
C352   N358    1.355   .     A
C352   C1358   1.419   1_554 S
N357   Zn367   2.021   .     S
N358   Zn368   2.021   .     S
O359   Zn367   2.007   .     S
O360   Zn368   2.007   .     S
O361   Zn368   2.010   .     S
O362   Zn367   2.010   .     S
O363   Zn367   1.994   .     S
O364   Zn368   1.994   .     S
O365   Zn368   1.975   .     S
O366   Zn367   1.975   .     S
C369   H372    1.108   .     S
C369   H371    1.110   .     S
C369   C397    1.521   .     S
C369   H426    1.112   .     S
H370   C481    1.112   1_455 S
C373   H376    1.110   .     S
C373   H375    1.108   .     S
C373   C454    1.521   1_455 S
C373   H486    1.112   1_455 S
H374   C429    1.112   .     S
C377   H379    1.111   .     S
C377   H378    1.106   .     S
C377   H380    1.110   .     S
C381   H384    1.111   .     S
C381   H383    1.110   .     S
C381   H382    1.106   .     S
C385   H388    1.106   .     S
C385   H386    1.111   .     S
C385   H387    1.099   .     S
C389   H390    1.111   .     S
C389   H391    1.106   .     S
C389   H392    1.099   .     S
C393   O417    1.282   .     A
C393   C404    1.428   .     S
C393   O415    1.296   .     A
C394   O418    1.282   .     A
C394   C403    1.428   .     S
C394   O416    1.296   .     A
C395   O419    1.275   .     A
C395   O421    1.284   .     A
C395   C397    1.398   .     S
C396   C398    1.398   .     S
C396   O420    1.275   .     A
C396   O422    1.284   .     A
C398   C453    1.345   .     S
C398   C485    1.521   .     S
C399   C404    1.414   .     A
C399   C433    1.513   .     S
C400   C403    1.414   .     A
C400   C437    1.513   .     S
C400   C66     1.375   1_565 S
C401   C403    1.395   .     A
C401   H409    1.083   .     S
C401   C63     1.375   1_565 S
C402   H410    1.083   .     S
C402   C404    1.395   .     A
C405   C441    1.502   .     S
C405   N414    1.386   .     A
C405   C1415   1.419   1_554 S
C406   N413    1.386   .     A
C406   C445    1.502   .     S
C406   C912    1.419   .     S
C407   N413    1.355   .     A
C407   H411    1.083   .     S
C407   C909    1.419   .     S
C408   H412    1.083   .     S
C408   N414    1.355   .     A
C408   C1414   1.419   1_554 S
N413   Zn423   2.021   .     S
N414   Zn424   2.021   .     S
O415   Zn423   2.007   .     S
O416   Zn424   2.007   .     S
O417   Zn424   2.010   .     S
O418   Zn423   2.010   .     S
O419   Zn423   1.994   .     S
O420   Zn424   1.994   .     S
O421   Zn424   1.975   .     S
O422   Zn423   1.975   .     S
C425   H428    1.108   .     S
C425   H427    1.110   .     S
C425   C453    1.521   .     S
C425   H482    1.112   .     S
C429   H432    1.110   .     S
C429   H431    1.108   .     S
H430   C485    1.112   .     S
C433   H435    1.111   .     S
C433   H434    1.106   .     S
C433   H436    1.110   .     S
C437   H440    1.111   .     S
C437   H439    1.110   .     S
C437   H438    1.106   .     S
C441   H444    1.106   .     S
C441   H442    1.111   .     S
C441   H443    1.099   .     S
C445   H446    1.111   .     S
C445   H447    1.106   .     S
C445   H448    1.099   .     S
C449   O473    1.282   .     A
C449   C460    1.428   .     S
C449   O471    1.296   .     A
C450   O474    1.282   .     A
C450   C459    1.428   .     S
C450   O472    1.296   .     A
C451   O475    1.275   .     A
C451   O477    1.284   .     A
C451   C453    1.398   .     S
C452   C454    1.398   .     S
C452   O476    1.275   .     A
C452   O478    1.284   .     A
C454   C341    1.345   1_655 S
C454   C373    1.521   1_655 S
C455   C460    1.414   .     A
C455   C489    1.513   .     S
C456   C459    1.414   .     A
C456   C493    1.513   .     S
C456   C122    1.375   1_565 S
C457   C459    1.395   .     A
C457   H465    1.083   .     S
C457   C119    1.375   1_565 S
C458   H466    1.083   .     S
C458   C460    1.395   .     A
C461   C497    1.502   .     S
C461   N470    1.386   .     A
C461   C1471   1.419   1_554 S
C462   N469    1.386   .     A
C462   C501    1.502   .     S
C462   C968    1.419   .     S
C463   N469    1.355   .     A
C463   H467    1.083   .     S
C463   C965    1.419   .     S
C464   H468    1.083   .     S
C464   N470    1.355   .     A
C464   C1470   1.419   1_554 S
N469   Zn479   2.021   .     S
N470   Zn480   2.021   .     S
O471   Zn479   2.007   .     S
O472   Zn480   2.007   .     S
O473   Zn480   2.010   .     S
O474   Zn479   2.010   .     S
O475   Zn479   1.994   .     S
O476   Zn480   1.994   .     S
O477   Zn480   1.975   .     S
O478   Zn479   1.975   .     S
C481   H484    1.108   .     S
C481   H483    1.110   .     S
C481   C341    1.521   1_655 S
C481   H370    1.112   1_655 S
C485   H488    1.110   .     S
C485   H487    1.108   .     S
H486   C373    1.112   1_655 S
C489   H491    1.111   .     S
C489   H490    1.106   .     S
C489   H492    1.110   .     S
C493   H496    1.111   .     S
C493   H495    1.110   .     S
C493   H494    1.106   .     S
C497   H500    1.106   .     S
C497   H498    1.111   .     S
C497   H499    1.099   .     S
C501   H502    1.111   .     S
C501   H503    1.106   .     S
C501   H504    1.099   .     S
C505   O529    1.282   .     A
C505   C516    1.428   .     S
C505   O527    1.296   .     A
C506   O530    1.282   .     A
C506   C515    1.428   .     S
C506   O528    1.296   .     A
C507   O531    1.275   .     A
C507   O533    1.284   .     A
C507   C509    1.398   .     S
C508   C510    1.398   .     S
C508   O532    1.275   .     A
C508   O534    1.284   .     A
C509   C622    1.345   1_455 S
C509   C649    1.521   1_455 S
C510   C565    1.345   .     S
C510   C597    1.521   .     S
C511   C516    1.414   .     A
C511   C545    1.513   .     S
C511   C849    1.375   1_545 S
C512   C515    1.414   .     A
C512   C549    1.513   .     S
C512   C682    1.375   .     S
C513   C515    1.395   .     A
C513   H521    1.083   .     S
C513   C679    1.375   .     S
C514   H522    1.083   .     S
C514   C516    1.395   .     A
C514   C848    1.375   1_545 S
C517   C553    1.502   .     S
C517   N526    1.386   .     A
C518   N525    1.386   .     A
C518   C557    1.502   .     S
C518   C1024   1.419   .     S
C519   N525    1.355   .     A
C519   H523    1.083   .     S
C519   C1021   1.419   .     S
C520   H524    1.083   .     S
C520   N526    1.355   .     A
N525   Zn535   2.021   .     S
N526   Zn536   2.021   .     S
O527   Zn535   2.007   .     S
O528   Zn536   2.007   .     S
O529   Zn536   2.010   .     S
O530   Zn535   2.010   .     S
O531   Zn535   1.994   .     S
O532   Zn536   1.994   .     S
O533   Zn536   1.975   .     S
O534   Zn535   1.975   .     S
C537   H540    1.108   .     S
C537   H539    1.110   .     S
C537   C565    1.521   .     S
C537   H594    1.112   .     S
H538   C649    1.112   1_455 S
C541   H544    1.110   .     S
C541   H543    1.108   .     S
C541   C622    1.521   1_455 S
C541   H654    1.112   1_455 S
H542   C597    1.112   .     S
C545   H547    1.111   .     S
C545   H546    1.106   .     S
C545   H548    1.110   .     S
C549   H552    1.111   .     S
C549   H551    1.110   .     S
C549   H550    1.106   .     S
C553   H556    1.106   .     S
C553   H554    1.111   .     S
C553   H555    1.099   .     S
C557   H558    1.111   .     S
C557   H559    1.106   .     S
C557   H560    1.099   .     S
C561   O585    1.282   .     A
C561   C572    1.428   .     S
C561   O583    1.296   .     A
C562   O586    1.282   .     A
C562   C571    1.428   .     S
C562   O584    1.296   .     A
C563   O587    1.275   .     A
C563   O589    1.284   .     A
C563   C565    1.398   .     S
C564   C566    1.398   .     S
C564   O588    1.275   .     A
C564   O590    1.284   .     A
C566   C621    1.345   .     S
C566   C653    1.521   .     S
C567   C572    1.414   .     A
C567   C601    1.513   .     S
C567   C905    1.375   1_545 S
C568   C571    1.414   .     A
C568   C605    1.513   .     S
C568   C738    1.375   .     S
C569   C571    1.395   .     A
C569   H577    1.083   .     S
C569   C735    1.375   .     S
C570   H578    1.083   .     S
C570   C572    1.395   .     A
C570   C904    1.375   1_545 S
C573   C609    1.502   .     S
C573   N582    1.386   .     A
C574   N581    1.386   .     A
C574   C613    1.502   .     S
C574   C1080   1.419   .     S
C575   N581    1.355   .     A
C575   H579    1.083   .     S
C575   C1077   1.419   .     S
C576   H580    1.083   .     S
C576   N582    1.355   .     A
N581   Zn591   2.021   .     S
N582   Zn592   2.021   .     S
O583   Zn591   2.007   .     S
O584   Zn592   2.007   .     S
O585   Zn592   2.010   .     S
O586   Zn591   2.010   .     S
O587   Zn591   1.994   .     S
O588   Zn592   1.994   .     S
O589   Zn592   1.975   .     S
O590   Zn591   1.975   .     S
C593   H596    1.108   .     S
C593   H595    1.110   .     S
C593   C621    1.521   .     S
C593   H650    1.112   .     S
C597   H600    1.110   .     S
C597   H599    1.108   .     S
H598   C653    1.112   .     S
C601   H603    1.111   .     S
C601   H602    1.106   .     S
C601   H604    1.110   .     S
C605   H608    1.111   .     S
C605   H607    1.110   .     S
C605   H606    1.106   .     S
C609   H612    1.106   .     S
C609   H610    1.111   .     S
C609   H611    1.099   .     S
C613   H614    1.111   .     S
C613   H615    1.106   .     S
C613   H616    1.099   .     S
C617   O641    1.282   .     A
C617   C628    1.428   .     S
C617   O639    1.296   .     A
C618   O642    1.282   .     A
C618   C627    1.428   .     S
C618   O640    1.296   .     A
C619   O643    1.275   .     A
C619   O645    1.284   .     A
C619   C621    1.398   .     S
C620   C622    1.398   .     S
C620   O644    1.275   .     A
C620   O646    1.284   .     A
C622   C509    1.345   1_655 S
C622   C541    1.521   1_655 S
C623   C628    1.414   .     A
C623   C657    1.513   .     S
C623   C961    1.375   1_545 S
C624   C627    1.414   .     A
C624   C661    1.513   .     S
C624   C794    1.375   .     S
C625   C627    1.395   .     A
C625   H633    1.083   .     S
C625   C791    1.375   .     S
C626   H634    1.083   .     S
C626   C628    1.395   .     A
C626   C960    1.375   1_545 S
C629   C665    1.502   .     S
C629   N638    1.386   .     A
C630   N637    1.386   .     A
C630   C669    1.502   .     S
C630   C1136   1.419   .     S
C631   N637    1.355   .     A
C631   H635    1.083   .     S
C631   C1133   1.419   .     S
C632   H636    1.083   .     S
C632   N638    1.355   .     A
N637   Zn647   2.021   .     S
N638   Zn648   2.021   .     S
O639   Zn647   2.007   .     S
O640   Zn648   2.007   .     S
O641   Zn648   2.010   .     S
O642   Zn647   2.010   .     S
O643   Zn647   1.994   .     S
O644   Zn648   1.994   .     S
O645   Zn648   1.975   .     S
O646   Zn647   1.975   .     S
C649   H652    1.108   .     S
C649   H651    1.110   .     S
C649   C509    1.521   1_655 S
C649   H538    1.112   1_655 S
C653   H656    1.110   .     S
C653   H655    1.108   .     S
H654   C541    1.112   1_655 S
C657   H659    1.111   .     S
C657   H658    1.106   .     S
C657   H660    1.110   .     S
C661   H664    1.111   .     S
C661   H663    1.110   .     S
C661   H662    1.106   .     S
C665   H668    1.106   .     S
C665   H666    1.111   .     S
C665   H667    1.099   .     S
C669   H670    1.111   .     S
C669   H671    1.106   .     S
C669   H672    1.099   .     S
C673   O697    1.282   .     A
C673   C684    1.428   .     S
C673   O695    1.296   .     A
C674   O698    1.282   .     A
C674   C683    1.428   .     S
C674   O696    1.296   .     A
C675   O699    1.275   .     A
C675   O701    1.284   .     A
C675   C677    1.398   .     S
C676   C678    1.398   .     S
C676   O700    1.275   .     A
C676   O702    1.284   .     A
C677   C790    1.345   1_455 S
C677   C817    1.521   1_455 S
C678   C733    1.345   .     S
C678   C765    1.521   .     S
C679   C684    1.414   .     A
C679   C713    1.513   .     S
C680   C683    1.414   .     A
C680   C717    1.513   .     S
C680   C850    1.375   .     S
C681   C683    1.395   .     A
C681   H689    1.083   .     S
C681   C847    1.375   .     S
C682   H690    1.083   .     S
C682   C684    1.395   .     A
C685   C721    1.502   .     S
C685   N694    1.386   .     A
C686   N693    1.386   .     A
C686   C725    1.502   .     S
C686   C1192   1.419   .     S
C687   N693    1.355   .     A
C687   H691    1.083   .     S
C687   C1189   1.419   .     S
C688   H692    1.083   .     S
C688   N694    1.355   .     A
N693   Zn703   2.021   .     S
N694   Zn704   2.021   .     S
O695   Zn703   2.007   .     S
O696   Zn704   2.007   .     S
O697   Zn704   2.010   .     S
O698   Zn703   2.010   .     S
O699   Zn703   1.994   .     S
O700   Zn704   1.994   .     S
O701   Zn704   1.975   .     S
O702   Zn703   1.975   .     S
C705   H708    1.108   .     S
C705   H707    1.110   .     S
C705   C733    1.521   .     S
C705   H762    1.112   .     S
H706   C817    1.112   1_455 S
C709   H712    1.110   .     S
C709   H711    1.108   .     S
C709   C790    1.521   1_455 S
C709   H822    1.112   1_455 S
H710   C765    1.112   .     S
C713   H715    1.111   .     S
C713   H714    1.106   .     S
C713   H716    1.110   .     S
C717   H720    1.111   .     S
C717   H719    1.110   .     S
C717   H718    1.106   .     S
C721   H724    1.106   .     S
C721   H722    1.111   .     S
C721   H723    1.099   .     S
C725   H726    1.111   .     S
C725   H727    1.106   .     S
C725   H728    1.099   .     S
C729   O753    1.282   .     A
C729   C740    1.428   .     S
C729   O751    1.296   .     A
C730   O754    1.282   .     A
C730   C739    1.428   .     S
C730   O752    1.296   .     A
C731   O755    1.275   .     A
C731   O757    1.284   .     A
C731   C733    1.398   .     S
C732   C734    1.398   .     S
C732   O756    1.275   .     A
C732   O758    1.284   .     A
C734   C789    1.345   .     S
C734   C821    1.521   .     S
C735   C740    1.414   .     A
C735   C769    1.513   .     S
C736   C739    1.414   .     A
C736   C773    1.513   .     S
C736   C906    1.375   .     S
C737   C739    1.395   .     A
C737   H745    1.083   .     S
C737   C903    1.375   .     S
C738   H746    1.083   .     S
C738   C740    1.395   .     A
C741   C777    1.502   .     S
C741   N750    1.386   .     A
C742   N749    1.386   .     A
C742   C781    1.502   .     S
C742   C1248   1.419   .     S
C743   N749    1.355   .     A
C743   H747    1.083   .     S
C743   C1245   1.419   .     S
C744   H748    1.083   .     S
C744   N750    1.355   .     A
N749   Zn759   2.021   .     S
N750   Zn760   2.021   .     S
O751   Zn759   2.007   .     S
O752   Zn760   2.007   .     S
O753   Zn760   2.010   .     S
O754   Zn759   2.010   .     S
O755   Zn759   1.994   .     S
O756   Zn760   1.994   .     S
O757   Zn760   1.975   .     S
O758   Zn759   1.975   .     S
C761   H764    1.108   .     S
C761   H763    1.110   .     S
C761   C789    1.521   .     S
C761   H818    1.112   .     S
C765   H768    1.110   .     S
C765   H767    1.108   .     S
H766   C821    1.112   .     S
C769   H771    1.111   .     S
C769   H770    1.106   .     S
C769   H772    1.110   .     S
C773   H776    1.111   .     S
C773   H775    1.110   .     S
C773   H774    1.106   .     S
C777   H780    1.106   .     S
C777   H778    1.111   .     S
C777   H779    1.099   .     S
C781   H782    1.111   .     S
C781   H783    1.106   .     S
C781   H784    1.099   .     S
C785   O809    1.282   .     A
C785   C796    1.428   .     S
C785   O807    1.296   .     A
C786   O810    1.282   .     A
C786   C795    1.428   .     S
C786   O808    1.296   .     A
C787   O811    1.275   .     A
C787   O813    1.284   .     A
C787   C789    1.398   .     S
C788   C790    1.398   .     S
C788   O812    1.275   .     A
C788   O814    1.284   .     A
C790   C677    1.345   1_655 S
C790   C709    1.521   1_655 S
C791   C796    1.414   .     A
C791   C825    1.513   .     S
C792   C795    1.414   .     A
C792   C829    1.513   .     S
C792   C962    1.375   .     S
C793   C795    1.395   .     A
C793   H801    1.083   .     S
C793   C959    1.375   .     S
C794   H802    1.083   .     S
C794   C796    1.395   .     A
C797   C833    1.502   .     S
C797   N806    1.386   .     A
C798   N805    1.386   .     A
C798   C837    1.502   .     S
C798   C1304   1.419   .     S
C799   N805    1.355   .     A
C799   H803    1.083   .     S
C799   C1301   1.419   .     S
C800   H804    1.083   .     S
C800   N806    1.355   .     A
N805   Zn815   2.021   .     S
N806   Zn816   2.021   .     S
O807   Zn815   2.007   .     S
O808   Zn816   2.007   .     S
O809   Zn816   2.010   .     S
O810   Zn815   2.010   .     S
O811   Zn815   1.994   .     S
O812   Zn816   1.994   .     S
O813   Zn816   1.975   .     S
O814   Zn815   1.975   .     S
C817   H820    1.108   .     S
C817   H819    1.110   .     S
C817   C677    1.521   1_655 S
C817   H706    1.112   1_655 S
C821   H824    1.110   .     S
C821   H823    1.108   .     S
H822   C709    1.112   1_655 S
C825   H827    1.111   .     S
C825   H826    1.106   .     S
C825   H828    1.110   .     S
C829   H832    1.111   .     S
C829   H831    1.110   .     S
C829   H830    1.106   .     S
C833   H836    1.106   .     S
C833   H834    1.111   .     S
C833   H835    1.099   .     S
C837   H838    1.111   .     S
C837   H839    1.106   .     S
C837   H840    1.099   .     S
C841   O865    1.282   .     A
C841   C852    1.428   .     S
C841   O863    1.296   .     A
C842   O866    1.282   .     A
C842   C851    1.428   .     S
C842   O864    1.296   .     A
C843   O867    1.275   .     A
C843   O869    1.284   .     A
C843   C845    1.398   .     S
C844   C846    1.398   .     S
C844   O868    1.275   .     A
C844   O870    1.284   .     A
C845   C958    1.345   1_455 S
C845   C985    1.521   1_455 S
C846   C901    1.345   .     S
C846   C933    1.521   .     S
C847   C852    1.414   .     A
C847   C881    1.513   .     S
C848   C851    1.414   .     A
C848   C885    1.513   .     S
C848   C514    1.375   1_565 S
C849   C851    1.395   .     A
C849   H857    1.083   .     S
C849   C511    1.375   1_565 S
C850   H858    1.083   .     S
C850   C852    1.395   .     A
C853   C889    1.502   .     S
C853   N862    1.386   .     A
C854   N861    1.386   .     A
C854   C893    1.502   .     S
C854   C1360   1.419   .     S
C855   N861    1.355   .     A
C855   H859    1.083   .     S
C855   C1357   1.419   .     S
C856   H860    1.083   .     S
C856   N862    1.355   .     A
N861   Zn871   2.021   .     S
N862   Zn872   2.021   .     S
O863   Zn871   2.007   .     S
O864   Zn872   2.007   .     S
O865   Zn872   2.010   .     S
O866   Zn871   2.010   .     S
O867   Zn871   1.994   .     S
O868   Zn872   1.994   .     S
O869   Zn872   1.975   .     S
O870   Zn871   1.975   .     S
C873   H876    1.108   .     S
C873   H875    1.110   .     S
C873   C901    1.521   .     S
C873   H930    1.112   .     S
H874   C985    1.112   1_455 S
C877   H880    1.110   .     S
C877   H879    1.108   .     S
C877   C958    1.521   1_455 S
C877   H990    1.112   1_455 S
H878   C933    1.112   .     S
C881   H883    1.111   .     S
C881   H882    1.106   .     S
C881   H884    1.110   .     S
C885   H888    1.111   .     S
C885   H887    1.110   .     S
C885   H886    1.106   .     S
C889   H892    1.106   .     S
C889   H890    1.111   .     S
C889   H891    1.099   .     S
C893   H894    1.111   .     S
C893   H895    1.106   .     S
C893   H896    1.099   .     S
C897   O921    1.282   .     A
C897   C908    1.428   .     S
C897   O919    1.296   .     A
C898   O922    1.282   .     A
C898   C907    1.428   .     S
C898   O920    1.296   .     A
C899   O923    1.275   .     A
C899   O925    1.284   .     A
C899   C901    1.398   .     S
C900   C902    1.398   .     S
C900   O924    1.275   .     A
C900   O926    1.284   .     A
C902   C957    1.345   .     S
C902   C989    1.521   .     S
C903   C908    1.414   .     A
C903   C937    1.513   .     S
C904   C907    1.414   .     A
C904   C941    1.513   .     S
C904   C570    1.375   1_565 S
C905   C907    1.395   .     A
C905   H913    1.083   .     S
C905   C567    1.375   1_565 S
C906   H914    1.083   .     S
C906   C908    1.395   .     A
C909   C945    1.502   .     S
C909   N918    1.386   .     A
C910   N917    1.386   .     A
C910   C949    1.502   .     S
C910   C1416   1.419   .     S
C911   N917    1.355   .     A
C911   H915    1.083   .     S
C911   C1413   1.419   .     S
C912   H916    1.083   .     S
C912   N918    1.355   .     A
N917   Zn927   2.021   .     S
N918   Zn928   2.021   .     S
O919   Zn927   2.007   .     S
O920   Zn928   2.007   .     S
O921   Zn928   2.010   .     S
O922   Zn927   2.010   .     S
O923   Zn927   1.994   .     S
O924   Zn928   1.994   .     S
O925   Zn928   1.975   .     S
O926   Zn927   1.975   .     S
C929   H932    1.108   .     S
C929   H931    1.110   .     S
C929   C957    1.521   .     S
C929   H986    1.112   .     S
C933   H936    1.110   .     S
C933   H935    1.108   .     S
H934   C989    1.112   .     S
C937   H939    1.111   .     S
C937   H938    1.106   .     S
C937   H940    1.110   .     S
C941   H944    1.111   .     S
C941   H943    1.110   .     S
C941   H942    1.106   .     S
C945   H948    1.106   .     S
C945   H946    1.111   .     S
C945   H947    1.099   .     S
C949   H950    1.111   .     S
C949   H951    1.106   .     S
C949   H952    1.099   .     S
C953   O977    1.282   .     A
C953   C964    1.428   .     S
C953   O975    1.296   .     A
C954   O978    1.282   .     A
C954   C963    1.428   .     S
C954   O976    1.296   .     A
C955   O979    1.275   .     A
C955   O981    1.284   .     A
C955   C957    1.398   .     S
C956   C958    1.398   .     S
C956   O980    1.275   .     A
C956   O982    1.284   .     A
C958   C845    1.345   1_655 S
C958   C877    1.521   1_655 S
C959   C964    1.414   .     A
C959   C993    1.513   .     S
C960   C963    1.414   .     A
C960   C997    1.513   .     S
C960   C626    1.375   1_565 S
C961   C963    1.395   .     A
C961   H969    1.083   .     S
C961   C623    1.375   1_565 S
C962   H970    1.083   .     S
C962   C964    1.395   .     A
C965   C1001   1.502   .     S
C965   N974    1.386   .     A
C966   N973    1.386   .     A
C966   C1005   1.502   .     S
C966   C1472   1.419   .     S
C967   N973    1.355   .     A
C967   H971    1.083   .     S
C967   C1469   1.419   .     S
C968   H972    1.083   .     S
C968   N974    1.355   .     A
N973   Zn983   2.021   .     S
N974   Zn984   2.021   .     S
O975   Zn983   2.007   .     S
O976   Zn984   2.007   .     S
O977   Zn984   2.010   .     S
O978   Zn983   2.010   .     S
O979   Zn983   1.994   .     S
O980   Zn984   1.994   .     S
O981   Zn984   1.975   .     S
O982   Zn983   1.975   .     S
C985   H988    1.108   .     S
C985   H987    1.110   .     S
C985   C845    1.521   1_655 S
C985   H874    1.112   1_655 S
C989   H992    1.110   .     S
C989   H991    1.108   .     S
H990   C877    1.112   1_655 S
C993   H995    1.111   .     S
C993   H994    1.106   .     S
C993   H996    1.110   .     S
C997   H1000   1.111   .     S
C997   H999    1.110   .     S
C997   H998    1.106   .     S
C1001  H1004   1.106   .     S
C1001  H1002   1.111   .     S
C1001  H1003   1.099   .     S
C1005  H1006   1.111   .     S
C1005  H1007   1.106   .     S
C1005  H1008   1.099   .     S
C1009  O1033   1.282   .     A
C1009  C1020   1.428   .     S
C1009  O1031   1.296   .     A
C1010  O1034   1.282   .     A
C1010  C1019   1.428   .     S
C1010  O1032   1.296   .     A
C1011  O1035   1.275   .     A
C1011  O1037   1.284   .     A
C1011  C1013   1.398   .     S
C1012  C1014   1.398   .     S
C1012  O1036   1.275   .     A
C1012  O1038   1.284   .     A
C1013  C1126   1.345   1_455 S
C1013  C1153   1.521   1_455 S
C1014  C1069   1.345   .     S
C1014  C1101   1.521   .     S
C1015  C1020   1.414   .     A
C1015  C1049   1.513   .     S
C1015  C1353   1.375   1_545 S
C1016  C1019   1.414   .     A
C1016  C1053   1.513   .     S
C1016  C1186   1.375   .     S
C1017  C1019   1.395   .     A
C1017  H1025   1.083   .     S
C1017  C1183   1.375   .     S
C1018  H1026   1.083   .     S
C1018  C1020   1.395   .     A
C1018  C1352   1.375   1_545 S
C1021  C1057   1.502   .     S
C1021  N1030   1.386   .     A
C1022  N1029   1.386   .     A
C1022  C1061   1.502   .     S
C1022  C16     1.419   1_556 S
C1023  N1029   1.355   .     A
C1023  H1027   1.083   .     S
C1023  C13     1.419   1_556 S
C1024  H1028   1.083   .     S
C1024  N1030   1.355   .     A
N1029  Zn1039  2.021   .     S
N1030  Zn1040  2.021   .     S
O1031  Zn1039  2.007   .     S
O1032  Zn1040  2.007   .     S
O1033  Zn1040  2.010   .     S
O1034  Zn1039  2.010   .     S
O1035  Zn1039  1.994   .     S
O1036  Zn1040  1.994   .     S
O1037  Zn1040  1.975   .     S
O1038  Zn1039  1.975   .     S
C1041  H1044   1.108   .     S
C1041  H1043   1.110   .     S
C1041  C1069   1.521   .     S
C1041  H1098   1.112   .     S
H1042  C1153   1.112   1_455 S
C1045  H1048   1.110   .     S
C1045  H1047   1.108   .     S
C1045  C1126   1.521   1_455 S
C1045  H1158   1.112   1_455 S
H1046  C1101   1.112   .     S
C1049  H1051   1.111   .     S
C1049  H1050   1.106   .     S
C1049  H1052   1.110   .     S
C1053  H1056   1.111   .     S
C1053  H1055   1.110   .     S
C1053  H1054   1.106   .     S
C1057  H1060   1.106   .     S
C1057  H1058   1.111   .     S
C1057  H1059   1.099   .     S
C1061  H1062   1.111   .     S
C1061  H1063   1.106   .     S
C1061  H1064   1.099   .     S
C1065  O1089   1.282   .     A
C1065  C1076   1.428   .     S
C1065  O1087   1.296   .     A
C1066  O1090   1.282   .     A
C1066  C1075   1.428   .     S
C1066  O1088   1.296   .     A
C1067  O1091   1.275   .     A
C1067  O1093   1.284   .     A
C1067  C1069   1.398   .     S
C1068  C1070   1.398   .     S
C1068  O1092   1.275   .     A
C1068  O1094   1.284   .     A
C1070  C1125   1.345   .     S
C1070  C1157   1.521   .     S
C1071  C1076   1.414   .     A
C1071  C1105   1.513   .     S
C1071  C1409   1.375   1_545 S
C1072  C1075   1.414   .     A
C1072  C1109   1.513   .     S
C1072  C1242   1.375   .     S
C1073  C1075   1.395   .     A
C1073  H1081   1.083   .     S
C1073  C1239   1.375   .     S
C1074  H1082   1.083   .     S
C1074  C1076   1.395   .     A
C1074  C1408   1.375   1_545 S
C1077  C1113   1.502   .     S
C1077  N1086   1.386   .     A
C1078  N1085   1.386   .     A
C1078  C1117   1.502   .     S
C1078  C72     1.419   1_556 S
C1079  N1085   1.355   .     A
C1079  H1083   1.083   .     S
C1079  C69     1.419   1_556 S
C1080  H1084   1.083   .     S
C1080  N1086   1.355   .     A
N1085  Zn1095  2.021   .     S
N1086  Zn1096  2.021   .     S
O1087  Zn1095  2.007   .     S
O1088  Zn1096  2.007   .     S
O1089  Zn1096  2.010   .     S
O1090  Zn1095  2.010   .     S
O1091  Zn1095  1.994   .     S
O1092  Zn1096  1.994   .     S
O1093  Zn1096  1.975   .     S
O1094  Zn1095  1.975   .     S
C1097  H1100   1.108   .     S
C1097  H1099   1.110   .     S
C1097  C1125   1.521   .     S
C1097  H1154   1.112   .     S
C1101  H1104   1.110   .     S
C1101  H1103   1.108   .     S
H1102  C1157   1.112   .     S
C1105  H1107   1.111   .     S
C1105  H1106   1.106   .     S
C1105  H1108   1.110   .     S
C1109  H1112   1.111   .     S
C1109  H1111   1.110   .     S
C1109  H1110   1.106   .     S
C1113  H1116   1.106   .     S
C1113  H1114   1.111   .     S
C1113  H1115   1.099   .     S
C1117  H1118   1.111   .     S
C1117  H1119   1.106   .     S
C1117  H1120   1.099   .     S
C1121  O1145   1.282   .     A
C1121  C1132   1.428   .     S
C1121  O1143   1.296   .     A
C1122  O1146   1.282   .     A
C1122  C1131   1.428   .     S
C1122  O1144   1.296   .     A
C1123  O1147   1.275   .     A
C1123  O1149   1.284   .     A
C1123  C1125   1.398   .     S
C1124  C1126   1.398   .     S
C1124  O1148   1.275   .     A
C1124  O1150   1.284   .     A
C1126  C1013   1.345   1_655 S
C1126  C1045   1.521   1_655 S
C1127  C1132   1.414   .     A
C1127  C1161   1.513   .     S
C1127  C1465   1.375   1_545 S
C1128  C1131   1.414   .     A
C1128  C1165   1.513   .     S
C1128  C1298   1.375   .     S
C1129  C1131   1.395   .     A
C1129  H1137   1.083   .     S
C1129  C1295   1.375   .     S
C1130  H1138   1.083   .     S
C1130  C1132   1.395   .     A
C1130  C1464   1.375   1_545 S
C1133  C1169   1.502   .     S
C1133  N1142   1.386   .     A
C1134  N1141   1.386   .     A
C1134  C1173   1.502   .     S
C1134  C128    1.419   1_556 S
C1135  N1141   1.355   .     A
C1135  H1139   1.083   .     S
C1135  C125    1.419   1_556 S
C1136  H1140   1.083   .     S
C1136  N1142   1.355   .     A
N1141  Zn1151  2.021   .     S
N1142  Zn1152  2.021   .     S
O1143  Zn1151  2.007   .     S
O1144  Zn1152  2.007   .     S
O1145  Zn1152  2.010   .     S
O1146  Zn1151  2.010   .     S
O1147  Zn1151  1.994   .     S
O1148  Zn1152  1.994   .     S
O1149  Zn1152  1.975   .     S
O1150  Zn1151  1.975   .     S
C1153  H1156   1.108   .     S
C1153  H1155   1.110   .     S
C1153  C1013   1.521   1_655 S
C1153  H1042   1.112   1_655 S
C1157  H1160   1.110   .     S
C1157  H1159   1.108   .     S
H1158  C1045   1.112   1_655 S
C1161  H1163   1.111   .     S
C1161  H1162   1.106   .     S
C1161  H1164   1.110   .     S
C1165  H1168   1.111   .     S
C1165  H1167   1.110   .     S
C1165  H1166   1.106   .     S
C1169  H1172   1.106   .     S
C1169  H1170   1.111   .     S
C1169  H1171   1.099   .     S
C1173  H1174   1.111   .     S
C1173  H1175   1.106   .     S
C1173  H1176   1.099   .     S
C1177  O1201   1.282   .     A
C1177  C1188   1.428   .     S
C1177  O1199   1.296   .     A
C1178  O1202   1.282   .     A
C1178  C1187   1.428   .     S
C1178  O1200   1.296   .     A
C1179  O1203   1.275   .     A
C1179  O1205   1.284   .     A
C1179  C1181   1.398   .     S
C1180  C1182   1.398   .     S
C1180  O1204   1.275   .     A
C1180  O1206   1.284   .     A
C1181  C1294   1.345   1_455 S
C1181  C1321   1.521   1_455 S
C1182  C1237   1.345   .     S
C1182  C1269   1.521   .     S
C1183  C1188   1.414   .     A
C1183  C1217   1.513   .     S
C1184  C1187   1.414   .     A
C1184  C1221   1.513   .     S
C1184  C1354   1.375   .     S
C1185  C1187   1.395   .     A
C1185  H1193   1.083   .     S
C1185  C1351   1.375   .     S
C1186  H1194   1.083   .     S
C1186  C1188   1.395   .     A
C1189  C1225   1.502   .     S
C1189  N1198   1.386   .     A
C1190  N1197   1.386   .     A
C1190  C1229   1.502   .     S
C1190  C184    1.419   1_556 S
C1191  N1197   1.355   .     A
C1191  H1195   1.083   .     S
C1191  C181    1.419   1_556 S
C1192  H1196   1.083   .     S
C1192  N1198   1.355   .     A
N1197  Zn1207  2.021   .     S
N1198  Zn1208  2.021   .     S
O1199  Zn1207  2.007   .     S
O1200  Zn1208  2.007   .     S
O1201  Zn1208  2.010   .     S
O1202  Zn1207  2.010   .     S
O1203  Zn1207  1.994   .     S
O1204  Zn1208  1.994   .     S
O1205  Zn1208  1.975   .     S
O1206  Zn1207  1.975   .     S
C1209  H1212   1.108   .     S
C1209  H1211   1.110   .     S
C1209  C1237   1.521   .     S
C1209  H1266   1.112   .     S
H1210  C1321   1.112   1_455 S
C1213  H1216   1.110   .     S
C1213  H1215   1.108   .     S
C1213  C1294   1.521   1_455 S
C1213  H1326   1.112   1_455 S
H1214  C1269   1.112   .     S
C1217  H1219   1.111   .     S
C1217  H1218   1.106   .     S
C1217  H1220   1.110   .     S
C1221  H1224   1.111   .     S
C1221  H1223   1.110   .     S
C1221  H1222   1.106   .     S
C1225  H1228   1.106   .     S
C1225  H1226   1.111   .     S
C1225  H1227   1.099   .     S
C1229  H1230   1.111   .     S
C1229  H1231   1.106   .     S
C1229  H1232   1.099   .     S
C1233  O1257   1.282   .     A
C1233  C1244   1.428   .     S
C1233  O1255   1.296   .     A
C1234  O1258   1.282   .     A
C1234  C1243   1.428   .     S
C1234  O1256   1.296   .     A
C1235  O1259   1.275   .     A
C1235  O1261   1.284   .     A
C1235  C1237   1.398   .     S
C1236  C1238   1.398   .     S
C1236  O1260   1.275   .     A
C1236  O1262   1.284   .     A
C1238  C1293   1.345   .     S
C1238  C1325   1.521   .     S
C1239  C1244   1.414   .     A
C1239  C1273   1.513   .     S
C1240  C1243   1.414   .     A
C1240  C1277   1.513   .     S
C1240  C1410   1.375   .     S
C1241  C1243   1.395   .     A
C1241  H1249   1.083   .     S
C1241  C1407   1.375   .     S
C1242  H1250   1.083   .     S
C1242  C1244   1.395   .     A
C1245  C1281   1.502   .     S
C1245  N1254   1.386   .     A
C1246  N1253   1.386   .     A
C1246  C1285   1.502   .     S
C1246  C240    1.419   1_556 S
C1247  N1253   1.355   .     A
C1247  H1251   1.083   .     S
C1247  C237    1.419   1_556 S
C1248  H1252   1.083   .     S
C1248  N1254   1.355   .     A
N1253  Zn1263  2.021   .     S
N1254  Zn1264  2.021   .     S
O1255  Zn1263  2.007   .     S
O1256  Zn1264  2.007   .     S
O1257  Zn1264  2.010   .     S
O1258  Zn1263  2.010   .     S
O1259  Zn1263  1.994   .     S
O1260  Zn1264  1.994   .     S
O1261  Zn1264  1.975   .     S
O1262  Zn1263  1.975   .     S
C1265  H1268   1.108   .     S
C1265  H1267   1.110   .     S
C1265  C1293   1.521   .     S
C1265  H1322   1.112   .     S
C1269  H1272   1.110   .     S
C1269  H1271   1.108   .     S
H1270  C1325   1.112   .     S
C1273  H1275   1.111   .     S
C1273  H1274   1.106   .     S
C1273  H1276   1.110   .     S
C1277  H1280   1.111   .     S
C1277  H1279   1.110   .     S
C1277  H1278   1.106   .     S
C1281  H1284   1.106   .     S
C1281  H1282   1.111   .     S
C1281  H1283   1.099   .     S
C1285  H1286   1.111   .     S
C1285  H1287   1.106   .     S
C1285  H1288   1.099   .     S
C1289  O1313   1.282   .     A
C1289  C1300   1.428   .     S
C1289  O1311   1.296   .     A
C1290  O1314   1.282   .     A
C1290  C1299   1.428   .     S
C1290  O1312   1.296   .     A
C1291  O1315   1.275   .     A
C1291  O1317   1.284   .     A
C1291  C1293   1.398   .     S
C1292  C1294   1.398   .     S
C1292  O1316   1.275   .     A
C1292  O1318   1.284   .     A
C1294  C1181   1.345   1_655 S
C1294  C1213   1.521   1_655 S
C1295  C1300   1.414   .     A
C1295  C1329   1.513   .     S
C1296  C1299   1.414   .     A
C1296  C1333   1.513   .     S
C1296  C1466   1.375   .     S
C1297  C1299   1.395   .     A
C1297  H1305   1.083   .     S
C1297  C1463   1.375   .     S
C1298  H1306   1.083   .     S
C1298  C1300   1.395   .     A
C1301  C1337   1.502   .     S
C1301  N1310   1.386   .     A
C1302  N1309   1.386   .     A
C1302  C1341   1.502   .     S
C1302  C296    1.419   1_556 S
C1303  N1309   1.355   .     A
C1303  H1307   1.083   .     S
C1303  C293    1.419   1_556 S
C1304  H1308   1.083   .     S
C1304  N1310   1.355   .     A
N1309  Zn1319  2.021   .     S
N1310  Zn1320  2.021   .     S
O1311  Zn1319  2.007   .     S
O1312  Zn1320  2.007   .     S
O1313  Zn1320  2.010   .     S
O1314  Zn1319  2.010   .     S
O1315  Zn1319  1.994   .     S
O1316  Zn1320  1.994   .     S
O1317  Zn1320  1.975   .     S
O1318  Zn1319  1.975   .     S
C1321  H1324   1.108   .     S
C1321  H1323   1.110   .     S
C1321  C1181   1.521   1_655 S
C1321  H1210   1.112   1_655 S
C1325  H1328   1.110   .     S
C1325  H1327   1.108   .     S
H1326  C1213   1.112   1_655 S
C1329  H1331   1.111   .     S
C1329  H1330   1.106   .     S
C1329  H1332   1.110   .     S
C1333  H1336   1.111   .     S
C1333  H1335   1.110   .     S
C1333  H1334   1.106   .     S
C1337  H1340   1.106   .     S
C1337  H1338   1.111   .     S
C1337  H1339   1.099   .     S
C1341  H1342   1.111   .     S
C1341  H1343   1.106   .     S
C1341  H1344   1.099   .     S
C1345  O1369   1.282   .     A
C1345  C1356   1.428   .     S
C1345  O1367   1.296   .     A
C1346  O1370   1.282   .     A
C1346  C1355   1.428   .     S
C1346  O1368   1.296   .     A
C1347  O1371   1.275   .     A
C1347  O1373   1.284   .     A
C1347  C1349   1.398   .     S
C1348  C1350   1.398   .     S
C1348  O1372   1.275   .     A
C1348  O1374   1.284   .     A
C1349  C1462   1.345   1_455 S
C1349  C1489   1.521   1_455 S
C1350  C1405   1.345   .     S
C1350  C1437   1.521   .     S
C1351  C1356   1.414   .     A
C1351  C1385   1.513   .     S
C1352  C1355   1.414   .     A
C1352  C1389   1.513   .     S
C1352  C1018   1.375   1_565 S
C1353  C1355   1.395   .     A
C1353  H1361   1.083   .     S
C1353  C1015   1.375   1_565 S
C1354  H1362   1.083   .     S
C1354  C1356   1.395   .     A
C1357  C1393   1.502   .     S
C1357  N1366   1.386   .     A
C1358  N1365   1.386   .     A
C1358  C1397   1.502   .     S
C1358  C352    1.419   1_556 S
C1359  N1365   1.355   .     A
C1359  H1363   1.083   .     S
C1359  C349    1.419   1_556 S
C1360  H1364   1.083   .     S
C1360  N1366   1.355   .     A
N1365  Zn1375  2.021   .     S
N1366  Zn1376  2.021   .     S
O1367  Zn1375  2.007   .     S
O1368  Zn1376  2.007   .     S
O1369  Zn1376  2.010   .     S
O1370  Zn1375  2.010   .     S
O1371  Zn1375  1.994   .     S
O1372  Zn1376  1.994   .     S
O1373  Zn1376  1.975   .     S
O1374  Zn1375  1.975   .     S
C1377  H1380   1.108   .     S
C1377  H1379   1.110   .     S
C1377  C1405   1.521   .     S
C1377  H1434   1.112   .     S
H1378  C1489   1.112   1_455 S
C1381  H1384   1.110   .     S
C1381  H1383   1.108   .     S
C1381  C1462   1.521   1_455 S
C1381  H1494   1.112   1_455 S
H1382  C1437   1.112   .     S
C1385  H1387   1.111   .     S
C1385  H1386   1.106   .     S
C1385  H1388   1.110   .     S
C1389  H1392   1.111   .     S
C1389  H1391   1.110   .     S
C1389  H1390   1.106   .     S
C1393  H1396   1.106   .     S
C1393  H1394   1.111   .     S
C1393  H1395   1.099   .     S
C1397  H1398   1.111   .     S
C1397  H1399   1.106   .     S
C1397  H1400   1.099   .     S
C1401  O1425   1.282   .     A
C1401  C1412   1.428   .     S
C1401  O1423   1.296   .     A
C1402  O1426   1.282   .     A
C1402  C1411   1.428   .     S
C1402  O1424   1.296   .     A
C1403  O1427   1.275   .     A
C1403  O1429   1.284   .     A
C1403  C1405   1.398   .     S
C1404  C1406   1.398   .     S
C1404  O1428   1.275   .     A
C1404  O1430   1.284   .     A
C1406  C1461   1.345   .     S
C1406  C1493   1.521   .     S
C1407  C1412   1.414   .     A
C1407  C1441   1.513   .     S
C1408  C1411   1.414   .     A
C1408  C1445   1.513   .     S
C1408  C1074   1.375   1_565 S
C1409  C1411   1.395   .     A
C1409  H1417   1.083   .     S
C1409  C1071   1.375   1_565 S
C1410  H1418   1.083   .     S
C1410  C1412   1.395   .     A
C1413  C1449   1.502   .     S
C1413  N1422   1.386   .     A
C1414  N1421   1.386   .     A
C1414  C1453   1.502   .     S
C1414  C408    1.419   1_556 S
C1415  N1421   1.355   .     A
C1415  H1419   1.083   .     S
C1415  C405    1.419   1_556 S
C1416  H1420   1.083   .     S
C1416  N1422   1.355   .     A
N1421  Zn1431  2.021   .     S
N1422  Zn1432  2.021   .     S
O1423  Zn1431  2.007   .     S
O1424  Zn1432  2.007   .     S
O1425  Zn1432  2.010   .     S
O1426  Zn1431  2.010   .     S
O1427  Zn1431  1.994   .     S
O1428  Zn1432  1.994   .     S
O1429  Zn1432  1.975   .     S
O1430  Zn1431  1.975   .     S
C1433  H1436   1.108   .     S
C1433  H1435   1.110   .     S
C1433  C1461   1.521   .     S
C1433  H1490   1.112   .     S
C1437  H1440   1.110   .     S
C1437  H1439   1.108   .     S
H1438  C1493   1.112   .     S
C1441  H1443   1.111   .     S
C1441  H1442   1.106   .     S
C1441  H1444   1.110   .     S
C1445  H1448   1.111   .     S
C1445  H1447   1.110   .     S
C1445  H1446   1.106   .     S
C1449  H1452   1.106   .     S
C1449  H1450   1.111   .     S
C1449  H1451   1.099   .     S
C1453  H1454   1.111   .     S
C1453  H1455   1.106   .     S
C1453  H1456   1.099   .     S
C1457  O1481   1.282   .     A
C1457  C1468   1.428   .     S
C1457  O1479   1.296   .     A
C1458  O1482   1.282   .     A
C1458  C1467   1.428   .     S
C1458  O1480   1.296   .     A
C1459  O1483   1.275   .     A
C1459  O1485   1.284   .     A
C1459  C1461   1.398   .     S
C1460  C1462   1.398   .     S
C1460  O1484   1.275   .     A
C1460  O1486   1.284   .     A
C1462  C1349   1.345   1_655 S
C1462  C1381   1.521   1_655 S
C1463  C1468   1.414   .     A
C1463  C1497   1.513   .     S
C1464  C1467   1.414   .     A
C1464  C1501   1.513   .     S
C1464  C1130   1.375   1_565 S
C1465  C1467   1.395   .     A
C1465  H1473   1.083   .     S
C1465  C1127   1.375   1_565 S
C1466  H1474   1.083   .     S
C1466  C1468   1.395   .     A
C1469  C1505   1.502   .     S
C1469  N1478   1.386   .     A
C1470  N1477   1.386   .     A
C1470  C1509   1.502   .     S
C1470  C464    1.419   1_556 S
C1471  N1477   1.355   .     A
C1471  H1475   1.083   .     S
C1471  C461    1.419   1_556 S
C1472  H1476   1.083   .     S
C1472  N1478   1.355   .     A
N1477  Zn1487  2.021   .     S
N1478  Zn1488  2.021   .     S
O1479  Zn1487  2.007   .     S
O1480  Zn1488  2.007   .     S
O1481  Zn1488  2.010   .     S
O1482  Zn1487  2.010   .     S
O1483  Zn1487  1.994   .     S
O1484  Zn1488  1.994   .     S
O1485  Zn1488  1.975   .     S
O1486  Zn1487  1.975   .     S
C1489  H1492   1.108   .     S
C1489  H1491   1.110   .     S
C1489  C1349   1.521   1_655 S
C1489  H1378   1.112   1_655 S
C1493  H1496   1.110   .     S
C1493  H1495   1.108   .     S
H1494  C1381   1.112   1_655 S
C1497  H1499   1.111   .     S
C1497  H1498   1.106   .     S
C1497  H1500   1.110   .     S
C1501  H1504   1.111   .     S
C1501  H1503   1.110   .     S
C1501  H1502   1.106   .     S
C1505  H1508   1.106   .     S
C1505  H1506   1.111   .     S
C1505  H1507   1.099   .     S
C1509  H1510   1.111   .     S
C1509  H1511   1.106   .     S
C1509  H1512   1.099   .     S
