data_str_m3_o10_o16_pcu_sym.59
_audit_creation_date              2020-01-03
_audit_creation_method            'Materials Studio'
_symmetry_space_group_name_H-M    'P1'
_symmetry_Int_Tables_number       1
_symmetry_cell_setting            triclinic
loop_
_symmetry_equiv_pos_as_xyz
  x,y,z
_cell_length_a                    23.9052
_cell_length_b                    26.0477
_cell_length_c                    25.5116
_cell_angle_alpha                 91.7035
_cell_angle_beta                  104.4511
_cell_angle_gamma                 93.3910
loop_
_atom_site_label
_atom_site_type_symbol
_atom_site_fract_x
_atom_site_fract_y
_atom_site_fract_z
_atom_site_U_iso_or_equiv
_atom_site_adp_type
_atom_site_occupancy
C1     C     0.01570   0.26485   0.25217   0.00000  Uiso   1.00
C2     C     0.06167   0.17854   0.41464   0.00000  Uiso   1.00
C3     C     0.02663   0.31972   0.26276   0.00000  Uiso   1.00
C4     C     0.03824   0.17330   0.35448   0.00000  Uiso   1.00
C5     C     0.31494   0.01504   0.26191   0.00000  Uiso   1.00
C6     C     0.31974   0.06886   0.25346   0.00000  Uiso   1.00
C7     C     0.29491   0.15574   0.14777   0.00000  Uiso   1.00
C8     C     0.25389   0.07362   0.01744   0.00000  Uiso   1.00
C9     C     0.26662   0.13317   0.09427   0.00000  Uiso   1.00
C10    C     0.03332   0.20579   0.44798   0.00000  Uiso   1.00
C11    C     0.04455   0.19805   0.00324   0.00000  Uiso   1.00
C12    C     0.12599   0.15000   0.49712   0.00000  Uiso   1.00
C13    C     0.08999   0.16954   0.02772   0.00000  Uiso   1.00
C14    C     0.32780   0.05354   0.10140   0.00000  Uiso   1.00
C15    C     0.04377   0.04455   0.07460   0.00000  Uiso   1.00
C16    C     0.11214   0.15458   0.44047   0.00000  Uiso   1.00
C17    C     0.17895   0.13029   0.02177   0.00000  Uiso   1.00
C18    C     0.20699   0.10080   0.49079   0.00000  Uiso   1.00
C19    C     0.19728   0.11068   0.43594   0.00000  Uiso   1.00
C20    C     0.15613   0.14571   0.41429   0.00000  Uiso   1.00
C21    C     0.21148   0.14994   0.07163   0.00000  Uiso   1.00
C22    C     0.28419   0.08885   0.07051   0.00000  Uiso   1.00
H23    H     0.26802   0.04240   0.49611   0.00000  Uiso   1.00
H24    H     0.19557   0.18139   0.09128   0.00000  Uiso   1.00
H25    H     0.09932   0.16629   0.07119   0.00000  Uiso   1.00
H26    H     0.02194   0.21849   0.02838   0.00000  Uiso   1.00
H27    H     0.06968   0.08098   0.07432   0.00000  Uiso   1.00
H28    H     0.07240   0.01666   0.09796   0.00000  Uiso   1.00
H29    H     0.02759   0.02823   0.03256   0.00000  Uiso   1.00
H30    H     0.01326   0.06775   0.14368   0.00000  Uiso   1.00
H31    H     0.30464   0.01569   0.10361   0.00000  Uiso   1.00
I32    I     0.25824   0.33097   0.31056   0.00000  Uiso   1.00
I33    I     0.15586   0.08683   0.19205   0.00000  Uiso   1.00
I34    I     0.17013   0.24634   0.22051   0.00000  Uiso   1.00
I35    I     0.26555   0.09917   0.40045   0.00000  Uiso   1.00
I36    I     0.00287   0.27775   0.42835   0.00000  Uiso   1.00
I37    I     0.18820   0.21456   0.38528   0.00000  Uiso   1.00
I38    I     0.10718   0.01038   0.31742   0.00000  Uiso   1.00
N39    N     0.14493   0.15223   0.23543   0.00000  Uiso   1.00
N40    N     0.18840   0.18110   0.26458   0.00000  Uiso   1.00
O41    O     0.29769   0.24629   0.25358   0.00000  Uiso   1.00
O42    O     0.05742   0.23704   0.24424   0.00000  Uiso   1.00
O43    O     0.31490   0.17358   0.33380   0.00000  Uiso   1.00
O44    O     0.07463   0.16433   0.32446   0.00000  Uiso   1.00
O45    O     0.27592   0.09629   0.25577   0.00000  Uiso   1.00
O46    O     0.03565   0.08704   0.24643   0.00000  Uiso   1.00
O47    O     0.25870   0.16901   0.17554   0.00000  Uiso   1.00
O48    O     0.01843   0.15976   0.16620   0.00000  Uiso   1.00
Zn49   Zn    0.27119   0.17284   0.25624   0.00000  Uiso   1.00
Zn50   Zn    0.06214   0.16049   0.24377   0.00000  Uiso   1.00
C51    C     0.34903   0.26485   0.25217   0.00000  Uiso   1.00
C52    C     0.39501   0.17854   0.41464   0.00000  Uiso   1.00
C53    C     0.35996   0.31972   0.26276   0.00000  Uiso   1.00
C54    C     0.37157   0.17330   0.35448   0.00000  Uiso   1.00
C55    C     0.64827   0.01504   0.26191   0.00000  Uiso   1.00
C56    C     0.65308   0.06886   0.25346   0.00000  Uiso   1.00
C57    C     0.62824   0.15574   0.14777   0.00000  Uiso   1.00
C58    C     0.58723   0.07362   0.01744   0.00000  Uiso   1.00
C59    C     0.59996   0.13317   0.09427   0.00000  Uiso   1.00
C60    C     0.36665   0.20579   0.44798   0.00000  Uiso   1.00
C61    C     0.37788   0.19805   0.00324   0.00000  Uiso   1.00
C62    C     0.45932   0.15000   0.49712   0.00000  Uiso   1.00
C63    C     0.42333   0.16954   0.02772   0.00000  Uiso   1.00
C64    C     0.66113   0.05354   0.10140   0.00000  Uiso   1.00
C65    C     0.37710   0.04455   0.07460   0.00000  Uiso   1.00
C66    C     0.44548   0.15458   0.44047   0.00000  Uiso   1.00
C67    C     0.51228   0.13029   0.02177   0.00000  Uiso   1.00
C68    C     0.54032   0.10080   0.49079   0.00000  Uiso   1.00
C69    C     0.53061   0.11068   0.43594   0.00000  Uiso   1.00
C70    C     0.48946   0.14571   0.41429   0.00000  Uiso   1.00
C71    C     0.54481   0.14994   0.07163   0.00000  Uiso   1.00
C72    C     0.61753   0.08885   0.07051   0.00000  Uiso   1.00
H73    H     0.60136   0.04240   0.49611   0.00000  Uiso   1.00
H74    H     0.52890   0.18139   0.09128   0.00000  Uiso   1.00
H75    H     0.43266   0.16629   0.07119   0.00000  Uiso   1.00
H76    H     0.35527   0.21849   0.02838   0.00000  Uiso   1.00
H77    H     0.40301   0.08098   0.07432   0.00000  Uiso   1.00
H78    H     0.40573   0.01666   0.09796   0.00000  Uiso   1.00
H79    H     0.36093   0.02823   0.03256   0.00000  Uiso   1.00
H80    H     0.34659   0.06775   0.14368   0.00000  Uiso   1.00
H81    H     0.63798   0.01569   0.10361   0.00000  Uiso   1.00
I82    I     0.59157   0.33097   0.31056   0.00000  Uiso   1.00
I83    I     0.48920   0.08683   0.19205   0.00000  Uiso   1.00
I84    I     0.50346   0.24634   0.22051   0.00000  Uiso   1.00
I85    I     0.59888   0.09917   0.40045   0.00000  Uiso   1.00
I86    I     0.33620   0.27775   0.42835   0.00000  Uiso   1.00
I87    I     0.52153   0.21456   0.38528   0.00000  Uiso   1.00
I88    I     0.44052   0.01038   0.31742   0.00000  Uiso   1.00
N89    N     0.47827   0.15223   0.23543   0.00000  Uiso   1.00
N90    N     0.52173   0.18110   0.26458   0.00000  Uiso   1.00
O91    O     0.63102   0.24629   0.25358   0.00000  Uiso   1.00
O92    O     0.39075   0.23704   0.24424   0.00000  Uiso   1.00
O93    O     0.64823   0.17358   0.33380   0.00000  Uiso   1.00
O94    O     0.40796   0.16433   0.32446   0.00000  Uiso   1.00
O95    O     0.60925   0.09629   0.25577   0.00000  Uiso   1.00
O96    O     0.36898   0.08704   0.24643   0.00000  Uiso   1.00
O97    O     0.59204   0.16901   0.17554   0.00000  Uiso   1.00
O98    O     0.35177   0.15976   0.16620   0.00000  Uiso   1.00
Zn99   Zn    0.60453   0.17284   0.25624   0.00000  Uiso   1.00
Zn100  Zn    0.39547   0.16049   0.24377   0.00000  Uiso   1.00
C101   C     0.68236   0.26485   0.25217   0.00000  Uiso   1.00
C102   C     0.72834   0.17854   0.41464   0.00000  Uiso   1.00
C103   C     0.69329   0.31972   0.26276   0.00000  Uiso   1.00
C104   C     0.70490   0.17330   0.35448   0.00000  Uiso   1.00
C105   C     0.98160   0.01504   0.26191   0.00000  Uiso   1.00
C106   C     0.98641   0.06886   0.25346   0.00000  Uiso   1.00
C107   C     0.96157   0.15574   0.14777   0.00000  Uiso   1.00
C108   C     0.92056   0.07362   0.01744   0.00000  Uiso   1.00
C109   C     0.93329   0.13317   0.09427   0.00000  Uiso   1.00
C110   C     0.69998   0.20579   0.44798   0.00000  Uiso   1.00
C111   C     0.71121   0.19805   0.00324   0.00000  Uiso   1.00
C112   C     0.79265   0.15000   0.49712   0.00000  Uiso   1.00
C113   C     0.75666   0.16954   0.02772   0.00000  Uiso   1.00
C114   C     0.99447   0.05354   0.10140   0.00000  Uiso   1.00
C115   C     0.71044   0.04455   0.07460   0.00000  Uiso   1.00
C116   C     0.77881   0.15458   0.44047   0.00000  Uiso   1.00
C117   C     0.84562   0.13029   0.02177   0.00000  Uiso   1.00
C118   C     0.87365   0.10080   0.49079   0.00000  Uiso   1.00
C119   C     0.86394   0.11068   0.43594   0.00000  Uiso   1.00
C120   C     0.82280   0.14571   0.41429   0.00000  Uiso   1.00
C121   C     0.87814   0.14994   0.07163   0.00000  Uiso   1.00
C122   C     0.95086   0.08885   0.07051   0.00000  Uiso   1.00
H123   H     0.93469   0.04240   0.49611   0.00000  Uiso   1.00
H124   H     0.86224   0.18139   0.09128   0.00000  Uiso   1.00
H125   H     0.76599   0.16629   0.07119   0.00000  Uiso   1.00
H126   H     0.68860   0.21849   0.02838   0.00000  Uiso   1.00
H127   H     0.73634   0.08098   0.07432   0.00000  Uiso   1.00
H128   H     0.73907   0.01666   0.09796   0.00000  Uiso   1.00
H129   H     0.69426   0.02823   0.03256   0.00000  Uiso   1.00
H130   H     0.67992   0.06775   0.14368   0.00000  Uiso   1.00
H131   H     0.97131   0.01569   0.10361   0.00000  Uiso   1.00
I132   I     0.92491   0.33097   0.31056   0.00000  Uiso   1.00
I133   I     0.82253   0.08683   0.19205   0.00000  Uiso   1.00
I134   I     0.83680   0.24634   0.22051   0.00000  Uiso   1.00
I135   I     0.93221   0.09917   0.40045   0.00000  Uiso   1.00
I136   I     0.66954   0.27775   0.42835   0.00000  Uiso   1.00
I137   I     0.85486   0.21456   0.38528   0.00000  Uiso   1.00
I138   I     0.77385   0.01038   0.31742   0.00000  Uiso   1.00
N139   N     0.81160   0.15223   0.23543   0.00000  Uiso   1.00
N140   N     0.85507   0.18110   0.26458   0.00000  Uiso   1.00
O141   O     0.96435   0.24629   0.25358   0.00000  Uiso   1.00
O142   O     0.72408   0.23704   0.24424   0.00000  Uiso   1.00
O143   O     0.98157   0.17358   0.33380   0.00000  Uiso   1.00
O144   O     0.74130   0.16433   0.32446   0.00000  Uiso   1.00
O145   O     0.94258   0.09629   0.25577   0.00000  Uiso   1.00
O146   O     0.70231   0.08704   0.24643   0.00000  Uiso   1.00
O147   O     0.92537   0.16901   0.17554   0.00000  Uiso   1.00
O148   O     0.68510   0.15976   0.16620   0.00000  Uiso   1.00
Zn149  Zn    0.93786   0.17284   0.25624   0.00000  Uiso   1.00
Zn150  Zn    0.72881   0.16049   0.24377   0.00000  Uiso   1.00
C151   C     0.01570   0.59819   0.25217   0.00000  Uiso   1.00
C152   C     0.06167   0.51188   0.41464   0.00000  Uiso   1.00
C153   C     0.02663   0.65305   0.26276   0.00000  Uiso   1.00
C154   C     0.03824   0.50664   0.35448   0.00000  Uiso   1.00
C155   C     0.31494   0.34838   0.26191   0.00000  Uiso   1.00
C156   C     0.31974   0.40220   0.25346   0.00000  Uiso   1.00
C157   C     0.29491   0.48907   0.14777   0.00000  Uiso   1.00
C158   C     0.25389   0.40696   0.01744   0.00000  Uiso   1.00
C159   C     0.26662   0.46651   0.09427   0.00000  Uiso   1.00
C160   C     0.03332   0.53913   0.44798   0.00000  Uiso   1.00
C161   C     0.04455   0.53139   0.00324   0.00000  Uiso   1.00
C162   C     0.12599   0.48334   0.49712   0.00000  Uiso   1.00
C163   C     0.08999   0.50287   0.02772   0.00000  Uiso   1.00
C164   C     0.32780   0.38687   0.10140   0.00000  Uiso   1.00
C165   C     0.04377   0.37788   0.07460   0.00000  Uiso   1.00
C166   C     0.11214   0.48791   0.44047   0.00000  Uiso   1.00
C167   C     0.17895   0.46363   0.02177   0.00000  Uiso   1.00
C168   C     0.20699   0.43413   0.49079   0.00000  Uiso   1.00
C169   C     0.19728   0.44401   0.43594   0.00000  Uiso   1.00
C170   C     0.15613   0.47904   0.41429   0.00000  Uiso   1.00
C171   C     0.21148   0.48327   0.07163   0.00000  Uiso   1.00
C172   C     0.28419   0.42219   0.07051   0.00000  Uiso   1.00
H173   H     0.26802   0.37574   0.49611   0.00000  Uiso   1.00
H174   H     0.19557   0.51472   0.09128   0.00000  Uiso   1.00
H175   H     0.09932   0.49962   0.07119   0.00000  Uiso   1.00
H176   H     0.02194   0.55182   0.02838   0.00000  Uiso   1.00
H177   H     0.06968   0.41431   0.07432   0.00000  Uiso   1.00
H178   H     0.07240   0.34999   0.09796   0.00000  Uiso   1.00
H179   H     0.02759   0.36157   0.03256   0.00000  Uiso   1.00
H180   H     0.01326   0.40109   0.14368   0.00000  Uiso   1.00
H181   H     0.30464   0.34903   0.10361   0.00000  Uiso   1.00
I182   I     0.25824   0.66431   0.31056   0.00000  Uiso   1.00
I183   I     0.15586   0.42016   0.19205   0.00000  Uiso   1.00
I184   I     0.17013   0.57967   0.22051   0.00000  Uiso   1.00
I185   I     0.26555   0.43250   0.40045   0.00000  Uiso   1.00
I186   I     0.00287   0.61108   0.42835   0.00000  Uiso   1.00
I187   I     0.18820   0.54789   0.38528   0.00000  Uiso   1.00
I188   I     0.10718   0.34371   0.31742   0.00000  Uiso   1.00
N189   N     0.14493   0.48556   0.23543   0.00000  Uiso   1.00
N190   N     0.18840   0.51444   0.26458   0.00000  Uiso   1.00
O191   O     0.29769   0.57963   0.25358   0.00000  Uiso   1.00
O192   O     0.05742   0.57038   0.24424   0.00000  Uiso   1.00
O193   O     0.31490   0.50691   0.33380   0.00000  Uiso   1.00
O194   O     0.07463   0.49766   0.32446   0.00000  Uiso   1.00
O195   O     0.27592   0.42962   0.25577   0.00000  Uiso   1.00
O196   O     0.03565   0.42037   0.24643   0.00000  Uiso   1.00
O197   O     0.25870   0.50234   0.17554   0.00000  Uiso   1.00
O198   O     0.01843   0.49309   0.16620   0.00000  Uiso   1.00
Zn199  Zn    0.27119   0.50618   0.25624   0.00000  Uiso   1.00
Zn200  Zn    0.06214   0.49382   0.24377   0.00000  Uiso   1.00
C201   C     0.34903   0.59819   0.25217   0.00000  Uiso   1.00
C202   C     0.39501   0.51188   0.41464   0.00000  Uiso   1.00
C203   C     0.35996   0.65305   0.26276   0.00000  Uiso   1.00
C204   C     0.37157   0.50664   0.35448   0.00000  Uiso   1.00
C205   C     0.64827   0.34838   0.26191   0.00000  Uiso   1.00
C206   C     0.65308   0.40220   0.25346   0.00000  Uiso   1.00
C207   C     0.62824   0.48907   0.14777   0.00000  Uiso   1.00
C208   C     0.58723   0.40696   0.01744   0.00000  Uiso   1.00
C209   C     0.59996   0.46651   0.09427   0.00000  Uiso   1.00
C210   C     0.36665   0.53913   0.44798   0.00000  Uiso   1.00
C211   C     0.37788   0.53139   0.00324   0.00000  Uiso   1.00
C212   C     0.45932   0.48334   0.49712   0.00000  Uiso   1.00
C213   C     0.42333   0.50287   0.02772   0.00000  Uiso   1.00
C214   C     0.66113   0.38687   0.10140   0.00000  Uiso   1.00
C215   C     0.37710   0.37788   0.07460   0.00000  Uiso   1.00
C216   C     0.44548   0.48791   0.44047   0.00000  Uiso   1.00
C217   C     0.51228   0.46363   0.02177   0.00000  Uiso   1.00
C218   C     0.54032   0.43413   0.49079   0.00000  Uiso   1.00
C219   C     0.53061   0.44401   0.43594   0.00000  Uiso   1.00
C220   C     0.48946   0.47904   0.41429   0.00000  Uiso   1.00
C221   C     0.54481   0.48327   0.07163   0.00000  Uiso   1.00
C222   C     0.61753   0.42219   0.07051   0.00000  Uiso   1.00
H223   H     0.60136   0.37574   0.49611   0.00000  Uiso   1.00
H224   H     0.52890   0.51472   0.09128   0.00000  Uiso   1.00
H225   H     0.43266   0.49962   0.07119   0.00000  Uiso   1.00
H226   H     0.35527   0.55182   0.02838   0.00000  Uiso   1.00
H227   H     0.40301   0.41431   0.07432   0.00000  Uiso   1.00
H228   H     0.40573   0.34999   0.09796   0.00000  Uiso   1.00
H229   H     0.36093   0.36157   0.03256   0.00000  Uiso   1.00
H230   H     0.34659   0.40109   0.14368   0.00000  Uiso   1.00
H231   H     0.63798   0.34903   0.10361   0.00000  Uiso   1.00
I232   I     0.59157   0.66431   0.31056   0.00000  Uiso   1.00
I233   I     0.48920   0.42016   0.19205   0.00000  Uiso   1.00
I234   I     0.50346   0.57967   0.22051   0.00000  Uiso   1.00
I235   I     0.59888   0.43250   0.40045   0.00000  Uiso   1.00
I236   I     0.33620   0.61108   0.42835   0.00000  Uiso   1.00
I237   I     0.52153   0.54789   0.38528   0.00000  Uiso   1.00
I238   I     0.44052   0.34371   0.31742   0.00000  Uiso   1.00
N239   N     0.47827   0.48556   0.23543   0.00000  Uiso   1.00
N240   N     0.52173   0.51444   0.26458   0.00000  Uiso   1.00
O241   O     0.63102   0.57963   0.25358   0.00000  Uiso   1.00
O242   O     0.39075   0.57038   0.24424   0.00000  Uiso   1.00
O243   O     0.64823   0.50691   0.33380   0.00000  Uiso   1.00
O244   O     0.40796   0.49766   0.32446   0.00000  Uiso   1.00
O245   O     0.60925   0.42962   0.25577   0.00000  Uiso   1.00
O246   O     0.36898   0.42037   0.24643   0.00000  Uiso   1.00
O247   O     0.59204   0.50234   0.17554   0.00000  Uiso   1.00
O248   O     0.35177   0.49309   0.16620   0.00000  Uiso   1.00
Zn249  Zn    0.60453   0.50618   0.25624   0.00000  Uiso   1.00
Zn250  Zn    0.39547   0.49382   0.24377   0.00000  Uiso   1.00
C251   C     0.68236   0.59819   0.25217   0.00000  Uiso   1.00
C252   C     0.72834   0.51188   0.41464   0.00000  Uiso   1.00
C253   C     0.69329   0.65305   0.26276   0.00000  Uiso   1.00
C254   C     0.70490   0.50664   0.35448   0.00000  Uiso   1.00
C255   C     0.98160   0.34838   0.26191   0.00000  Uiso   1.00
C256   C     0.98641   0.40220   0.25346   0.00000  Uiso   1.00
C257   C     0.96157   0.48907   0.14777   0.00000  Uiso   1.00
C258   C     0.92056   0.40696   0.01744   0.00000  Uiso   1.00
C259   C     0.93329   0.46651   0.09427   0.00000  Uiso   1.00
C260   C     0.69998   0.53913   0.44798   0.00000  Uiso   1.00
C261   C     0.71121   0.53139   0.00324   0.00000  Uiso   1.00
C262   C     0.79265   0.48334   0.49712   0.00000  Uiso   1.00
C263   C     0.75666   0.50287   0.02772   0.00000  Uiso   1.00
C264   C     0.99447   0.38687   0.10140   0.00000  Uiso   1.00
C265   C     0.71044   0.37788   0.07460   0.00000  Uiso   1.00
C266   C     0.77881   0.48791   0.44047   0.00000  Uiso   1.00
C267   C     0.84562   0.46363   0.02177   0.00000  Uiso   1.00
C268   C     0.87365   0.43413   0.49079   0.00000  Uiso   1.00
C269   C     0.86394   0.44401   0.43594   0.00000  Uiso   1.00
C270   C     0.82280   0.47904   0.41429   0.00000  Uiso   1.00
C271   C     0.87814   0.48327   0.07163   0.00000  Uiso   1.00
C272   C     0.95086   0.42219   0.07051   0.00000  Uiso   1.00
H273   H     0.93469   0.37574   0.49611   0.00000  Uiso   1.00
H274   H     0.86224   0.51472   0.09128   0.00000  Uiso   1.00
H275   H     0.76599   0.49962   0.07119   0.00000  Uiso   1.00
H276   H     0.68860   0.55182   0.02838   0.00000  Uiso   1.00
H277   H     0.73634   0.41431   0.07432   0.00000  Uiso   1.00
H278   H     0.73907   0.34999   0.09796   0.00000  Uiso   1.00
H279   H     0.69426   0.36157   0.03256   0.00000  Uiso   1.00
H280   H     0.67992   0.40109   0.14368   0.00000  Uiso   1.00
H281   H     0.97131   0.34903   0.10361   0.00000  Uiso   1.00
I282   I     0.92491   0.66431   0.31056   0.00000  Uiso   1.00
I283   I     0.82253   0.42016   0.19205   0.00000  Uiso   1.00
I284   I     0.83680   0.57967   0.22051   0.00000  Uiso   1.00
I285   I     0.93221   0.43250   0.40045   0.00000  Uiso   1.00
I286   I     0.66954   0.61108   0.42835   0.00000  Uiso   1.00
I287   I     0.85486   0.54789   0.38528   0.00000  Uiso   1.00
I288   I     0.77385   0.34371   0.31742   0.00000  Uiso   1.00
N289   N     0.81160   0.48556   0.23543   0.00000  Uiso   1.00
N290   N     0.85507   0.51444   0.26458   0.00000  Uiso   1.00
O291   O     0.96435   0.57963   0.25358   0.00000  Uiso   1.00
O292   O     0.72408   0.57038   0.24424   0.00000  Uiso   1.00
O293   O     0.98157   0.50691   0.33380   0.00000  Uiso   1.00
O294   O     0.74130   0.49766   0.32446   0.00000  Uiso   1.00
O295   O     0.94258   0.42962   0.25577   0.00000  Uiso   1.00
O296   O     0.70231   0.42037   0.24643   0.00000  Uiso   1.00
O297   O     0.92537   0.50234   0.17554   0.00000  Uiso   1.00
O298   O     0.68510   0.49309   0.16620   0.00000  Uiso   1.00
Zn299  Zn    0.93786   0.50618   0.25624   0.00000  Uiso   1.00
Zn300  Zn    0.72881   0.49382   0.24377   0.00000  Uiso   1.00
C301   C     0.01570   0.93152   0.25217   0.00000  Uiso   1.00
C302   C     0.06167   0.84521   0.41464   0.00000  Uiso   1.00
C303   C     0.02663   0.98638   0.26276   0.00000  Uiso   1.00
C304   C     0.03824   0.83997   0.35448   0.00000  Uiso   1.00
C305   C     0.31494   0.68171   0.26191   0.00000  Uiso   1.00
C306   C     0.31974   0.73553   0.25346   0.00000  Uiso   1.00
C307   C     0.29491   0.82240   0.14777   0.00000  Uiso   1.00
C308   C     0.25389   0.74029   0.01744   0.00000  Uiso   1.00
C309   C     0.26662   0.79984   0.09427   0.00000  Uiso   1.00
C310   C     0.03332   0.87246   0.44798   0.00000  Uiso   1.00
C311   C     0.04455   0.86472   0.00324   0.00000  Uiso   1.00
C312   C     0.12599   0.81667   0.49712   0.00000  Uiso   1.00
C313   C     0.08999   0.83620   0.02772   0.00000  Uiso   1.00
C314   C     0.32780   0.72020   0.10140   0.00000  Uiso   1.00
C315   C     0.04377   0.71122   0.07460   0.00000  Uiso   1.00
C316   C     0.11214   0.82124   0.44047   0.00000  Uiso   1.00
C317   C     0.17895   0.79696   0.02177   0.00000  Uiso   1.00
C318   C     0.20699   0.76746   0.49079   0.00000  Uiso   1.00
C319   C     0.19728   0.77735   0.43594   0.00000  Uiso   1.00
C320   C     0.15613   0.81237   0.41429   0.00000  Uiso   1.00
C321   C     0.21148   0.81660   0.07163   0.00000  Uiso   1.00
C322   C     0.28419   0.75552   0.07051   0.00000  Uiso   1.00
H323   H     0.26802   0.70907   0.49611   0.00000  Uiso   1.00
H324   H     0.19557   0.84805   0.09128   0.00000  Uiso   1.00
H325   H     0.09932   0.83295   0.07119   0.00000  Uiso   1.00
H326   H     0.02194   0.88516   0.02838   0.00000  Uiso   1.00
H327   H     0.06968   0.74765   0.07432   0.00000  Uiso   1.00
H328   H     0.07240   0.68332   0.09796   0.00000  Uiso   1.00
H329   H     0.02759   0.69490   0.03256   0.00000  Uiso   1.00
H330   H     0.01326   0.73442   0.14368   0.00000  Uiso   1.00
H331   H     0.30464   0.68236   0.10361   0.00000  Uiso   1.00
I332   I     0.25824   0.99764   0.31056   0.00000  Uiso   1.00
I333   I     0.15586   0.75349   0.19205   0.00000  Uiso   1.00
I334   I     0.17013   0.91300   0.22051   0.00000  Uiso   1.00
I335   I     0.26555   0.76584   0.40045   0.00000  Uiso   1.00
I336   I     0.00287   0.94442   0.42835   0.00000  Uiso   1.00
I337   I     0.18820   0.88123   0.38528   0.00000  Uiso   1.00
I338   I     0.10718   0.67704   0.31742   0.00000  Uiso   1.00
N339   N     0.14493   0.81890   0.23543   0.00000  Uiso   1.00
N340   N     0.18840   0.84777   0.26458   0.00000  Uiso   1.00
O341   O     0.29769   0.91296   0.25358   0.00000  Uiso   1.00
O342   O     0.05742   0.90371   0.24424   0.00000  Uiso   1.00
O343   O     0.31490   0.84024   0.33380   0.00000  Uiso   1.00
O344   O     0.07463   0.83099   0.32446   0.00000  Uiso   1.00
O345   O     0.27592   0.76296   0.25577   0.00000  Uiso   1.00
O346   O     0.03565   0.75371   0.24643   0.00000  Uiso   1.00
O347   O     0.25870   0.83567   0.17554   0.00000  Uiso   1.00
O348   O     0.01843   0.82642   0.16620   0.00000  Uiso   1.00
Zn349  Zn    0.27119   0.83951   0.25624   0.00000  Uiso   1.00
Zn350  Zn    0.06214   0.82716   0.24377   0.00000  Uiso   1.00
C351   C     0.34903   0.93152   0.25217   0.00000  Uiso   1.00
C352   C     0.39501   0.84521   0.41464   0.00000  Uiso   1.00
C353   C     0.35996   0.98638   0.26276   0.00000  Uiso   1.00
C354   C     0.37157   0.83997   0.35448   0.00000  Uiso   1.00
C355   C     0.64827   0.68171   0.26191   0.00000  Uiso   1.00
C356   C     0.65308   0.73553   0.25346   0.00000  Uiso   1.00
C357   C     0.62824   0.82240   0.14777   0.00000  Uiso   1.00
C358   C     0.58723   0.74029   0.01744   0.00000  Uiso   1.00
C359   C     0.59996   0.79984   0.09427   0.00000  Uiso   1.00
C360   C     0.36665   0.87246   0.44798   0.00000  Uiso   1.00
C361   C     0.37788   0.86472   0.00324   0.00000  Uiso   1.00
C362   C     0.45932   0.81667   0.49712   0.00000  Uiso   1.00
C363   C     0.42333   0.83620   0.02772   0.00000  Uiso   1.00
C364   C     0.66113   0.72020   0.10140   0.00000  Uiso   1.00
C365   C     0.37710   0.71122   0.07460   0.00000  Uiso   1.00
C366   C     0.44548   0.82124   0.44047   0.00000  Uiso   1.00
C367   C     0.51228   0.79696   0.02177   0.00000  Uiso   1.00
C368   C     0.54032   0.76746   0.49079   0.00000  Uiso   1.00
C369   C     0.53061   0.77735   0.43594   0.00000  Uiso   1.00
C370   C     0.48946   0.81237   0.41429   0.00000  Uiso   1.00
C371   C     0.54481   0.81660   0.07163   0.00000  Uiso   1.00
C372   C     0.61753   0.75552   0.07051   0.00000  Uiso   1.00
H373   H     0.60136   0.70907   0.49611   0.00000  Uiso   1.00
H374   H     0.52890   0.84805   0.09128   0.00000  Uiso   1.00
H375   H     0.43266   0.83295   0.07119   0.00000  Uiso   1.00
H376   H     0.35527   0.88516   0.02838   0.00000  Uiso   1.00
H377   H     0.40301   0.74765   0.07432   0.00000  Uiso   1.00
H378   H     0.40573   0.68332   0.09796   0.00000  Uiso   1.00
H379   H     0.36093   0.69490   0.03256   0.00000  Uiso   1.00
H380   H     0.34659   0.73442   0.14368   0.00000  Uiso   1.00
H381   H     0.63798   0.68236   0.10361   0.00000  Uiso   1.00
I382   I     0.59157   0.99764   0.31056   0.00000  Uiso   1.00
I383   I     0.48920   0.75349   0.19205   0.00000  Uiso   1.00
I384   I     0.50346   0.91300   0.22051   0.00000  Uiso   1.00
I385   I     0.59888   0.76584   0.40045   0.00000  Uiso   1.00
I386   I     0.33620   0.94442   0.42835   0.00000  Uiso   1.00
I387   I     0.52153   0.88123   0.38528   0.00000  Uiso   1.00
I388   I     0.44052   0.67704   0.31742   0.00000  Uiso   1.00
N389   N     0.47827   0.81890   0.23543   0.00000  Uiso   1.00
N390   N     0.52173   0.84777   0.26458   0.00000  Uiso   1.00
O391   O     0.63102   0.91296   0.25358   0.00000  Uiso   1.00
O392   O     0.39075   0.90371   0.24424   0.00000  Uiso   1.00
O393   O     0.64823   0.84024   0.33380   0.00000  Uiso   1.00
O394   O     0.40796   0.83099   0.32446   0.00000  Uiso   1.00
O395   O     0.60925   0.76296   0.25577   0.00000  Uiso   1.00
O396   O     0.36898   0.75371   0.24643   0.00000  Uiso   1.00
O397   O     0.59204   0.83567   0.17554   0.00000  Uiso   1.00
O398   O     0.35177   0.82642   0.16620   0.00000  Uiso   1.00
Zn399  Zn    0.60453   0.83951   0.25624   0.00000  Uiso   1.00
Zn400  Zn    0.39547   0.82716   0.24377   0.00000  Uiso   1.00
C401   C     0.68236   0.93152   0.25217   0.00000  Uiso   1.00
C402   C     0.72834   0.84521   0.41464   0.00000  Uiso   1.00
C403   C     0.69329   0.98638   0.26276   0.00000  Uiso   1.00
C404   C     0.70490   0.83997   0.35448   0.00000  Uiso   1.00
C405   C     0.98160   0.68171   0.26191   0.00000  Uiso   1.00
C406   C     0.98641   0.73553   0.25346   0.00000  Uiso   1.00
C407   C     0.96157   0.82240   0.14777   0.00000  Uiso   1.00
C408   C     0.92056   0.74029   0.01744   0.00000  Uiso   1.00
C409   C     0.93329   0.79984   0.09427   0.00000  Uiso   1.00
C410   C     0.69998   0.87246   0.44798   0.00000  Uiso   1.00
C411   C     0.71121   0.86472   0.00324   0.00000  Uiso   1.00
C412   C     0.79265   0.81667   0.49712   0.00000  Uiso   1.00
C413   C     0.75666   0.83620   0.02772   0.00000  Uiso   1.00
C414   C     0.99447   0.72020   0.10140   0.00000  Uiso   1.00
C415   C     0.71044   0.71122   0.07460   0.00000  Uiso   1.00
C416   C     0.77881   0.82124   0.44047   0.00000  Uiso   1.00
C417   C     0.84562   0.79696   0.02177   0.00000  Uiso   1.00
C418   C     0.87365   0.76746   0.49079   0.00000  Uiso   1.00
C419   C     0.86394   0.77735   0.43594   0.00000  Uiso   1.00
C420   C     0.82280   0.81237   0.41429   0.00000  Uiso   1.00
C421   C     0.87814   0.81660   0.07163   0.00000  Uiso   1.00
C422   C     0.95086   0.75552   0.07051   0.00000  Uiso   1.00
H423   H     0.93469   0.70907   0.49611   0.00000  Uiso   1.00
H424   H     0.86224   0.84805   0.09128   0.00000  Uiso   1.00
H425   H     0.76599   0.83295   0.07119   0.00000  Uiso   1.00
H426   H     0.68860   0.88516   0.02838   0.00000  Uiso   1.00
H427   H     0.73634   0.74765   0.07432   0.00000  Uiso   1.00
H428   H     0.73907   0.68332   0.09796   0.00000  Uiso   1.00
H429   H     0.69426   0.69490   0.03256   0.00000  Uiso   1.00
H430   H     0.67992   0.73442   0.14368   0.00000  Uiso   1.00
H431   H     0.97131   0.68236   0.10361   0.00000  Uiso   1.00
I432   I     0.92491   0.99764   0.31056   0.00000  Uiso   1.00
I433   I     0.82253   0.75349   0.19205   0.00000  Uiso   1.00
I434   I     0.83680   0.91300   0.22051   0.00000  Uiso   1.00
I435   I     0.93221   0.76584   0.40045   0.00000  Uiso   1.00
I436   I     0.66954   0.94442   0.42835   0.00000  Uiso   1.00
I437   I     0.85486   0.88123   0.38528   0.00000  Uiso   1.00
I438   I     0.77385   0.67704   0.31742   0.00000  Uiso   1.00
N439   N     0.81160   0.81890   0.23543   0.00000  Uiso   1.00
N440   N     0.85507   0.84777   0.26458   0.00000  Uiso   1.00
O441   O     0.96435   0.91296   0.25358   0.00000  Uiso   1.00
O442   O     0.72408   0.90371   0.24424   0.00000  Uiso   1.00
O443   O     0.98157   0.84024   0.33380   0.00000  Uiso   1.00
O444   O     0.74130   0.83099   0.32446   0.00000  Uiso   1.00
O445   O     0.94258   0.76296   0.25577   0.00000  Uiso   1.00
O446   O     0.70231   0.75371   0.24643   0.00000  Uiso   1.00
O447   O     0.92537   0.83567   0.17554   0.00000  Uiso   1.00
O448   O     0.68510   0.82642   0.16620   0.00000  Uiso   1.00
Zn449  Zn    0.93786   0.83951   0.25624   0.00000  Uiso   1.00
Zn450  Zn    0.72881   0.82716   0.24377   0.00000  Uiso   1.00
C451   C     0.01570   0.26485   0.75217   0.00000  Uiso   1.00
C452   C     0.06167   0.17854   0.91464   0.00000  Uiso   1.00
C453   C     0.02663   0.31972   0.76276   0.00000  Uiso   1.00
C454   C     0.03824   0.17330   0.85448   0.00000  Uiso   1.00
C455   C     0.31494   0.01504   0.76191   0.00000  Uiso   1.00
C456   C     0.31974   0.06886   0.75346   0.00000  Uiso   1.00
C457   C     0.29491   0.15574   0.64777   0.00000  Uiso   1.00
C458   C     0.25389   0.07362   0.51744   0.00000  Uiso   1.00
C459   C     0.26662   0.13317   0.59427   0.00000  Uiso   1.00
C460   C     0.03332   0.20579   0.94798   0.00000  Uiso   1.00
C461   C     0.04455   0.19805   0.50324   0.00000  Uiso   1.00
C462   C     0.12599   0.15000   0.99712   0.00000  Uiso   1.00
C463   C     0.08999   0.16954   0.52772   0.00000  Uiso   1.00
C464   C     0.32780   0.05354   0.60140   0.00000  Uiso   1.00
C465   C     0.04377   0.04455   0.57460   0.00000  Uiso   1.00
C466   C     0.11214   0.15458   0.94047   0.00000  Uiso   1.00
C467   C     0.17895   0.13029   0.52177   0.00000  Uiso   1.00
C468   C     0.20699   0.10080   0.99079   0.00000  Uiso   1.00
C469   C     0.19728   0.11068   0.93594   0.00000  Uiso   1.00
C470   C     0.15613   0.14571   0.91429   0.00000  Uiso   1.00
C471   C     0.21148   0.14994   0.57163   0.00000  Uiso   1.00
C472   C     0.28419   0.08885   0.57051   0.00000  Uiso   1.00
H473   H     0.26802   0.04240   0.99611   0.00000  Uiso   1.00
H474   H     0.19557   0.18139   0.59128   0.00000  Uiso   1.00
H475   H     0.09932   0.16629   0.57119   0.00000  Uiso   1.00
H476   H     0.02194   0.21849   0.52838   0.00000  Uiso   1.00
H477   H     0.06968   0.08098   0.57432   0.00000  Uiso   1.00
H478   H     0.07240   0.01666   0.59796   0.00000  Uiso   1.00
H479   H     0.02759   0.02823   0.53256   0.00000  Uiso   1.00
H480   H     0.01326   0.06775   0.64368   0.00000  Uiso   1.00
H481   H     0.30464   0.01569   0.60361   0.00000  Uiso   1.00
I482   I     0.25824   0.33097   0.81056   0.00000  Uiso   1.00
I483   I     0.15586   0.08683   0.69205   0.00000  Uiso   1.00
I484   I     0.17013   0.24634   0.72051   0.00000  Uiso   1.00
I485   I     0.26555   0.09917   0.90045   0.00000  Uiso   1.00
I486   I     0.00287   0.27775   0.92835   0.00000  Uiso   1.00
I487   I     0.18820   0.21456   0.88528   0.00000  Uiso   1.00
I488   I     0.10718   0.01038   0.81742   0.00000  Uiso   1.00
N489   N     0.14493   0.15223   0.73543   0.00000  Uiso   1.00
N490   N     0.18840   0.18110   0.76458   0.00000  Uiso   1.00
O491   O     0.29769   0.24629   0.75358   0.00000  Uiso   1.00
O492   O     0.05742   0.23704   0.74424   0.00000  Uiso   1.00
O493   O     0.31490   0.17358   0.83380   0.00000  Uiso   1.00
O494   O     0.07463   0.16433   0.82446   0.00000  Uiso   1.00
O495   O     0.27592   0.09629   0.75577   0.00000  Uiso   1.00
O496   O     0.03565   0.08704   0.74643   0.00000  Uiso   1.00
O497   O     0.25870   0.16901   0.67554   0.00000  Uiso   1.00
O498   O     0.01843   0.15976   0.66620   0.00000  Uiso   1.00
Zn499  Zn    0.27119   0.17284   0.75624   0.00000  Uiso   1.00
Zn500  Zn    0.06214   0.16049   0.74377   0.00000  Uiso   1.00
C501   C     0.34903   0.26485   0.75217   0.00000  Uiso   1.00
C502   C     0.39501   0.17854   0.91464   0.00000  Uiso   1.00
C503   C     0.35996   0.31972   0.76276   0.00000  Uiso   1.00
C504   C     0.37157   0.17330   0.85448   0.00000  Uiso   1.00
C505   C     0.64827   0.01504   0.76191   0.00000  Uiso   1.00
C506   C     0.65308   0.06886   0.75346   0.00000  Uiso   1.00
C507   C     0.62824   0.15574   0.64777   0.00000  Uiso   1.00
C508   C     0.58723   0.07362   0.51744   0.00000  Uiso   1.00
C509   C     0.59996   0.13317   0.59427   0.00000  Uiso   1.00
C510   C     0.36665   0.20579   0.94798   0.00000  Uiso   1.00
C511   C     0.37788   0.19805   0.50324   0.00000  Uiso   1.00
C512   C     0.45932   0.15000   0.99712   0.00000  Uiso   1.00
C513   C     0.42333   0.16954   0.52772   0.00000  Uiso   1.00
C514   C     0.66113   0.05354   0.60140   0.00000  Uiso   1.00
C515   C     0.37710   0.04455   0.57460   0.00000  Uiso   1.00
C516   C     0.44548   0.15458   0.94047   0.00000  Uiso   1.00
C517   C     0.51228   0.13029   0.52177   0.00000  Uiso   1.00
C518   C     0.54032   0.10080   0.99079   0.00000  Uiso   1.00
C519   C     0.53061   0.11068   0.93594   0.00000  Uiso   1.00
C520   C     0.48946   0.14571   0.91429   0.00000  Uiso   1.00
C521   C     0.54481   0.14994   0.57163   0.00000  Uiso   1.00
C522   C     0.61753   0.08885   0.57051   0.00000  Uiso   1.00
H523   H     0.60136   0.04240   0.99611   0.00000  Uiso   1.00
H524   H     0.52890   0.18139   0.59128   0.00000  Uiso   1.00
H525   H     0.43266   0.16629   0.57119   0.00000  Uiso   1.00
H526   H     0.35527   0.21849   0.52838   0.00000  Uiso   1.00
H527   H     0.40301   0.08098   0.57432   0.00000  Uiso   1.00
H528   H     0.40573   0.01666   0.59796   0.00000  Uiso   1.00
H529   H     0.36093   0.02823   0.53256   0.00000  Uiso   1.00
H530   H     0.34659   0.06775   0.64368   0.00000  Uiso   1.00
H531   H     0.63798   0.01569   0.60361   0.00000  Uiso   1.00
I532   I     0.59157   0.33097   0.81056   0.00000  Uiso   1.00
I533   I     0.48920   0.08683   0.69205   0.00000  Uiso   1.00
I534   I     0.50346   0.24634   0.72051   0.00000  Uiso   1.00
I535   I     0.59888   0.09917   0.90045   0.00000  Uiso   1.00
I536   I     0.33620   0.27775   0.92835   0.00000  Uiso   1.00
I537   I     0.52153   0.21456   0.88528   0.00000  Uiso   1.00
I538   I     0.44052   0.01038   0.81742   0.00000  Uiso   1.00
N539   N     0.47827   0.15223   0.73543   0.00000  Uiso   1.00
N540   N     0.52173   0.18110   0.76458   0.00000  Uiso   1.00
O541   O     0.63102   0.24629   0.75358   0.00000  Uiso   1.00
O542   O     0.39075   0.23704   0.74424   0.00000  Uiso   1.00
O543   O     0.64823   0.17358   0.83380   0.00000  Uiso   1.00
O544   O     0.40796   0.16433   0.82446   0.00000  Uiso   1.00
O545   O     0.60925   0.09629   0.75577   0.00000  Uiso   1.00
O546   O     0.36898   0.08704   0.74643   0.00000  Uiso   1.00
O547   O     0.59204   0.16901   0.67554   0.00000  Uiso   1.00
O548   O     0.35177   0.15976   0.66620   0.00000  Uiso   1.00
Zn549  Zn    0.60453   0.17284   0.75624   0.00000  Uiso   1.00
Zn550  Zn    0.39547   0.16049   0.74377   0.00000  Uiso   1.00
C551   C     0.68236   0.26485   0.75217   0.00000  Uiso   1.00
C552   C     0.72834   0.17854   0.91464   0.00000  Uiso   1.00
C553   C     0.69329   0.31972   0.76276   0.00000  Uiso   1.00
C554   C     0.70490   0.17330   0.85448   0.00000  Uiso   1.00
C555   C     0.98160   0.01504   0.76191   0.00000  Uiso   1.00
C556   C     0.98641   0.06886   0.75346   0.00000  Uiso   1.00
C557   C     0.96157   0.15574   0.64777   0.00000  Uiso   1.00
C558   C     0.92056   0.07362   0.51744   0.00000  Uiso   1.00
C559   C     0.93329   0.13317   0.59427   0.00000  Uiso   1.00
C560   C     0.69998   0.20579   0.94798   0.00000  Uiso   1.00
C561   C     0.71121   0.19805   0.50324   0.00000  Uiso   1.00
C562   C     0.79265   0.15000   0.99712   0.00000  Uiso   1.00
C563   C     0.75666   0.16954   0.52772   0.00000  Uiso   1.00
C564   C     0.99447   0.05354   0.60140   0.00000  Uiso   1.00
C565   C     0.71044   0.04455   0.57460   0.00000  Uiso   1.00
C566   C     0.77881   0.15458   0.94047   0.00000  Uiso   1.00
C567   C     0.84562   0.13029   0.52177   0.00000  Uiso   1.00
C568   C     0.87365   0.10080   0.99079   0.00000  Uiso   1.00
C569   C     0.86394   0.11068   0.93594   0.00000  Uiso   1.00
C570   C     0.82280   0.14571   0.91429   0.00000  Uiso   1.00
C571   C     0.87814   0.14994   0.57163   0.00000  Uiso   1.00
C572   C     0.95086   0.08885   0.57051   0.00000  Uiso   1.00
H573   H     0.93469   0.04240   0.99611   0.00000  Uiso   1.00
H574   H     0.86224   0.18139   0.59128   0.00000  Uiso   1.00
H575   H     0.76599   0.16629   0.57119   0.00000  Uiso   1.00
H576   H     0.68860   0.21849   0.52838   0.00000  Uiso   1.00
H577   H     0.73634   0.08098   0.57432   0.00000  Uiso   1.00
H578   H     0.73907   0.01666   0.59796   0.00000  Uiso   1.00
H579   H     0.69426   0.02823   0.53256   0.00000  Uiso   1.00
H580   H     0.67992   0.06775   0.64368   0.00000  Uiso   1.00
H581   H     0.97131   0.01569   0.60361   0.00000  Uiso   1.00
I582   I     0.92491   0.33097   0.81056   0.00000  Uiso   1.00
I583   I     0.82253   0.08683   0.69205   0.00000  Uiso   1.00
I584   I     0.83680   0.24634   0.72051   0.00000  Uiso   1.00
I585   I     0.93221   0.09917   0.90045   0.00000  Uiso   1.00
I586   I     0.66954   0.27775   0.92835   0.00000  Uiso   1.00
I587   I     0.85486   0.21456   0.88528   0.00000  Uiso   1.00
I588   I     0.77385   0.01038   0.81742   0.00000  Uiso   1.00
N589   N     0.81160   0.15223   0.73543   0.00000  Uiso   1.00
N590   N     0.85507   0.18110   0.76458   0.00000  Uiso   1.00
O591   O     0.96435   0.24629   0.75358   0.00000  Uiso   1.00
O592   O     0.72408   0.23704   0.74424   0.00000  Uiso   1.00
O593   O     0.98157   0.17358   0.83380   0.00000  Uiso   1.00
O594   O     0.74130   0.16433   0.82446   0.00000  Uiso   1.00
O595   O     0.94258   0.09629   0.75577   0.00000  Uiso   1.00
O596   O     0.70231   0.08704   0.74643   0.00000  Uiso   1.00
O597   O     0.92537   0.16901   0.67554   0.00000  Uiso   1.00
O598   O     0.68510   0.15976   0.66620   0.00000  Uiso   1.00
Zn599  Zn    0.93786   0.17284   0.75624   0.00000  Uiso   1.00
Zn600  Zn    0.72881   0.16049   0.74377   0.00000  Uiso   1.00
C601   C     0.01570   0.59819   0.75217   0.00000  Uiso   1.00
C602   C     0.06167   0.51188   0.91464   0.00000  Uiso   1.00
C603   C     0.02663   0.65305   0.76276   0.00000  Uiso   1.00
C604   C     0.03824   0.50664   0.85448   0.00000  Uiso   1.00
C605   C     0.31494   0.34838   0.76191   0.00000  Uiso   1.00
C606   C     0.31974   0.40220   0.75346   0.00000  Uiso   1.00
C607   C     0.29491   0.48907   0.64777   0.00000  Uiso   1.00
C608   C     0.25389   0.40696   0.51744   0.00000  Uiso   1.00
C609   C     0.26662   0.46651   0.59427   0.00000  Uiso   1.00
C610   C     0.03332   0.53913   0.94798   0.00000  Uiso   1.00
C611   C     0.04455   0.53139   0.50324   0.00000  Uiso   1.00
C612   C     0.12599   0.48334   0.99712   0.00000  Uiso   1.00
C613   C     0.08999   0.50287   0.52772   0.00000  Uiso   1.00
C614   C     0.32780   0.38687   0.60140   0.00000  Uiso   1.00
C615   C     0.04377   0.37788   0.57460   0.00000  Uiso   1.00
C616   C     0.11214   0.48791   0.94047   0.00000  Uiso   1.00
C617   C     0.17895   0.46363   0.52177   0.00000  Uiso   1.00
C618   C     0.20699   0.43413   0.99079   0.00000  Uiso   1.00
C619   C     0.19728   0.44401   0.93594   0.00000  Uiso   1.00
C620   C     0.15613   0.47904   0.91429   0.00000  Uiso   1.00
C621   C     0.21148   0.48327   0.57163   0.00000  Uiso   1.00
C622   C     0.28419   0.42219   0.57051   0.00000  Uiso   1.00
H623   H     0.26802   0.37574   0.99611   0.00000  Uiso   1.00
H624   H     0.19557   0.51472   0.59128   0.00000  Uiso   1.00
H625   H     0.09932   0.49962   0.57119   0.00000  Uiso   1.00
H626   H     0.02194   0.55182   0.52838   0.00000  Uiso   1.00
H627   H     0.06968   0.41431   0.57432   0.00000  Uiso   1.00
H628   H     0.07240   0.34999   0.59796   0.00000  Uiso   1.00
H629   H     0.02759   0.36157   0.53256   0.00000  Uiso   1.00
H630   H     0.01326   0.40109   0.64368   0.00000  Uiso   1.00
H631   H     0.30464   0.34903   0.60361   0.00000  Uiso   1.00
I632   I     0.25824   0.66431   0.81056   0.00000  Uiso   1.00
I633   I     0.15586   0.42016   0.69205   0.00000  Uiso   1.00
I634   I     0.17013   0.57967   0.72051   0.00000  Uiso   1.00
I635   I     0.26555   0.43250   0.90045   0.00000  Uiso   1.00
I636   I     0.00287   0.61108   0.92835   0.00000  Uiso   1.00
I637   I     0.18820   0.54789   0.88528   0.00000  Uiso   1.00
I638   I     0.10718   0.34371   0.81742   0.00000  Uiso   1.00
N639   N     0.14493   0.48556   0.73543   0.00000  Uiso   1.00
N640   N     0.18840   0.51444   0.76458   0.00000  Uiso   1.00
O641   O     0.29769   0.57963   0.75358   0.00000  Uiso   1.00
O642   O     0.05742   0.57038   0.74424   0.00000  Uiso   1.00
O643   O     0.31490   0.50691   0.83380   0.00000  Uiso   1.00
O644   O     0.07463   0.49766   0.82446   0.00000  Uiso   1.00
O645   O     0.27592   0.42962   0.75577   0.00000  Uiso   1.00
O646   O     0.03565   0.42037   0.74643   0.00000  Uiso   1.00
O647   O     0.25870   0.50234   0.67554   0.00000  Uiso   1.00
O648   O     0.01843   0.49309   0.66620   0.00000  Uiso   1.00
Zn649  Zn    0.27119   0.50618   0.75624   0.00000  Uiso   1.00
Zn650  Zn    0.06214   0.49382   0.74377   0.00000  Uiso   1.00
C651   C     0.34903   0.59819   0.75217   0.00000  Uiso   1.00
C652   C     0.39501   0.51188   0.91464   0.00000  Uiso   1.00
C653   C     0.35996   0.65305   0.76276   0.00000  Uiso   1.00
C654   C     0.37157   0.50664   0.85448   0.00000  Uiso   1.00
C655   C     0.64827   0.34838   0.76191   0.00000  Uiso   1.00
C656   C     0.65308   0.40220   0.75346   0.00000  Uiso   1.00
C657   C     0.62824   0.48907   0.64777   0.00000  Uiso   1.00
C658   C     0.58723   0.40696   0.51744   0.00000  Uiso   1.00
C659   C     0.59996   0.46651   0.59427   0.00000  Uiso   1.00
C660   C     0.36665   0.53913   0.94798   0.00000  Uiso   1.00
C661   C     0.37788   0.53139   0.50324   0.00000  Uiso   1.00
C662   C     0.45932   0.48334   0.99712   0.00000  Uiso   1.00
C663   C     0.42333   0.50287   0.52772   0.00000  Uiso   1.00
C664   C     0.66113   0.38687   0.60140   0.00000  Uiso   1.00
C665   C     0.37710   0.37788   0.57460   0.00000  Uiso   1.00
C666   C     0.44548   0.48791   0.94047   0.00000  Uiso   1.00
C667   C     0.51228   0.46363   0.52177   0.00000  Uiso   1.00
C668   C     0.54032   0.43413   0.99079   0.00000  Uiso   1.00
C669   C     0.53061   0.44401   0.93594   0.00000  Uiso   1.00
C670   C     0.48946   0.47904   0.91429   0.00000  Uiso   1.00
C671   C     0.54481   0.48327   0.57163   0.00000  Uiso   1.00
C672   C     0.61753   0.42219   0.57051   0.00000  Uiso   1.00
H673   H     0.60136   0.37574   0.99611   0.00000  Uiso   1.00
H674   H     0.52890   0.51472   0.59128   0.00000  Uiso   1.00
H675   H     0.43266   0.49962   0.57119   0.00000  Uiso   1.00
H676   H     0.35527   0.55182   0.52838   0.00000  Uiso   1.00
H677   H     0.40301   0.41431   0.57432   0.00000  Uiso   1.00
H678   H     0.40573   0.34999   0.59796   0.00000  Uiso   1.00
H679   H     0.36093   0.36157   0.53256   0.00000  Uiso   1.00
H680   H     0.34659   0.40109   0.64368   0.00000  Uiso   1.00
H681   H     0.63798   0.34903   0.60361   0.00000  Uiso   1.00
I682   I     0.59157   0.66431   0.81056   0.00000  Uiso   1.00
I683   I     0.48920   0.42016   0.69205   0.00000  Uiso   1.00
I684   I     0.50346   0.57967   0.72051   0.00000  Uiso   1.00
I685   I     0.59888   0.43250   0.90045   0.00000  Uiso   1.00
I686   I     0.33620   0.61108   0.92835   0.00000  Uiso   1.00
I687   I     0.52153   0.54789   0.88528   0.00000  Uiso   1.00
I688   I     0.44052   0.34371   0.81742   0.00000  Uiso   1.00
N689   N     0.47827   0.48556   0.73543   0.00000  Uiso   1.00
N690   N     0.52173   0.51444   0.76458   0.00000  Uiso   1.00
O691   O     0.63102   0.57963   0.75358   0.00000  Uiso   1.00
O692   O     0.39075   0.57038   0.74424   0.00000  Uiso   1.00
O693   O     0.64823   0.50691   0.83380   0.00000  Uiso   1.00
O694   O     0.40796   0.49766   0.82446   0.00000  Uiso   1.00
O695   O     0.60925   0.42962   0.75577   0.00000  Uiso   1.00
O696   O     0.36898   0.42037   0.74643   0.00000  Uiso   1.00
O697   O     0.59204   0.50234   0.67554   0.00000  Uiso   1.00
O698   O     0.35177   0.49309   0.66620   0.00000  Uiso   1.00
Zn699  Zn    0.60453   0.50618   0.75624   0.00000  Uiso   1.00
Zn700  Zn    0.39547   0.49382   0.74377   0.00000  Uiso   1.00
C701   C     0.68236   0.59819   0.75217   0.00000  Uiso   1.00
C702   C     0.72834   0.51188   0.91464   0.00000  Uiso   1.00
C703   C     0.69329   0.65305   0.76276   0.00000  Uiso   1.00
C704   C     0.70490   0.50664   0.85448   0.00000  Uiso   1.00
C705   C     0.98160   0.34838   0.76191   0.00000  Uiso   1.00
C706   C     0.98641   0.40220   0.75346   0.00000  Uiso   1.00
C707   C     0.96157   0.48907   0.64777   0.00000  Uiso   1.00
C708   C     0.92056   0.40696   0.51744   0.00000  Uiso   1.00
C709   C     0.93329   0.46651   0.59427   0.00000  Uiso   1.00
C710   C     0.69998   0.53913   0.94798   0.00000  Uiso   1.00
C711   C     0.71121   0.53139   0.50324   0.00000  Uiso   1.00
C712   C     0.79265   0.48334   0.99712   0.00000  Uiso   1.00
C713   C     0.75666   0.50287   0.52772   0.00000  Uiso   1.00
C714   C     0.99447   0.38687   0.60140   0.00000  Uiso   1.00
C715   C     0.71044   0.37788   0.57460   0.00000  Uiso   1.00
C716   C     0.77881   0.48791   0.94047   0.00000  Uiso   1.00
C717   C     0.84562   0.46363   0.52177   0.00000  Uiso   1.00
C718   C     0.87365   0.43413   0.99079   0.00000  Uiso   1.00
C719   C     0.86394   0.44401   0.93594   0.00000  Uiso   1.00
C720   C     0.82280   0.47904   0.91429   0.00000  Uiso   1.00
C721   C     0.87814   0.48327   0.57163   0.00000  Uiso   1.00
C722   C     0.95086   0.42219   0.57051   0.00000  Uiso   1.00
H723   H     0.93469   0.37574   0.99611   0.00000  Uiso   1.00
H724   H     0.86224   0.51472   0.59128   0.00000  Uiso   1.00
H725   H     0.76599   0.49962   0.57119   0.00000  Uiso   1.00
H726   H     0.68860   0.55182   0.52838   0.00000  Uiso   1.00
H727   H     0.73634   0.41431   0.57432   0.00000  Uiso   1.00
H728   H     0.73907   0.34999   0.59796   0.00000  Uiso   1.00
H729   H     0.69426   0.36157   0.53256   0.00000  Uiso   1.00
H730   H     0.67992   0.40109   0.64368   0.00000  Uiso   1.00
H731   H     0.97131   0.34903   0.60361   0.00000  Uiso   1.00
I732   I     0.92491   0.66431   0.81056   0.00000  Uiso   1.00
I733   I     0.82253   0.42016   0.69205   0.00000  Uiso   1.00
I734   I     0.83680   0.57967   0.72051   0.00000  Uiso   1.00
I735   I     0.93221   0.43250   0.90045   0.00000  Uiso   1.00
I736   I     0.66954   0.61108   0.92835   0.00000  Uiso   1.00
I737   I     0.85486   0.54789   0.88528   0.00000  Uiso   1.00
I738   I     0.77385   0.34371   0.81742   0.00000  Uiso   1.00
N739   N     0.81160   0.48556   0.73543   0.00000  Uiso   1.00
N740   N     0.85507   0.51444   0.76458   0.00000  Uiso   1.00
O741   O     0.96435   0.57963   0.75358   0.00000  Uiso   1.00
O742   O     0.72408   0.57038   0.74424   0.00000  Uiso   1.00
O743   O     0.98157   0.50691   0.83380   0.00000  Uiso   1.00
O744   O     0.74130   0.49766   0.82446   0.00000  Uiso   1.00
O745   O     0.94258   0.42962   0.75577   0.00000  Uiso   1.00
O746   O     0.70231   0.42037   0.74643   0.00000  Uiso   1.00
O747   O     0.92537   0.50234   0.67554   0.00000  Uiso   1.00
O748   O     0.68510   0.49309   0.66620   0.00000  Uiso   1.00
Zn749  Zn    0.93786   0.50618   0.75624   0.00000  Uiso   1.00
Zn750  Zn    0.72881   0.49382   0.74377   0.00000  Uiso   1.00
C751   C     0.01570   0.93152   0.75217   0.00000  Uiso   1.00
C752   C     0.06167   0.84521   0.91464   0.00000  Uiso   1.00
C753   C     0.02663   0.98638   0.76276   0.00000  Uiso   1.00
C754   C     0.03824   0.83997   0.85448   0.00000  Uiso   1.00
C755   C     0.31494   0.68171   0.76191   0.00000  Uiso   1.00
C756   C     0.31974   0.73553   0.75346   0.00000  Uiso   1.00
C757   C     0.29491   0.82240   0.64777   0.00000  Uiso   1.00
C758   C     0.25389   0.74029   0.51744   0.00000  Uiso   1.00
C759   C     0.26662   0.79984   0.59427   0.00000  Uiso   1.00
C760   C     0.03332   0.87246   0.94798   0.00000  Uiso   1.00
C761   C     0.04455   0.86472   0.50324   0.00000  Uiso   1.00
C762   C     0.12599   0.81667   0.99712   0.00000  Uiso   1.00
C763   C     0.08999   0.83620   0.52772   0.00000  Uiso   1.00
C764   C     0.32780   0.72020   0.60140   0.00000  Uiso   1.00
C765   C     0.04377   0.71122   0.57460   0.00000  Uiso   1.00
C766   C     0.11214   0.82124   0.94047   0.00000  Uiso   1.00
C767   C     0.17895   0.79696   0.52177   0.00000  Uiso   1.00
C768   C     0.20699   0.76746   0.99079   0.00000  Uiso   1.00
C769   C     0.19728   0.77735   0.93594   0.00000  Uiso   1.00
C770   C     0.15613   0.81237   0.91429   0.00000  Uiso   1.00
C771   C     0.21148   0.81660   0.57163   0.00000  Uiso   1.00
C772   C     0.28419   0.75552   0.57051   0.00000  Uiso   1.00
H773   H     0.26802   0.70907   0.99611   0.00000  Uiso   1.00
H774   H     0.19557   0.84805   0.59128   0.00000  Uiso   1.00
H775   H     0.09932   0.83295   0.57119   0.00000  Uiso   1.00
H776   H     0.02194   0.88516   0.52838   0.00000  Uiso   1.00
H777   H     0.06968   0.74765   0.57432   0.00000  Uiso   1.00
H778   H     0.07240   0.68332   0.59796   0.00000  Uiso   1.00
H779   H     0.02759   0.69490   0.53256   0.00000  Uiso   1.00
H780   H     0.01326   0.73442   0.64368   0.00000  Uiso   1.00
H781   H     0.30464   0.68236   0.60361   0.00000  Uiso   1.00
I782   I     0.25824   0.99764   0.81056   0.00000  Uiso   1.00
I783   I     0.15586   0.75349   0.69205   0.00000  Uiso   1.00
I784   I     0.17013   0.91300   0.72051   0.00000  Uiso   1.00
I785   I     0.26555   0.76584   0.90045   0.00000  Uiso   1.00
I786   I     0.00287   0.94442   0.92835   0.00000  Uiso   1.00
I787   I     0.18820   0.88123   0.88528   0.00000  Uiso   1.00
I788   I     0.10718   0.67704   0.81742   0.00000  Uiso   1.00
N789   N     0.14493   0.81890   0.73543   0.00000  Uiso   1.00
N790   N     0.18840   0.84777   0.76458   0.00000  Uiso   1.00
O791   O     0.29769   0.91296   0.75358   0.00000  Uiso   1.00
O792   O     0.05742   0.90371   0.74424   0.00000  Uiso   1.00
O793   O     0.31490   0.84024   0.83380   0.00000  Uiso   1.00
O794   O     0.07463   0.83099   0.82446   0.00000  Uiso   1.00
O795   O     0.27592   0.76296   0.75577   0.00000  Uiso   1.00
O796   O     0.03565   0.75371   0.74643   0.00000  Uiso   1.00
O797   O     0.25870   0.83567   0.67554   0.00000  Uiso   1.00
O798   O     0.01843   0.82642   0.66620   0.00000  Uiso   1.00
Zn799  Zn    0.27119   0.83951   0.75624   0.00000  Uiso   1.00
Zn800  Zn    0.06214   0.82716   0.74377   0.00000  Uiso   1.00
C801   C     0.34903   0.93152   0.75217   0.00000  Uiso   1.00
C802   C     0.39501   0.84521   0.91464   0.00000  Uiso   1.00
C803   C     0.35996   0.98638   0.76276   0.00000  Uiso   1.00
C804   C     0.37157   0.83997   0.85448   0.00000  Uiso   1.00
C805   C     0.64827   0.68171   0.76191   0.00000  Uiso   1.00
C806   C     0.65308   0.73553   0.75346   0.00000  Uiso   1.00
C807   C     0.62824   0.82240   0.64777   0.00000  Uiso   1.00
C808   C     0.58723   0.74029   0.51744   0.00000  Uiso   1.00
C809   C     0.59996   0.79984   0.59427   0.00000  Uiso   1.00
C810   C     0.36665   0.87246   0.94798   0.00000  Uiso   1.00
C811   C     0.37788   0.86472   0.50324   0.00000  Uiso   1.00
C812   C     0.45932   0.81667   0.99712   0.00000  Uiso   1.00
C813   C     0.42333   0.83620   0.52772   0.00000  Uiso   1.00
C814   C     0.66113   0.72020   0.60140   0.00000  Uiso   1.00
C815   C     0.37710   0.71122   0.57460   0.00000  Uiso   1.00
C816   C     0.44548   0.82124   0.94047   0.00000  Uiso   1.00
C817   C     0.51228   0.79696   0.52177   0.00000  Uiso   1.00
C818   C     0.54032   0.76746   0.99079   0.00000  Uiso   1.00
C819   C     0.53061   0.77735   0.93594   0.00000  Uiso   1.00
C820   C     0.48946   0.81237   0.91429   0.00000  Uiso   1.00
C821   C     0.54481   0.81660   0.57163   0.00000  Uiso   1.00
C822   C     0.61753   0.75552   0.57051   0.00000  Uiso   1.00
H823   H     0.60136   0.70907   0.99611   0.00000  Uiso   1.00
H824   H     0.52890   0.84805   0.59128   0.00000  Uiso   1.00
H825   H     0.43266   0.83295   0.57119   0.00000  Uiso   1.00
H826   H     0.35527   0.88516   0.52838   0.00000  Uiso   1.00
H827   H     0.40301   0.74765   0.57432   0.00000  Uiso   1.00
H828   H     0.40573   0.68332   0.59796   0.00000  Uiso   1.00
H829   H     0.36093   0.69490   0.53256   0.00000  Uiso   1.00
H830   H     0.34659   0.73442   0.64368   0.00000  Uiso   1.00
H831   H     0.63798   0.68236   0.60361   0.00000  Uiso   1.00
I832   I     0.59157   0.99764   0.81056   0.00000  Uiso   1.00
I833   I     0.48920   0.75349   0.69205   0.00000  Uiso   1.00
I834   I     0.50346   0.91300   0.72051   0.00000  Uiso   1.00
I835   I     0.59888   0.76584   0.90045   0.00000  Uiso   1.00
I836   I     0.33620   0.94442   0.92835   0.00000  Uiso   1.00
I837   I     0.52153   0.88123   0.88528   0.00000  Uiso   1.00
I838   I     0.44052   0.67704   0.81742   0.00000  Uiso   1.00
N839   N     0.47827   0.81890   0.73543   0.00000  Uiso   1.00
N840   N     0.52173   0.84777   0.76458   0.00000  Uiso   1.00
O841   O     0.63102   0.91296   0.75358   0.00000  Uiso   1.00
O842   O     0.39075   0.90371   0.74424   0.00000  Uiso   1.00
O843   O     0.64823   0.84024   0.83380   0.00000  Uiso   1.00
O844   O     0.40796   0.83099   0.82446   0.00000  Uiso   1.00
O845   O     0.60925   0.76296   0.75577   0.00000  Uiso   1.00
O846   O     0.36898   0.75371   0.74643   0.00000  Uiso   1.00
O847   O     0.59204   0.83567   0.67554   0.00000  Uiso   1.00
O848   O     0.35177   0.82642   0.66620   0.00000  Uiso   1.00
Zn849  Zn    0.60453   0.83951   0.75624   0.00000  Uiso   1.00
Zn850  Zn    0.39547   0.82716   0.74377   0.00000  Uiso   1.00
C851   C     0.68236   0.93152   0.75217   0.00000  Uiso   1.00
C852   C     0.72834   0.84521   0.91464   0.00000  Uiso   1.00
C853   C     0.69329   0.98638   0.76276   0.00000  Uiso   1.00
C854   C     0.70490   0.83997   0.85448   0.00000  Uiso   1.00
C855   C     0.98160   0.68171   0.76191   0.00000  Uiso   1.00
C856   C     0.98641   0.73553   0.75346   0.00000  Uiso   1.00
C857   C     0.96157   0.82240   0.64777   0.00000  Uiso   1.00
C858   C     0.92056   0.74029   0.51744   0.00000  Uiso   1.00
C859   C     0.93329   0.79984   0.59427   0.00000  Uiso   1.00
C860   C     0.69998   0.87246   0.94798   0.00000  Uiso   1.00
C861   C     0.71121   0.86472   0.50324   0.00000  Uiso   1.00
C862   C     0.79265   0.81667   0.99712   0.00000  Uiso   1.00
C863   C     0.75666   0.83620   0.52772   0.00000  Uiso   1.00
C864   C     0.99447   0.72020   0.60140   0.00000  Uiso   1.00
C865   C     0.71044   0.71122   0.57460   0.00000  Uiso   1.00
C866   C     0.77881   0.82124   0.94047   0.00000  Uiso   1.00
C867   C     0.84562   0.79696   0.52177   0.00000  Uiso   1.00
C868   C     0.87365   0.76746   0.99079   0.00000  Uiso   1.00
C869   C     0.86394   0.77735   0.93594   0.00000  Uiso   1.00
C870   C     0.82280   0.81237   0.91429   0.00000  Uiso   1.00
C871   C     0.87814   0.81660   0.57163   0.00000  Uiso   1.00
C872   C     0.95086   0.75552   0.57051   0.00000  Uiso   1.00
H873   H     0.93469   0.70907   0.99611   0.00000  Uiso   1.00
H874   H     0.86224   0.84805   0.59128   0.00000  Uiso   1.00
H875   H     0.76599   0.83295   0.57119   0.00000  Uiso   1.00
H876   H     0.68860   0.88516   0.52838   0.00000  Uiso   1.00
H877   H     0.73634   0.74765   0.57432   0.00000  Uiso   1.00
H878   H     0.73907   0.68332   0.59796   0.00000  Uiso   1.00
H879   H     0.69426   0.69490   0.53256   0.00000  Uiso   1.00
H880   H     0.67992   0.73442   0.64368   0.00000  Uiso   1.00
H881   H     0.97131   0.68236   0.60361   0.00000  Uiso   1.00
I882   I     0.92491   0.99764   0.81056   0.00000  Uiso   1.00
I883   I     0.82253   0.75349   0.69205   0.00000  Uiso   1.00
I884   I     0.83680   0.91300   0.72051   0.00000  Uiso   1.00
I885   I     0.93221   0.76584   0.90045   0.00000  Uiso   1.00
I886   I     0.66954   0.94442   0.92835   0.00000  Uiso   1.00
I887   I     0.85486   0.88123   0.88528   0.00000  Uiso   1.00
I888   I     0.77385   0.67704   0.81742   0.00000  Uiso   1.00
N889   N     0.81160   0.81890   0.73543   0.00000  Uiso   1.00
N890   N     0.85507   0.84777   0.76458   0.00000  Uiso   1.00
O891   O     0.96435   0.91296   0.75358   0.00000  Uiso   1.00
O892   O     0.72408   0.90371   0.74424   0.00000  Uiso   1.00
O893   O     0.98157   0.84024   0.83380   0.00000  Uiso   1.00
O894   O     0.74130   0.83099   0.82446   0.00000  Uiso   1.00
O895   O     0.94258   0.76296   0.75577   0.00000  Uiso   1.00
O896   O     0.70231   0.75371   0.74643   0.00000  Uiso   1.00
O897   O     0.92537   0.83567   0.67554   0.00000  Uiso   1.00
O898   O     0.68510   0.82642   0.66620   0.00000  Uiso   1.00
Zn899  Zn    0.93786   0.83951   0.75624   0.00000  Uiso   1.00
Zn900  Zn    0.72881   0.82716   0.74377   0.00000  Uiso   1.00
loop_
_geom_bond_atom_site_label_1
_geom_bond_atom_site_label_2
_geom_bond_distance
_geom_bond_site_symmetry_2
_ccdc_geom_bond_type
C1     O42     1.318   .     A
C1     C3      1.443   .     S
C1     O141    1.302   1_455 S
C2     C16     1.413   .     A
C2     C4      1.496   .     S
C2     C10     1.412   .     A
C3     C255    1.342   1_455 S
C3     I188    2.123   .     S
C4     O44     1.321   .     A
C4     O143    1.326   1_455 S
C5     C6      1.427   .     S
C5     C353    1.342   1_545 S
C5     I332    2.094   1_545 S
C6     O45     1.315   .     A
C6     O96     1.299   .     S
C7     C9      1.453   .     S
C7     O47     1.303   .     A
C7     O98     1.319   .     S
C8     C22     1.400   .     A
C8     C468    1.401   1_554 S
C8     H473    1.081   1_554 S
C9     C21     1.402   .     A
C9     C22     1.421   .     A
C10    I36     2.081   .     S
C10    C461    1.391   .     S
C11    C13     1.381   .     A
C11    H26     1.083   .     S
C11    C460    1.391   1_554 S
C12    C16     1.410   .     A
C12    C463    1.404   .     S
C12    C467    1.400   .     S
C13    H25     1.082   .     S
C13    C462    1.404   1_554 S
C14    H31     1.112   .     S
C14    C22     1.517   .     S
C14    C65     1.528   .     S
C14    H80     1.103   .     S
C15    H28     1.110   .     S
C15    H29     1.108   .     S
C15    H27     1.103   .     S
C15    C114    1.528   1_455 S
C16    C20     1.405   .     A
C17    C21     1.380   .     A
C17    C462    1.400   1_554 S
C17    C468    1.398   1_554 S
C18    C19     1.394   .     A
C18    C458    1.401   .     S
C18    C467    1.398   .     S
C19    C20     1.404   .     A
C19    I35     2.086   .     S
C20    I37     2.133   .     S
C21    H24     1.084   .     S
H23    C458    1.081   .     S
H30    C114    1.103   1_455 S
I32    C155    2.094   .     S
I33    N39     2.069   .     S
I34    N40     2.073   .     S
I38    C303    2.123   1_545 S
N39    Zn50    2.066   .     S
N39    N40     1.299   .     D
N40    Zn49    2.066   .     S
O41    Zn49    1.988   .     S
O41    C51     1.302   .     S
O42    Zn50    2.004   .     S
O43    Zn49    1.993   .     S
O43    C54     1.326   .     S
O44    Zn50    2.004   .     S
O45    Zn49    2.004   .     S
O46    Zn50    1.988   .     S
O46    C106    1.299   1_455 S
O47    Zn49    2.004   .     S
O48    Zn50    1.993   .     S
O48    C107    1.319   1_455 S
C51    O92     1.318   .     A
C51    C53     1.443   .     S
C52    C66     1.413   .     A
C52    C54     1.496   .     S
C52    C60     1.412   .     A
C53    C155    1.342   .     S
C53    I238    2.123   .     S
C54    O94     1.321   .     A
C55    C56     1.427   .     S
C55    C403    1.342   1_545 S
C55    I382    2.094   1_545 S
C56    O95     1.315   .     A
C56    O146    1.299   .     S
C57    C59     1.453   .     S
C57    O97     1.303   .     A
C57    O148    1.319   .     S
C58    C72     1.400   .     A
C58    C518    1.401   1_554 S
C58    H523    1.081   1_554 S
C59    C71     1.402   .     A
C59    C72     1.421   .     A
C60    I86     2.081   .     S
C60    C511    1.391   .     S
C61    C63     1.381   .     A
C61    H76     1.083   .     S
C61    C510    1.391   1_554 S
C62    C66     1.410   .     A
C62    C513    1.404   .     S
C62    C517    1.400   .     S
C63    H75     1.082   .     S
C63    C512    1.404   1_554 S
C64    H81     1.112   .     S
C64    C72     1.517   .     S
C64    C115    1.528   .     S
C64    H130    1.103   .     S
C65    H78     1.110   .     S
C65    H79     1.108   .     S
C65    H77     1.103   .     S
C66    C70     1.405   .     A
C67    C71     1.380   .     A
C67    C512    1.400   1_554 S
C67    C518    1.398   1_554 S
C68    C69     1.394   .     A
C68    C508    1.401   .     S
C68    C517    1.398   .     S
C69    C70     1.404   .     A
C69    I85     2.086   .     S
C70    I87     2.133   .     S
C71    H74     1.084   .     S
H73    C508    1.081   .     S
I82    C205    2.094   .     S
I83    N89     2.069   .     S
I84    N90     2.073   .     S
I88    C353    2.123   1_545 S
N89    Zn100   2.066   .     S
N89    N90     1.299   .     D
N90    Zn99    2.066   .     S
O91    Zn99    1.988   .     S
O91    C101    1.302   .     S
O92    Zn100   2.004   .     S
O93    Zn99    1.993   .     S
O93    C104    1.326   .     S
O94    Zn100   2.004   .     S
O95    Zn99    2.004   .     S
O96    Zn100   1.988   .     S
O97    Zn99    2.004   .     S
O98    Zn100   1.993   .     S
C101   O142    1.318   .     A
C101   C103    1.443   .     S
C102   C116    1.413   .     A
C102   C104    1.496   .     S
C102   C110    1.412   .     A
C103   C205    1.342   .     S
C103   I288    2.123   .     S
C104   O144    1.321   .     A
C105   C106    1.427   .     S
C105   C303    1.342   1_645 S
C105   I432    2.094   1_545 S
C106   O145    1.315   .     A
C106   O46     1.299   1_655 S
C107   C109    1.453   .     S
C107   O147    1.303   .     A
C107   O48     1.319   1_655 S
C108   C122    1.400   .     A
C108   C568    1.401   1_554 S
C108   H573    1.081   1_554 S
C109   C121    1.402   .     A
C109   C122    1.421   .     A
C110   I136    2.081   .     S
C110   C561    1.391   .     S
C111   C113    1.381   .     A
C111   H126    1.083   .     S
C111   C560    1.391   1_554 S
C112   C116    1.410   .     A
C112   C563    1.404   .     S
C112   C567    1.400   .     S
C113   H125    1.082   .     S
C113   C562    1.404   1_554 S
C114   H131    1.112   .     S
C114   C122    1.517   .     S
C114   C15     1.528   1_655 S
C114   H30     1.103   1_655 S
C115   H128    1.110   .     S
C115   H129    1.108   .     S
C115   H127    1.103   .     S
C116   C120    1.405   .     A
C117   C121    1.380   .     A
C117   C562    1.400   1_554 S
C117   C568    1.398   1_554 S
C118   C119    1.394   .     A
C118   C558    1.401   .     S
C118   C567    1.398   .     S
C119   C120    1.404   .     A
C119   I135    2.086   .     S
C120   I137    2.133   .     S
C121   H124    1.084   .     S
H123   C558    1.081   .     S
I132   C255    2.094   .     S
I133   N139    2.069   .     S
I134   N140    2.073   .     S
I138   C403    2.123   1_545 S
N139   Zn150   2.066   .     S
N139   N140    1.299   .     D
N140   Zn149   2.066   .     S
O141   Zn149   1.988   .     S
O141   C1      1.302   1_655 S
O142   Zn150   2.004   .     S
O143   Zn149   1.993   .     S
O143   C4      1.326   1_655 S
O144   Zn150   2.004   .     S
O145   Zn149   2.004   .     S
O146   Zn150   1.988   .     S
O147   Zn149   2.004   .     S
O148   Zn150   1.993   .     S
C151   O192    1.318   .     A
C151   C153    1.443   .     S
C151   O291    1.302   1_455 S
C152   C166    1.413   .     A
C152   C154    1.496   .     S
C152   C160    1.412   .     A
C153   C405    1.342   1_455 S
C153   I338    2.123   .     S
C154   O194    1.321   .     A
C154   O293    1.326   1_455 S
C155   C156    1.427   .     S
C156   O195    1.315   .     A
C156   O246    1.299   .     S
C157   C159    1.453   .     S
C157   O197    1.303   .     A
C157   O248    1.319   .     S
C158   C172    1.400   .     A
C158   C618    1.401   1_554 S
C158   H623    1.081   1_554 S
C159   C171    1.402   .     A
C159   C172    1.421   .     A
C160   I186    2.081   .     S
C160   C611    1.391   .     S
C161   C163    1.381   .     A
C161   H176    1.083   .     S
C161   C610    1.391   1_554 S
C162   C166    1.410   .     A
C162   C613    1.404   .     S
C162   C617    1.400   .     S
C163   H175    1.082   .     S
C163   C612    1.404   1_554 S
C164   H181    1.112   .     S
C164   C172    1.517   .     S
C164   C215    1.528   .     S
C164   H230    1.103   .     S
C165   H178    1.110   .     S
C165   H179    1.108   .     S
C165   H177    1.103   .     S
C165   C264    1.528   1_455 S
C166   C170    1.405   .     A
C167   C171    1.380   .     A
C167   C612    1.400   1_554 S
C167   C618    1.398   1_554 S
C168   C169    1.394   .     A
C168   C608    1.401   .     S
C168   C617    1.398   .     S
C169   C170    1.404   .     A
C169   I185    2.086   .     S
C170   I187    2.133   .     S
C171   H174    1.084   .     S
H173   C608    1.081   .     S
H180   C264    1.103   1_455 S
I182   C305    2.094   .     S
I183   N189    2.069   .     S
I184   N190    2.073   .     S
N189   Zn200   2.066   .     S
N189   N190    1.299   .     D
N190   Zn199   2.066   .     S
O191   Zn199   1.988   .     S
O191   C201    1.302   .     S
O192   Zn200   2.004   .     S
O193   Zn199   1.993   .     S
O193   C204    1.326   .     S
O194   Zn200   2.004   .     S
O195   Zn199   2.004   .     S
O196   Zn200   1.988   .     S
O196   C256    1.299   1_455 S
O197   Zn199   2.004   .     S
O198   Zn200   1.993   .     S
O198   C257    1.319   1_455 S
C201   O242    1.318   .     A
C201   C203    1.443   .     S
C202   C216    1.413   .     A
C202   C204    1.496   .     S
C202   C210    1.412   .     A
C203   C305    1.342   .     S
C203   I388    2.123   .     S
C204   O244    1.321   .     A
C205   C206    1.427   .     S
C206   O245    1.315   .     A
C206   O296    1.299   .     S
C207   C209    1.453   .     S
C207   O247    1.303   .     A
C207   O298    1.319   .     S
C208   C222    1.400   .     A
C208   C668    1.401   1_554 S
C208   H673    1.081   1_554 S
C209   C221    1.402   .     A
C209   C222    1.421   .     A
C210   I236    2.081   .     S
C210   C661    1.391   .     S
C211   C213    1.381   .     A
C211   H226    1.083   .     S
C211   C660    1.391   1_554 S
C212   C216    1.410   .     A
C212   C663    1.404   .     S
C212   C667    1.400   .     S
C213   H225    1.082   .     S
C213   C662    1.404   1_554 S
C214   H231    1.112   .     S
C214   C222    1.517   .     S
C214   C265    1.528   .     S
C214   H280    1.103   .     S
C215   H228    1.110   .     S
C215   H229    1.108   .     S
C215   H227    1.103   .     S
C216   C220    1.405   .     A
C217   C221    1.380   .     A
C217   C662    1.400   1_554 S
C217   C668    1.398   1_554 S
C218   C219    1.394   .     A
C218   C658    1.401   .     S
C218   C667    1.398   .     S
C219   C220    1.404   .     A
C219   I235    2.086   .     S
C220   I237    2.133   .     S
C221   H224    1.084   .     S
H223   C658    1.081   .     S
I232   C355    2.094   .     S
I233   N239    2.069   .     S
I234   N240    2.073   .     S
N239   Zn250   2.066   .     S
N239   N240    1.299   .     D
N240   Zn249   2.066   .     S
O241   Zn249   1.988   .     S
O241   C251    1.302   .     S
O242   Zn250   2.004   .     S
O243   Zn249   1.993   .     S
O243   C254    1.326   .     S
O244   Zn250   2.004   .     S
O245   Zn249   2.004   .     S
O246   Zn250   1.988   .     S
O247   Zn249   2.004   .     S
O248   Zn250   1.993   .     S
C251   O292    1.318   .     A
C251   C253    1.443   .     S
C252   C266    1.413   .     A
C252   C254    1.496   .     S
C252   C260    1.412   .     A
C253   C355    1.342   .     S
C253   I438    2.123   .     S
C254   O294    1.321   .     A
C255   C256    1.427   .     S
C255   C3      1.342   1_655 S
C256   O295    1.315   .     A
C256   O196    1.299   1_655 S
C257   C259    1.453   .     S
C257   O297    1.303   .     A
C257   O198    1.319   1_655 S
C258   C272    1.400   .     A
C258   C718    1.401   1_554 S
C258   H723    1.081   1_554 S
C259   C271    1.402   .     A
C259   C272    1.421   .     A
C260   I286    2.081   .     S
C260   C711    1.391   .     S
C261   C263    1.381   .     A
C261   H276    1.083   .     S
C261   C710    1.391   1_554 S
C262   C266    1.410   .     A
C262   C713    1.404   .     S
C262   C717    1.400   .     S
C263   H275    1.082   .     S
C263   C712    1.404   1_554 S
C264   H281    1.112   .     S
C264   C272    1.517   .     S
C264   C165    1.528   1_655 S
C264   H180    1.103   1_655 S
C265   H278    1.110   .     S
C265   H279    1.108   .     S
C265   H277    1.103   .     S
C266   C270    1.405   .     A
C267   C271    1.380   .     A
C267   C712    1.400   1_554 S
C267   C718    1.398   1_554 S
C268   C269    1.394   .     A
C268   C708    1.401   .     S
C268   C717    1.398   .     S
C269   C270    1.404   .     A
C269   I285    2.086   .     S
C270   I287    2.133   .     S
C271   H274    1.084   .     S
H273   C708    1.081   .     S
I282   C405    2.094   .     S
I283   N289    2.069   .     S
I284   N290    2.073   .     S
N289   Zn300   2.066   .     S
N289   N290    1.299   .     D
N290   Zn299   2.066   .     S
O291   Zn299   1.988   .     S
O291   C151    1.302   1_655 S
O292   Zn300   2.004   .     S
O293   Zn299   1.993   .     S
O293   C154    1.326   1_655 S
O294   Zn300   2.004   .     S
O295   Zn299   2.004   .     S
O296   Zn300   1.988   .     S
O297   Zn299   2.004   .     S
O298   Zn300   1.993   .     S
C301   O342    1.318   .     A
C301   C303    1.443   .     S
C301   O441    1.302   1_455 S
C302   C316    1.413   .     A
C302   C304    1.496   .     S
C302   C310    1.412   .     A
C303   C105    1.342   1_465 S
C303   I38     2.123   1_565 S
C304   O344    1.321   .     A
C304   O443    1.326   1_455 S
C305   C306    1.427   .     S
C306   O345    1.315   .     A
C306   O396    1.299   .     S
C307   C309    1.453   .     S
C307   O347    1.303   .     A
C307   O398    1.319   .     S
C308   C322    1.400   .     A
C308   C768    1.401   1_554 S
C308   H773    1.081   1_554 S
C309   C321    1.402   .     A
C309   C322    1.421   .     A
C310   I336    2.081   .     S
C310   C761    1.391   .     S
C311   C313    1.381   .     A
C311   H326    1.083   .     S
C311   C760    1.391   1_554 S
C312   C316    1.410   .     A
C312   C763    1.404   .     S
C312   C767    1.400   .     S
C313   H325    1.082   .     S
C313   C762    1.404   1_554 S
C314   H331    1.112   .     S
C314   C322    1.517   .     S
C314   C365    1.528   .     S
C314   H380    1.103   .     S
C315   H328    1.110   .     S
C315   H329    1.108   .     S
C315   H327    1.103   .     S
C315   C414    1.528   1_455 S
C316   C320    1.405   .     A
C317   C321    1.380   .     A
C317   C762    1.400   1_554 S
C317   C768    1.398   1_554 S
C318   C319    1.394   .     A
C318   C758    1.401   .     S
C318   C767    1.398   .     S
C319   C320    1.404   .     A
C319   I335    2.086   .     S
C320   I337    2.133   .     S
C321   H324    1.084   .     S
H323   C758    1.081   .     S
H330   C414    1.103   1_455 S
I332   C5      2.094   1_565 S
I333   N339    2.069   .     S
I334   N340    2.073   .     S
N339   Zn350   2.066   .     S
N339   N340    1.299   .     D
N340   Zn349   2.066   .     S
O341   Zn349   1.988   .     S
O341   C351    1.302   .     S
O342   Zn350   2.004   .     S
O343   Zn349   1.993   .     S
O343   C354    1.326   .     S
O344   Zn350   2.004   .     S
O345   Zn349   2.004   .     S
O346   Zn350   1.988   .     S
O346   C406    1.299   1_455 S
O347   Zn349   2.004   .     S
O348   Zn350   1.993   .     S
O348   C407    1.319   1_455 S
C351   O392    1.318   .     A
C351   C353    1.443   .     S
C352   C366    1.413   .     A
C352   C354    1.496   .     S
C352   C360    1.412   .     A
C353   C5      1.342   1_565 S
C353   I88     2.123   1_565 S
C354   O394    1.321   .     A
C355   C356    1.427   .     S
C356   O395    1.315   .     A
C356   O446    1.299   .     S
C357   C359    1.453   .     S
C357   O397    1.303   .     A
C357   O448    1.319   .     S
C358   C372    1.400   .     A
C358   C818    1.401   1_554 S
C358   H823    1.081   1_554 S
C359   C371    1.402   .     A
C359   C372    1.421   .     A
C360   I386    2.081   .     S
C360   C811    1.391   .     S
C361   C363    1.381   .     A
C361   H376    1.083   .     S
C361   C810    1.391   1_554 S
C362   C366    1.410   .     A
C362   C813    1.404   .     S
C362   C817    1.400   .     S
C363   H375    1.082   .     S
C363   C812    1.404   1_554 S
C364   H381    1.112   .     S
C364   C372    1.517   .     S
C364   C415    1.528   .     S
C364   H430    1.103   .     S
C365   H378    1.110   .     S
C365   H379    1.108   .     S
C365   H377    1.103   .     S
C366   C370    1.405   .     A
C367   C371    1.380   .     A
C367   C812    1.400   1_554 S
C367   C818    1.398   1_554 S
C368   C369    1.394   .     A
C368   C808    1.401   .     S
C368   C817    1.398   .     S
C369   C370    1.404   .     A
C369   I385    2.086   .     S
C370   I387    2.133   .     S
C371   H374    1.084   .     S
H373   C808    1.081   .     S
I382   C55     2.094   1_565 S
I383   N389    2.069   .     S
I384   N390    2.073   .     S
N389   Zn400   2.066   .     S
N389   N390    1.299   .     D
N390   Zn399   2.066   .     S
O391   Zn399   1.988   .     S
O391   C401    1.302   .     S
O392   Zn400   2.004   .     S
O393   Zn399   1.993   .     S
O393   C404    1.326   .     S
O394   Zn400   2.004   .     S
O395   Zn399   2.004   .     S
O396   Zn400   1.988   .     S
O397   Zn399   2.004   .     S
O398   Zn400   1.993   .     S
C401   O442    1.318   .     A
C401   C403    1.443   .     S
C402   C416    1.413   .     A
C402   C404    1.496   .     S
C402   C410    1.412   .     A
C403   C55     1.342   1_565 S
C403   I138    2.123   1_565 S
C404   O444    1.321   .     A
C405   C406    1.427   .     S
C405   C153    1.342   1_655 S
C406   O445    1.315   .     A
C406   O346    1.299   1_655 S
C407   C409    1.453   .     S
C407   O447    1.303   .     A
C407   O348    1.319   1_655 S
C408   C422    1.400   .     A
C408   C868    1.401   1_554 S
C408   H873    1.081   1_554 S
C409   C421    1.402   .     A
C409   C422    1.421   .     A
C410   I436    2.081   .     S
C410   C861    1.391   .     S
C411   C413    1.381   .     A
C411   H426    1.083   .     S
C411   C860    1.391   1_554 S
C412   C416    1.410   .     A
C412   C863    1.404   .     S
C412   C867    1.400   .     S
C413   H425    1.082   .     S
C413   C862    1.404   1_554 S
C414   H431    1.112   .     S
C414   C422    1.517   .     S
C414   C315    1.528   1_655 S
C414   H330    1.103   1_655 S
C415   H428    1.110   .     S
C415   H429    1.108   .     S
C415   H427    1.103   .     S
C416   C420    1.405   .     A
C417   C421    1.380   .     A
C417   C862    1.400   1_554 S
C417   C868    1.398   1_554 S
C418   C419    1.394   .     A
C418   C858    1.401   .     S
C418   C867    1.398   .     S
C419   C420    1.404   .     A
C419   I435    2.086   .     S
C420   I437    2.133   .     S
C421   H424    1.084   .     S
H423   C858    1.081   .     S
I432   C105    2.094   1_565 S
I433   N439    2.069   .     S
I434   N440    2.073   .     S
N439   Zn450   2.066   .     S
N439   N440    1.299   .     D
N440   Zn449   2.066   .     S
O441   Zn449   1.988   .     S
O441   C301    1.302   1_655 S
O442   Zn450   2.004   .     S
O443   Zn449   1.993   .     S
O443   C304    1.326   1_655 S
O444   Zn450   2.004   .     S
O445   Zn449   2.004   .     S
O446   Zn450   1.988   .     S
O447   Zn449   2.004   .     S
O448   Zn450   1.993   .     S
C451   O492    1.318   .     A
C451   C453    1.443   .     S
C451   O591    1.302   1_455 S
C452   C466    1.413   .     A
C452   C454    1.496   .     S
C452   C460    1.412   .     A
C453   C705    1.342   1_455 S
C453   I638    2.123   .     S
C454   O494    1.321   .     A
C454   O593    1.326   1_455 S
C455   C456    1.427   .     S
C455   C803    1.342   1_545 S
C455   I782    2.094   1_545 S
C456   O495    1.315   .     A
C456   O546    1.299   .     S
C457   C459    1.453   .     S
C457   O497    1.303   .     A
C457   O548    1.319   .     S
C458   C472    1.400   .     A
C459   C471    1.402   .     A
C459   C472    1.421   .     A
C460   I486    2.081   .     S
C460   C11     1.391   1_556 S
C461   C463    1.381   .     A
C461   H476    1.083   .     S
C462   C466    1.410   .     A
C462   C13     1.404   1_556 S
C462   C17     1.400   1_556 S
C463   H475    1.082   .     S
C464   H481    1.112   .     S
C464   C472    1.517   .     S
C464   C515    1.528   .     S
C464   H530    1.103   .     S
C465   H478    1.110   .     S
C465   H479    1.108   .     S
C465   H477    1.103   .     S
C465   C564    1.528   1_455 S
C466   C470    1.405   .     A
C467   C471    1.380   .     A
C468   C469    1.394   .     A
C468   C8      1.401   1_556 S
C468   C17     1.398   1_556 S
C469   C470    1.404   .     A
C469   I485    2.086   .     S
C470   I487    2.133   .     S
C471   H474    1.084   .     S
H473   C8      1.081   1_556 S
H480   C564    1.103   1_455 S
I482   C605    2.094   .     S
I483   N489    2.069   .     S
I484   N490    2.073   .     S
I488   C753    2.123   1_545 S
N489   Zn500   2.066   .     S
N489   N490    1.299   .     D
N490   Zn499   2.066   .     S
O491   Zn499   1.988   .     S
O491   C501    1.302   .     S
O492   Zn500   2.004   .     S
O493   Zn499   1.993   .     S
O493   C504    1.326   .     S
O494   Zn500   2.004   .     S
O495   Zn499   2.004   .     S
O496   Zn500   1.988   .     S
O496   C556    1.299   1_455 S
O497   Zn499   2.004   .     S
O498   Zn500   1.993   .     S
O498   C557    1.319   1_455 S
C501   O542    1.318   .     A
C501   C503    1.443   .     S
C502   C516    1.413   .     A
C502   C504    1.496   .     S
C502   C510    1.412   .     A
C503   C605    1.342   .     S
C503   I688    2.123   .     S
C504   O544    1.321   .     A
C505   C506    1.427   .     S
C505   C853    1.342   1_545 S
C505   I832    2.094   1_545 S
C506   O545    1.315   .     A
C506   O596    1.299   .     S
C507   C509    1.453   .     S
C507   O547    1.303   .     A
C507   O598    1.319   .     S
C508   C522    1.400   .     A
C509   C521    1.402   .     A
C509   C522    1.421   .     A
C510   I536    2.081   .     S
C510   C61     1.391   1_556 S
C511   C513    1.381   .     A
C511   H526    1.083   .     S
C512   C516    1.410   .     A
C512   C63     1.404   1_556 S
C512   C67     1.400   1_556 S
C513   H525    1.082   .     S
C514   H531    1.112   .     S
C514   C522    1.517   .     S
C514   C565    1.528   .     S
C514   H580    1.103   .     S
C515   H528    1.110   .     S
C515   H529    1.108   .     S
C515   H527    1.103   .     S
C516   C520    1.405   .     A
C517   C521    1.380   .     A
C518   C519    1.394   .     A
C518   C58     1.401   1_556 S
C518   C67     1.398   1_556 S
C519   C520    1.404   .     A
C519   I535    2.086   .     S
C520   I537    2.133   .     S
C521   H524    1.084   .     S
H523   C58     1.081   1_556 S
I532   C655    2.094   .     S
I533   N539    2.069   .     S
I534   N540    2.073   .     S
I538   C803    2.123   1_545 S
N539   Zn550   2.066   .     S
N539   N540    1.299   .     D
N540   Zn549   2.066   .     S
O541   Zn549   1.988   .     S
O541   C551    1.302   .     S
O542   Zn550   2.004   .     S
O543   Zn549   1.993   .     S
O543   C554    1.326   .     S
O544   Zn550   2.004   .     S
O545   Zn549   2.004   .     S
O546   Zn550   1.988   .     S
O547   Zn549   2.004   .     S
O548   Zn550   1.993   .     S
C551   O592    1.318   .     A
C551   C553    1.443   .     S
C552   C566    1.413   .     A
C552   C554    1.496   .     S
C552   C560    1.412   .     A
C553   C655    1.342   .     S
C553   I738    2.123   .     S
C554   O594    1.321   .     A
C555   C556    1.427   .     S
C555   C753    1.342   1_645 S
C555   I882    2.094   1_545 S
C556   O595    1.315   .     A
C556   O496    1.299   1_655 S
C557   C559    1.453   .     S
C557   O597    1.303   .     A
C557   O498    1.319   1_655 S
C558   C572    1.400   .     A
C559   C571    1.402   .     A
C559   C572    1.421   .     A
C560   I586    2.081   .     S
C560   C111    1.391   1_556 S
C561   C563    1.381   .     A
C561   H576    1.083   .     S
C562   C566    1.410   .     A
C562   C113    1.404   1_556 S
C562   C117    1.400   1_556 S
C563   H575    1.082   .     S
C564   H581    1.112   .     S
C564   C572    1.517   .     S
C564   C465    1.528   1_655 S
C564   H480    1.103   1_655 S
C565   H578    1.110   .     S
C565   H579    1.108   .     S
C565   H577    1.103   .     S
C566   C570    1.405   .     A
C567   C571    1.380   .     A
C568   C569    1.394   .     A
C568   C108    1.401   1_556 S
C568   C117    1.398   1_556 S
C569   C570    1.404   .     A
C569   I585    2.086   .     S
C570   I587    2.133   .     S
C571   H574    1.084   .     S
H573   C108    1.081   1_556 S
I582   C705    2.094   .     S
I583   N589    2.069   .     S
I584   N590    2.073   .     S
I588   C853    2.123   1_545 S
N589   Zn600   2.066   .     S
N589   N590    1.299   .     D
N590   Zn599   2.066   .     S
O591   Zn599   1.988   .     S
O591   C451    1.302   1_655 S
O592   Zn600   2.004   .     S
O593   Zn599   1.993   .     S
O593   C454    1.326   1_655 S
O594   Zn600   2.004   .     S
O595   Zn599   2.004   .     S
O596   Zn600   1.988   .     S
O597   Zn599   2.004   .     S
O598   Zn600   1.993   .     S
C601   O642    1.318   .     A
C601   C603    1.443   .     S
C601   O741    1.302   1_455 S
C602   C616    1.413   .     A
C602   C604    1.496   .     S
C602   C610    1.412   .     A
C603   C855    1.342   1_455 S
C603   I788    2.123   .     S
C604   O644    1.321   .     A
C604   O743    1.326   1_455 S
C605   C606    1.427   .     S
C606   O645    1.315   .     A
C606   O696    1.299   .     S
C607   C609    1.453   .     S
C607   O647    1.303   .     A
C607   O698    1.319   .     S
C608   C622    1.400   .     A
C609   C621    1.402   .     A
C609   C622    1.421   .     A
C610   I636    2.081   .     S
C610   C161    1.391   1_556 S
C611   C613    1.381   .     A
C611   H626    1.083   .     S
C612   C616    1.410   .     A
C612   C163    1.404   1_556 S
C612   C167    1.400   1_556 S
C613   H625    1.082   .     S
C614   H631    1.112   .     S
C614   C622    1.517   .     S
C614   C665    1.528   .     S
C614   H680    1.103   .     S
C615   H628    1.110   .     S
C615   H629    1.108   .     S
C615   H627    1.103   .     S
C615   C714    1.528   1_455 S
C616   C620    1.405   .     A
C617   C621    1.380   .     A
C618   C619    1.394   .     A
C618   C158    1.401   1_556 S
C618   C167    1.398   1_556 S
C619   C620    1.404   .     A
C619   I635    2.086   .     S
C620   I637    2.133   .     S
C621   H624    1.084   .     S
H623   C158    1.081   1_556 S
H630   C714    1.103   1_455 S
I632   C755    2.094   .     S
I633   N639    2.069   .     S
I634   N640    2.073   .     S
N639   Zn650   2.066   .     S
N639   N640    1.299   .     D
N640   Zn649   2.066   .     S
O641   Zn649   1.988   .     S
O641   C651    1.302   .     S
O642   Zn650   2.004   .     S
O643   Zn649   1.993   .     S
O643   C654    1.326   .     S
O644   Zn650   2.004   .     S
O645   Zn649   2.004   .     S
O646   Zn650   1.988   .     S
O646   C706    1.299   1_455 S
O647   Zn649   2.004   .     S
O648   Zn650   1.993   .     S
O648   C707    1.319   1_455 S
C651   O692    1.318   .     A
C651   C653    1.443   .     S
C652   C666    1.413   .     A
C652   C654    1.496   .     S
C652   C660    1.412   .     A
C653   C755    1.342   .     S
C653   I838    2.123   .     S
C654   O694    1.321   .     A
C655   C656    1.427   .     S
C656   O695    1.315   .     A
C656   O746    1.299   .     S
C657   C659    1.453   .     S
C657   O697    1.303   .     A
C657   O748    1.319   .     S
C658   C672    1.400   .     A
C659   C671    1.402   .     A
C659   C672    1.421   .     A
C660   I686    2.081   .     S
C660   C211    1.391   1_556 S
C661   C663    1.381   .     A
C661   H676    1.083   .     S
C662   C666    1.410   .     A
C662   C213    1.404   1_556 S
C662   C217    1.400   1_556 S
C663   H675    1.082   .     S
C664   H681    1.112   .     S
C664   C672    1.517   .     S
C664   C715    1.528   .     S
C664   H730    1.103   .     S
C665   H678    1.110   .     S
C665   H679    1.108   .     S
C665   H677    1.103   .     S
C666   C670    1.405   .     A
C667   C671    1.380   .     A
C668   C669    1.394   .     A
C668   C208    1.401   1_556 S
C668   C217    1.398   1_556 S
C669   C670    1.404   .     A
C669   I685    2.086   .     S
C670   I687    2.133   .     S
C671   H674    1.084   .     S
H673   C208    1.081   1_556 S
I682   C805    2.094   .     S
I683   N689    2.069   .     S
I684   N690    2.073   .     S
N689   Zn700   2.066   .     S
N689   N690    1.299   .     D
N690   Zn699   2.066   .     S
O691   Zn699   1.988   .     S
O691   C701    1.302   .     S
O692   Zn700   2.004   .     S
O693   Zn699   1.993   .     S
O693   C704    1.326   .     S
O694   Zn700   2.004   .     S
O695   Zn699   2.004   .     S
O696   Zn700   1.988   .     S
O697   Zn699   2.004   .     S
O698   Zn700   1.993   .     S
C701   O742    1.318   .     A
C701   C703    1.443   .     S
C702   C716    1.413   .     A
C702   C704    1.496   .     S
C702   C710    1.412   .     A
C703   C805    1.342   .     S
C703   I888    2.123   .     S
C704   O744    1.321   .     A
C705   C706    1.427   .     S
C705   C453    1.342   1_655 S
C706   O745    1.315   .     A
C706   O646    1.299   1_655 S
C707   C709    1.453   .     S
C707   O747    1.303   .     A
C707   O648    1.319   1_655 S
C708   C722    1.400   .     A
C709   C721    1.402   .     A
C709   C722    1.421   .     A
C710   I736    2.081   .     S
C710   C261    1.391   1_556 S
C711   C713    1.381   .     A
C711   H726    1.083   .     S
C712   C716    1.410   .     A
C712   C263    1.404   1_556 S
C712   C267    1.400   1_556 S
C713   H725    1.082   .     S
C714   H731    1.112   .     S
C714   C722    1.517   .     S
C714   C615    1.528   1_655 S
C714   H630    1.103   1_655 S
C715   H728    1.110   .     S
C715   H729    1.108   .     S
C715   H727    1.103   .     S
C716   C720    1.405   .     A
C717   C721    1.380   .     A
C718   C719    1.394   .     A
C718   C258    1.401   1_556 S
C718   C267    1.398   1_556 S
C719   C720    1.404   .     A
C719   I735    2.086   .     S
C720   I737    2.133   .     S
C721   H724    1.084   .     S
H723   C258    1.081   1_556 S
I732   C855    2.094   .     S
I733   N739    2.069   .     S
I734   N740    2.073   .     S
N739   Zn750   2.066   .     S
N739   N740    1.299   .     D
N740   Zn749   2.066   .     S
O741   Zn749   1.988   .     S
O741   C601    1.302   1_655 S
O742   Zn750   2.004   .     S
O743   Zn749   1.993   .     S
O743   C604    1.326   1_655 S
O744   Zn750   2.004   .     S
O745   Zn749   2.004   .     S
O746   Zn750   1.988   .     S
O747   Zn749   2.004   .     S
O748   Zn750   1.993   .     S
C751   O792    1.318   .     A
C751   C753    1.443   .     S
C751   O891    1.302   1_455 S
C752   C766    1.413   .     A
C752   C754    1.496   .     S
C752   C760    1.412   .     A
C753   C555    1.342   1_465 S
C753   I488    2.123   1_565 S
C754   O794    1.321   .     A
C754   O893    1.326   1_455 S
C755   C756    1.427   .     S
C756   O795    1.315   .     A
C756   O846    1.299   .     S
C757   C759    1.453   .     S
C757   O797    1.303   .     A
C757   O848    1.319   .     S
C758   C772    1.400   .     A
C759   C771    1.402   .     A
C759   C772    1.421   .     A
C760   I786    2.081   .     S
C760   C311    1.391   1_556 S
C761   C763    1.381   .     A
C761   H776    1.083   .     S
C762   C766    1.410   .     A
C762   C313    1.404   1_556 S
C762   C317    1.400   1_556 S
C763   H775    1.082   .     S
C764   H781    1.112   .     S
C764   C772    1.517   .     S
C764   C815    1.528   .     S
C764   H830    1.103   .     S
C765   H778    1.110   .     S
C765   H779    1.108   .     S
C765   H777    1.103   .     S
C765   C864    1.528   1_455 S
C766   C770    1.405   .     A
C767   C771    1.380   .     A
C768   C769    1.394   .     A
C768   C308    1.401   1_556 S
C768   C317    1.398   1_556 S
C769   C770    1.404   .     A
C769   I785    2.086   .     S
C770   I787    2.133   .     S
C771   H774    1.084   .     S
H773   C308    1.081   1_556 S
H780   C864    1.103   1_455 S
I782   C455    2.094   1_565 S
I783   N789    2.069   .     S
I784   N790    2.073   .     S
N789   Zn800   2.066   .     S
N789   N790    1.299   .     D
N790   Zn799   2.066   .     S
O791   Zn799   1.988   .     S
O791   C801    1.302   .     S
O792   Zn800   2.004   .     S
O793   Zn799   1.993   .     S
O793   C804    1.326   .     S
O794   Zn800   2.004   .     S
O795   Zn799   2.004   .     S
O796   Zn800   1.988   .     S
O796   C856    1.299   1_455 S
O797   Zn799   2.004   .     S
O798   Zn800   1.993   .     S
O798   C857    1.319   1_455 S
C801   O842    1.318   .     A
C801   C803    1.443   .     S
C802   C816    1.413   .     A
C802   C804    1.496   .     S
C802   C810    1.412   .     A
C803   C455    1.342   1_565 S
C803   I538    2.123   1_565 S
C804   O844    1.321   .     A
C805   C806    1.427   .     S
C806   O845    1.315   .     A
C806   O896    1.299   .     S
C807   C809    1.453   .     S
C807   O847    1.303   .     A
C807   O898    1.319   .     S
C808   C822    1.400   .     A
C809   C821    1.402   .     A
C809   C822    1.421   .     A
C810   I836    2.081   .     S
C810   C361    1.391   1_556 S
C811   C813    1.381   .     A
C811   H826    1.083   .     S
C812   C816    1.410   .     A
C812   C363    1.404   1_556 S
C812   C367    1.400   1_556 S
C813   H825    1.082   .     S
C814   H831    1.112   .     S
C814   C822    1.517   .     S
C814   C865    1.528   .     S
C814   H880    1.103   .     S
C815   H828    1.110   .     S
C815   H829    1.108   .     S
C815   H827    1.103   .     S
C816   C820    1.405   .     A
C817   C821    1.380   .     A
C818   C819    1.394   .     A
C818   C358    1.401   1_556 S
C818   C367    1.398   1_556 S
C819   C820    1.404   .     A
C819   I835    2.086   .     S
C820   I837    2.133   .     S
C821   H824    1.084   .     S
H823   C358    1.081   1_556 S
I832   C505    2.094   1_565 S
I833   N839    2.069   .     S
I834   N840    2.073   .     S
N839   Zn850   2.066   .     S
N839   N840    1.299   .     D
N840   Zn849   2.066   .     S
O841   Zn849   1.988   .     S
O841   C851    1.302   .     S
O842   Zn850   2.004   .     S
O843   Zn849   1.993   .     S
O843   C854    1.326   .     S
O844   Zn850   2.004   .     S
O845   Zn849   2.004   .     S
O846   Zn850   1.988   .     S
O847   Zn849   2.004   .     S
O848   Zn850   1.993   .     S
C851   O892    1.318   .     A
C851   C853    1.443   .     S
C852   C866    1.413   .     A
C852   C854    1.496   .     S
C852   C860    1.412   .     A
C853   C505    1.342   1_565 S
C853   I588    2.123   1_565 S
C854   O894    1.321   .     A
C855   C856    1.427   .     S
C855   C603    1.342   1_655 S
C856   O895    1.315   .     A
C856   O796    1.299   1_655 S
C857   C859    1.453   .     S
C857   O897    1.303   .     A
C857   O798    1.319   1_655 S
C858   C872    1.400   .     A
C859   C871    1.402   .     A
C859   C872    1.421   .     A
C860   I886    2.081   .     S
C860   C411    1.391   1_556 S
C861   C863    1.381   .     A
C861   H876    1.083   .     S
C862   C866    1.410   .     A
C862   C413    1.404   1_556 S
C862   C417    1.400   1_556 S
C863   H875    1.082   .     S
C864   H881    1.112   .     S
C864   C872    1.517   .     S
C864   C765    1.528   1_655 S
C864   H780    1.103   1_655 S
C865   H878    1.110   .     S
C865   H879    1.108   .     S
C865   H877    1.103   .     S
C866   C870    1.405   .     A
C867   C871    1.380   .     A
C868   C869    1.394   .     A
C868   C408    1.401   1_556 S
C868   C417    1.398   1_556 S
C869   C870    1.404   .     A
C869   I885    2.086   .     S
C870   I887    2.133   .     S
C871   H874    1.084   .     S
H873   C408    1.081   1_556 S
I882   C555    2.094   1_565 S
I883   N889    2.069   .     S
I884   N890    2.073   .     S
N889   Zn900   2.066   .     S
N889   N890    1.299   .     D
N890   Zn899   2.066   .     S
O891   Zn899   1.988   .     S
O891   C751    1.302   1_655 S
O892   Zn900   2.004   .     S
O893   Zn899   1.993   .     S
O893   C754    1.326   1_655 S
O894   Zn900   2.004   .     S
O895   Zn899   2.004   .     S
O896   Zn900   1.988   .     S
O897   Zn899   2.004   .     S
O898   Zn900   1.993   .     S
