data_str_m3_o1_o5_pcu_sym.73
_audit_creation_date              2020-01-03
_audit_creation_method            'Materials Studio'
_symmetry_space_group_name_H-M    'P1'
_symmetry_Int_Tables_number       1
_symmetry_cell_setting            triclinic
loop_
_symmetry_equiv_pos_as_xyz
  x,y,z
_cell_length_a                    31.8689
_cell_length_b                    29.9939
_cell_length_c                    26.7076
_cell_angle_alpha                 89.9330
_cell_angle_beta                  92.2319
_cell_angle_gamma                 89.9617
loop_
_atom_site_label
_atom_site_type_symbol
_atom_site_fract_x
_atom_site_fract_y
_atom_site_fract_z
_atom_site_U_iso_or_equiv
_atom_site_adp_type
_atom_site_occupancy
C1     C     0.08697   0.16670   0.16689   0.00000  Uiso   1.00
C2     C     0.02289   0.18277   0.20951   0.00000  Uiso   1.00
C3     C     0.29055   0.16658   0.16690   0.00000  Uiso   1.00
C4     C     0.04276   0.16675   0.16707   0.00000  Uiso   1.00
C5     C     0.19016   0.02358   0.20174   0.00000  Uiso   1.00
C6     C     0.14317   0.30975   0.13159   0.00000  Uiso   1.00
C7     C     0.14318   0.02367   0.13159   0.00000  Uiso   1.00
C8     C     0.19015   0.30966   0.20175   0.00000  Uiso   1.00
C9     C     0.24636   0.16665   0.16684   0.00000  Uiso   1.00
C10    C     0.16653   0.16668   0.07304   0.00000  Uiso   1.00
C11    C     0.16682   0.16665   0.26029   0.00000  Uiso   1.00
C12    C     0.16662   0.16669   0.02183   0.00000  Uiso   1.00
C13    C     0.16673   0.16665   0.31150   0.00000  Uiso   1.00
C14    C     0.02048   0.15051   0.12470   0.00000  Uiso   1.00
C15    C     0.31281   0.18269   0.20926   0.00000  Uiso   1.00
C16    C     0.31019   0.15035   0.12466   0.00000  Uiso   1.00
H17    H     0.03329   0.15446   0.05090   0.00000  Uiso   1.00
H18    H     0.11436   0.25805   0.10495   0.00000  Uiso   1.00
H19    H     0.11441   0.07545   0.10492   0.00000  Uiso   1.00
H20    H     0.21893   0.25789   0.22841   0.00000  Uiso   1.00
H21    H     0.03435   0.10199   0.07499   0.00000  Uiso   1.00
H22    H     0.30062   0.17870   0.28303   0.00000  Uiso   1.00
H23    H     0.29966   0.23107   0.25914   0.00000  Uiso   1.00
H24    H     0.29255   0.15393   0.05085   0.00000  Uiso   1.00
H25    H     0.29340   0.10156   0.07520   0.00000  Uiso   1.00
H26    H     0.06418   0.22561   0.24364   0.00000  Uiso   1.00
H27    H     0.06640   0.17253   0.26590   0.00000  Uiso   1.00
H28    H     0.21897   0.07528   0.22839   0.00000  Uiso   1.00
N29    N     0.16667   0.28573   0.16667   0.00000  Uiso   1.00
N30    N     0.16667   0.04760   0.16667   0.00000  Uiso   1.00
N31    N     0.04253   0.13520   0.08205   0.00000  Uiso   1.00
N32    N     0.29097   0.19799   0.25204   0.00000  Uiso   1.00
N33    N     0.28546   0.13474   0.08209   0.00000  Uiso   1.00
N34    N     0.04621   0.19802   0.25331   0.00000  Uiso   1.00
O35    O     0.10559   0.20487   0.16666   0.00000  Uiso   1.00
O36    O     0.11822   0.28925   0.09529   0.00000  Uiso   1.00
O37    O     0.11823   0.04426   0.09527   0.00000  Uiso   1.00
O38    O     0.21509   0.28907   0.23806   0.00000  Uiso   1.00
O39    O     0.22774   0.12846   0.16667   0.00000  Uiso   1.00
O40    O     0.22774   0.20487   0.16667   0.00000  Uiso   1.00
O41    O     0.10559   0.12846   0.16666   0.00000  Uiso   1.00
O42    O     0.16667   0.20488   0.09511   0.00000  Uiso   1.00
O43    O     0.16666   0.12845   0.23822   0.00000  Uiso   1.00
O44    O     0.16666   0.20488   0.23822   0.00000  Uiso   1.00
O45    O     0.16667   0.12845   0.09511   0.00000  Uiso   1.00
O46    O     0.21510   0.04408   0.23805   0.00000  Uiso   1.00
Zn47   Zn    0.16667   0.21771   0.16667   0.00000  Uiso   1.00
Zn48   Zn    0.16667   0.11563   0.16667   0.00000  Uiso   1.00
C49    C     0.42030   0.16670   0.16689   0.00000  Uiso   1.00
C50    C     0.35622   0.18277   0.20951   0.00000  Uiso   1.00
C51    C     0.62388   0.16658   0.16690   0.00000  Uiso   1.00
C52    C     0.37609   0.16675   0.16707   0.00000  Uiso   1.00
C53    C     0.52349   0.02358   0.20174   0.00000  Uiso   1.00
C54    C     0.47651   0.30975   0.13159   0.00000  Uiso   1.00
C55    C     0.47651   0.02367   0.13159   0.00000  Uiso   1.00
C56    C     0.52349   0.30966   0.20175   0.00000  Uiso   1.00
C57    C     0.57970   0.16665   0.16684   0.00000  Uiso   1.00
C58    C     0.49986   0.16668   0.07304   0.00000  Uiso   1.00
C59    C     0.50016   0.16665   0.26029   0.00000  Uiso   1.00
C60    C     0.49995   0.16669   0.02183   0.00000  Uiso   1.00
C61    C     0.50006   0.16665   0.31150   0.00000  Uiso   1.00
C62    C     0.35381   0.15051   0.12470   0.00000  Uiso   1.00
C63    C     0.64614   0.18269   0.20926   0.00000  Uiso   1.00
C64    C     0.64352   0.15035   0.12466   0.00000  Uiso   1.00
H65    H     0.36662   0.15446   0.05090   0.00000  Uiso   1.00
H66    H     0.44770   0.25805   0.10495   0.00000  Uiso   1.00
H67    H     0.44775   0.07545   0.10492   0.00000  Uiso   1.00
H68    H     0.55227   0.25789   0.22841   0.00000  Uiso   1.00
H69    H     0.36768   0.10199   0.07499   0.00000  Uiso   1.00
H70    H     0.63395   0.17870   0.28303   0.00000  Uiso   1.00
H71    H     0.63299   0.23107   0.25914   0.00000  Uiso   1.00
H72    H     0.62588   0.15393   0.05085   0.00000  Uiso   1.00
H73    H     0.62673   0.10156   0.07520   0.00000  Uiso   1.00
H74    H     0.39751   0.22561   0.24364   0.00000  Uiso   1.00
H75    H     0.39974   0.17253   0.26590   0.00000  Uiso   1.00
H76    H     0.55230   0.07528   0.22839   0.00000  Uiso   1.00
N77    N     0.50000   0.28573   0.16667   0.00000  Uiso   1.00
N78    N     0.50000   0.04760   0.16667   0.00000  Uiso   1.00
N79    N     0.37586   0.13520   0.08205   0.00000  Uiso   1.00
N80    N     0.62430   0.19799   0.25204   0.00000  Uiso   1.00
N81    N     0.61880   0.13474   0.08209   0.00000  Uiso   1.00
N82    N     0.37954   0.19802   0.25331   0.00000  Uiso   1.00
O83    O     0.43892   0.20487   0.16666   0.00000  Uiso   1.00
O84    O     0.45155   0.28925   0.09529   0.00000  Uiso   1.00
O85    O     0.45157   0.04426   0.09527   0.00000  Uiso   1.00
O86    O     0.54843   0.28907   0.23806   0.00000  Uiso   1.00
O87    O     0.56108   0.12846   0.16667   0.00000  Uiso   1.00
O88    O     0.56108   0.20487   0.16667   0.00000  Uiso   1.00
O89    O     0.43892   0.12846   0.16666   0.00000  Uiso   1.00
O90    O     0.50000   0.20488   0.09511   0.00000  Uiso   1.00
O91    O     0.50000   0.12845   0.23822   0.00000  Uiso   1.00
O92    O     0.50000   0.20488   0.23822   0.00000  Uiso   1.00
O93    O     0.50000   0.12845   0.09511   0.00000  Uiso   1.00
O94    O     0.54844   0.04408   0.23805   0.00000  Uiso   1.00
Zn95   Zn    0.50000   0.21771   0.16667   0.00000  Uiso   1.00
Zn96   Zn    0.50000   0.11563   0.16667   0.00000  Uiso   1.00
C97    C     0.75363   0.16670   0.16689   0.00000  Uiso   1.00
C98    C     0.68955   0.18277   0.20951   0.00000  Uiso   1.00
C99    C     0.95722   0.16658   0.16690   0.00000  Uiso   1.00
C100   C     0.70942   0.16675   0.16707   0.00000  Uiso   1.00
C101   C     0.85682   0.02358   0.20174   0.00000  Uiso   1.00
C102   C     0.80984   0.30975   0.13159   0.00000  Uiso   1.00
C103   C     0.80985   0.02367   0.13159   0.00000  Uiso   1.00
C104   C     0.85682   0.30966   0.20175   0.00000  Uiso   1.00
C105   C     0.91303   0.16665   0.16684   0.00000  Uiso   1.00
C106   C     0.83320   0.16668   0.07304   0.00000  Uiso   1.00
C107   C     0.83349   0.16665   0.26029   0.00000  Uiso   1.00
C108   C     0.83329   0.16669   0.02183   0.00000  Uiso   1.00
C109   C     0.83340   0.16665   0.31150   0.00000  Uiso   1.00
C110   C     0.68714   0.15051   0.12470   0.00000  Uiso   1.00
C111   C     0.97947   0.18269   0.20926   0.00000  Uiso   1.00
C112   C     0.97686   0.15035   0.12466   0.00000  Uiso   1.00
H113   H     0.69996   0.15446   0.05090   0.00000  Uiso   1.00
H114   H     0.78103   0.25805   0.10495   0.00000  Uiso   1.00
H115   H     0.78108   0.07545   0.10492   0.00000  Uiso   1.00
H116   H     0.88560   0.25789   0.22841   0.00000  Uiso   1.00
H117   H     0.70101   0.10199   0.07499   0.00000  Uiso   1.00
H118   H     0.96729   0.17870   0.28303   0.00000  Uiso   1.00
H119   H     0.96632   0.23107   0.25914   0.00000  Uiso   1.00
H120   H     0.95921   0.15393   0.05085   0.00000  Uiso   1.00
H121   H     0.96006   0.10156   0.07520   0.00000  Uiso   1.00
H122   H     0.73085   0.22561   0.24364   0.00000  Uiso   1.00
H123   H     0.73307   0.17253   0.26590   0.00000  Uiso   1.00
H124   H     0.88563   0.07528   0.22839   0.00000  Uiso   1.00
N125   N     0.83333   0.28573   0.16667   0.00000  Uiso   1.00
N126   N     0.83333   0.04760   0.16667   0.00000  Uiso   1.00
N127   N     0.70919   0.13520   0.08205   0.00000  Uiso   1.00
N128   N     0.95763   0.19799   0.25204   0.00000  Uiso   1.00
N129   N     0.95213   0.13474   0.08209   0.00000  Uiso   1.00
N130   N     0.71287   0.19802   0.25331   0.00000  Uiso   1.00
O131   O     0.77226   0.20487   0.16666   0.00000  Uiso   1.00
O132   O     0.78489   0.28925   0.09529   0.00000  Uiso   1.00
O133   O     0.78490   0.04426   0.09527   0.00000  Uiso   1.00
O134   O     0.88176   0.28907   0.23806   0.00000  Uiso   1.00
O135   O     0.89441   0.12846   0.16667   0.00000  Uiso   1.00
O136   O     0.89441   0.20487   0.16667   0.00000  Uiso   1.00
O137   O     0.77226   0.12846   0.16666   0.00000  Uiso   1.00
O138   O     0.83334   0.20488   0.09511   0.00000  Uiso   1.00
O139   O     0.83333   0.12845   0.23822   0.00000  Uiso   1.00
O140   O     0.83333   0.20488   0.23822   0.00000  Uiso   1.00
O141   O     0.83334   0.12845   0.09511   0.00000  Uiso   1.00
O142   O     0.88177   0.04408   0.23805   0.00000  Uiso   1.00
Zn143  Zn    0.83333   0.21771   0.16667   0.00000  Uiso   1.00
Zn144  Zn    0.83333   0.11563   0.16667   0.00000  Uiso   1.00
C145   C     0.08697   0.50003   0.16689   0.00000  Uiso   1.00
C146   C     0.02289   0.51610   0.20951   0.00000  Uiso   1.00
C147   C     0.29055   0.49992   0.16690   0.00000  Uiso   1.00
C148   C     0.04276   0.50008   0.16707   0.00000  Uiso   1.00
C149   C     0.19016   0.35691   0.20174   0.00000  Uiso   1.00
C150   C     0.14317   0.64309   0.13159   0.00000  Uiso   1.00
C151   C     0.14318   0.35700   0.13159   0.00000  Uiso   1.00
C152   C     0.19015   0.64300   0.20175   0.00000  Uiso   1.00
C153   C     0.24636   0.49998   0.16684   0.00000  Uiso   1.00
C154   C     0.16653   0.50002   0.07304   0.00000  Uiso   1.00
C155   C     0.16682   0.49998   0.26029   0.00000  Uiso   1.00
C156   C     0.16662   0.50002   0.02183   0.00000  Uiso   1.00
C157   C     0.16673   0.49998   0.31150   0.00000  Uiso   1.00
C158   C     0.02048   0.48384   0.12470   0.00000  Uiso   1.00
C159   C     0.31281   0.51602   0.20926   0.00000  Uiso   1.00
C160   C     0.31019   0.48368   0.12466   0.00000  Uiso   1.00
H161   H     0.03329   0.48780   0.05090   0.00000  Uiso   1.00
H162   H     0.11436   0.59138   0.10495   0.00000  Uiso   1.00
H163   H     0.11441   0.40878   0.10492   0.00000  Uiso   1.00
H164   H     0.21893   0.59122   0.22841   0.00000  Uiso   1.00
H165   H     0.03435   0.43533   0.07499   0.00000  Uiso   1.00
H166   H     0.30062   0.51203   0.28303   0.00000  Uiso   1.00
H167   H     0.29966   0.56440   0.25914   0.00000  Uiso   1.00
H168   H     0.29255   0.48727   0.05085   0.00000  Uiso   1.00
H169   H     0.29340   0.43489   0.07520   0.00000  Uiso   1.00
H170   H     0.06418   0.55895   0.24364   0.00000  Uiso   1.00
H171   H     0.06640   0.50587   0.26590   0.00000  Uiso   1.00
H172   H     0.21897   0.40862   0.22839   0.00000  Uiso   1.00
N173   N     0.16667   0.61907   0.16667   0.00000  Uiso   1.00
N174   N     0.16667   0.38093   0.16667   0.00000  Uiso   1.00
N175   N     0.04253   0.46853   0.08205   0.00000  Uiso   1.00
N176   N     0.29097   0.53133   0.25204   0.00000  Uiso   1.00
N177   N     0.28546   0.46807   0.08209   0.00000  Uiso   1.00
N178   N     0.04621   0.53135   0.25331   0.00000  Uiso   1.00
O179   O     0.10559   0.53821   0.16666   0.00000  Uiso   1.00
O180   O     0.11822   0.62258   0.09529   0.00000  Uiso   1.00
O181   O     0.11823   0.37759   0.09527   0.00000  Uiso   1.00
O182   O     0.21509   0.62240   0.23806   0.00000  Uiso   1.00
O183   O     0.22774   0.46179   0.16667   0.00000  Uiso   1.00
O184   O     0.22774   0.53821   0.16667   0.00000  Uiso   1.00
O185   O     0.10559   0.46179   0.16666   0.00000  Uiso   1.00
O186   O     0.16667   0.53821   0.09511   0.00000  Uiso   1.00
O187   O     0.16666   0.46179   0.23822   0.00000  Uiso   1.00
O188   O     0.16666   0.53821   0.23822   0.00000  Uiso   1.00
O189   O     0.16667   0.46179   0.09511   0.00000  Uiso   1.00
O190   O     0.21510   0.37742   0.23805   0.00000  Uiso   1.00
Zn191  Zn    0.16667   0.55104   0.16667   0.00000  Uiso   1.00
Zn192  Zn    0.16667   0.44896   0.16667   0.00000  Uiso   1.00
C193   C     0.42030   0.50003   0.16689   0.00000  Uiso   1.00
C194   C     0.35622   0.51610   0.20951   0.00000  Uiso   1.00
C195   C     0.62388   0.49992   0.16690   0.00000  Uiso   1.00
C196   C     0.37609   0.50008   0.16707   0.00000  Uiso   1.00
C197   C     0.52349   0.35691   0.20174   0.00000  Uiso   1.00
C198   C     0.47651   0.64309   0.13159   0.00000  Uiso   1.00
C199   C     0.47651   0.35700   0.13159   0.00000  Uiso   1.00
C200   C     0.52349   0.64300   0.20175   0.00000  Uiso   1.00
C201   C     0.57970   0.49998   0.16684   0.00000  Uiso   1.00
C202   C     0.49986   0.50002   0.07304   0.00000  Uiso   1.00
C203   C     0.50016   0.49998   0.26029   0.00000  Uiso   1.00
C204   C     0.49995   0.50002   0.02183   0.00000  Uiso   1.00
C205   C     0.50006   0.49998   0.31150   0.00000  Uiso   1.00
C206   C     0.35381   0.48384   0.12470   0.00000  Uiso   1.00
C207   C     0.64614   0.51602   0.20926   0.00000  Uiso   1.00
C208   C     0.64352   0.48368   0.12466   0.00000  Uiso   1.00
H209   H     0.36662   0.48780   0.05090   0.00000  Uiso   1.00
H210   H     0.44770   0.59138   0.10495   0.00000  Uiso   1.00
H211   H     0.44775   0.40878   0.10492   0.00000  Uiso   1.00
H212   H     0.55227   0.59122   0.22841   0.00000  Uiso   1.00
H213   H     0.36768   0.43533   0.07499   0.00000  Uiso   1.00
H214   H     0.63395   0.51203   0.28303   0.00000  Uiso   1.00
H215   H     0.63299   0.56440   0.25914   0.00000  Uiso   1.00
H216   H     0.62588   0.48727   0.05085   0.00000  Uiso   1.00
H217   H     0.62673   0.43489   0.07520   0.00000  Uiso   1.00
H218   H     0.39751   0.55895   0.24364   0.00000  Uiso   1.00
H219   H     0.39974   0.50587   0.26590   0.00000  Uiso   1.00
H220   H     0.55230   0.40862   0.22839   0.00000  Uiso   1.00
N221   N     0.50000   0.61907   0.16667   0.00000  Uiso   1.00
N222   N     0.50000   0.38093   0.16667   0.00000  Uiso   1.00
N223   N     0.37586   0.46853   0.08205   0.00000  Uiso   1.00
N224   N     0.62430   0.53133   0.25204   0.00000  Uiso   1.00
N225   N     0.61880   0.46807   0.08209   0.00000  Uiso   1.00
N226   N     0.37954   0.53135   0.25331   0.00000  Uiso   1.00
O227   O     0.43892   0.53821   0.16666   0.00000  Uiso   1.00
O228   O     0.45155   0.62258   0.09529   0.00000  Uiso   1.00
O229   O     0.45157   0.37759   0.09527   0.00000  Uiso   1.00
O230   O     0.54843   0.62240   0.23806   0.00000  Uiso   1.00
O231   O     0.56108   0.46179   0.16667   0.00000  Uiso   1.00
O232   O     0.56108   0.53821   0.16667   0.00000  Uiso   1.00
O233   O     0.43892   0.46179   0.16666   0.00000  Uiso   1.00
O234   O     0.50000   0.53821   0.09511   0.00000  Uiso   1.00
O235   O     0.50000   0.46179   0.23822   0.00000  Uiso   1.00
O236   O     0.50000   0.53821   0.23822   0.00000  Uiso   1.00
O237   O     0.50000   0.46179   0.09511   0.00000  Uiso   1.00
O238   O     0.54844   0.37742   0.23805   0.00000  Uiso   1.00
Zn239  Zn    0.50000   0.55104   0.16667   0.00000  Uiso   1.00
Zn240  Zn    0.50000   0.44896   0.16667   0.00000  Uiso   1.00
C241   C     0.75363   0.50003   0.16689   0.00000  Uiso   1.00
C242   C     0.68955   0.51610   0.20951   0.00000  Uiso   1.00
C243   C     0.95722   0.49992   0.16690   0.00000  Uiso   1.00
C244   C     0.70942   0.50008   0.16707   0.00000  Uiso   1.00
C245   C     0.85682   0.35691   0.20174   0.00000  Uiso   1.00
C246   C     0.80984   0.64309   0.13159   0.00000  Uiso   1.00
C247   C     0.80985   0.35700   0.13159   0.00000  Uiso   1.00
C248   C     0.85682   0.64300   0.20175   0.00000  Uiso   1.00
C249   C     0.91303   0.49998   0.16684   0.00000  Uiso   1.00
C250   C     0.83320   0.50002   0.07304   0.00000  Uiso   1.00
C251   C     0.83349   0.49998   0.26029   0.00000  Uiso   1.00
C252   C     0.83329   0.50002   0.02183   0.00000  Uiso   1.00
C253   C     0.83340   0.49998   0.31150   0.00000  Uiso   1.00
C254   C     0.68714   0.48384   0.12470   0.00000  Uiso   1.00
C255   C     0.97947   0.51602   0.20926   0.00000  Uiso   1.00
C256   C     0.97686   0.48368   0.12466   0.00000  Uiso   1.00
H257   H     0.69996   0.48780   0.05090   0.00000  Uiso   1.00
H258   H     0.78103   0.59138   0.10495   0.00000  Uiso   1.00
H259   H     0.78108   0.40878   0.10492   0.00000  Uiso   1.00
H260   H     0.88560   0.59122   0.22841   0.00000  Uiso   1.00
H261   H     0.70101   0.43533   0.07499   0.00000  Uiso   1.00
H262   H     0.96729   0.51203   0.28303   0.00000  Uiso   1.00
H263   H     0.96632   0.56440   0.25914   0.00000  Uiso   1.00
H264   H     0.95921   0.48727   0.05085   0.00000  Uiso   1.00
H265   H     0.96006   0.43489   0.07520   0.00000  Uiso   1.00
H266   H     0.73085   0.55895   0.24364   0.00000  Uiso   1.00
H267   H     0.73307   0.50587   0.26590   0.00000  Uiso   1.00
H268   H     0.88563   0.40862   0.22839   0.00000  Uiso   1.00
N269   N     0.83333   0.61907   0.16667   0.00000  Uiso   1.00
N270   N     0.83333   0.38093   0.16667   0.00000  Uiso   1.00
N271   N     0.70919   0.46853   0.08205   0.00000  Uiso   1.00
N272   N     0.95763   0.53133   0.25204   0.00000  Uiso   1.00
N273   N     0.95213   0.46807   0.08209   0.00000  Uiso   1.00
N274   N     0.71287   0.53135   0.25331   0.00000  Uiso   1.00
O275   O     0.77226   0.53821   0.16666   0.00000  Uiso   1.00
O276   O     0.78489   0.62258   0.09529   0.00000  Uiso   1.00
O277   O     0.78490   0.37759   0.09527   0.00000  Uiso   1.00
O278   O     0.88176   0.62240   0.23806   0.00000  Uiso   1.00
O279   O     0.89441   0.46179   0.16667   0.00000  Uiso   1.00
O280   O     0.89441   0.53821   0.16667   0.00000  Uiso   1.00
O281   O     0.77226   0.46179   0.16666   0.00000  Uiso   1.00
O282   O     0.83334   0.53821   0.09511   0.00000  Uiso   1.00
O283   O     0.83333   0.46179   0.23822   0.00000  Uiso   1.00
O284   O     0.83333   0.53821   0.23822   0.00000  Uiso   1.00
O285   O     0.83334   0.46179   0.09511   0.00000  Uiso   1.00
O286   O     0.88177   0.37742   0.23805   0.00000  Uiso   1.00
Zn287  Zn    0.83333   0.55104   0.16667   0.00000  Uiso   1.00
Zn288  Zn    0.83333   0.44896   0.16667   0.00000  Uiso   1.00
C289   C     0.08697   0.83336   0.16689   0.00000  Uiso   1.00
C290   C     0.02289   0.84943   0.20951   0.00000  Uiso   1.00
C291   C     0.29055   0.83325   0.16690   0.00000  Uiso   1.00
C292   C     0.04276   0.83342   0.16707   0.00000  Uiso   1.00
C293   C     0.19016   0.69025   0.20174   0.00000  Uiso   1.00
C294   C     0.14317   0.97642   0.13159   0.00000  Uiso   1.00
C295   C     0.14318   0.69033   0.13159   0.00000  Uiso   1.00
C296   C     0.19015   0.97633   0.20175   0.00000  Uiso   1.00
C297   C     0.24636   0.83331   0.16684   0.00000  Uiso   1.00
C298   C     0.16653   0.83335   0.07304   0.00000  Uiso   1.00
C299   C     0.16682   0.83332   0.26029   0.00000  Uiso   1.00
C300   C     0.16662   0.83336   0.02183   0.00000  Uiso   1.00
C301   C     0.16673   0.83331   0.31150   0.00000  Uiso   1.00
C302   C     0.02048   0.81718   0.12470   0.00000  Uiso   1.00
C303   C     0.31281   0.84935   0.20926   0.00000  Uiso   1.00
C304   C     0.31019   0.81702   0.12466   0.00000  Uiso   1.00
H305   H     0.03329   0.82113   0.05090   0.00000  Uiso   1.00
H306   H     0.11436   0.92472   0.10495   0.00000  Uiso   1.00
H307   H     0.11441   0.74211   0.10492   0.00000  Uiso   1.00
H308   H     0.21893   0.92456   0.22841   0.00000  Uiso   1.00
H309   H     0.03435   0.76866   0.07499   0.00000  Uiso   1.00
H310   H     0.30062   0.84537   0.28303   0.00000  Uiso   1.00
H311   H     0.29966   0.89773   0.25914   0.00000  Uiso   1.00
H312   H     0.29255   0.82060   0.05085   0.00000  Uiso   1.00
H313   H     0.29340   0.76822   0.07520   0.00000  Uiso   1.00
H314   H     0.06418   0.89228   0.24364   0.00000  Uiso   1.00
H315   H     0.06640   0.83920   0.26590   0.00000  Uiso   1.00
H316   H     0.21897   0.74195   0.22839   0.00000  Uiso   1.00
N317   N     0.16667   0.95240   0.16667   0.00000  Uiso   1.00
N318   N     0.16667   0.71427   0.16667   0.00000  Uiso   1.00
N319   N     0.04253   0.80186   0.08205   0.00000  Uiso   1.00
N320   N     0.29097   0.86466   0.25204   0.00000  Uiso   1.00
N321   N     0.28546   0.80141   0.08209   0.00000  Uiso   1.00
N322   N     0.04621   0.86468   0.25331   0.00000  Uiso   1.00
O323   O     0.10559   0.87154   0.16666   0.00000  Uiso   1.00
O324   O     0.11822   0.95592   0.09529   0.00000  Uiso   1.00
O325   O     0.11823   0.71093   0.09527   0.00000  Uiso   1.00
O326   O     0.21509   0.95574   0.23806   0.00000  Uiso   1.00
O327   O     0.22774   0.79513   0.16667   0.00000  Uiso   1.00
O328   O     0.22774   0.87154   0.16667   0.00000  Uiso   1.00
O329   O     0.10559   0.79513   0.16666   0.00000  Uiso   1.00
O330   O     0.16667   0.87155   0.09511   0.00000  Uiso   1.00
O331   O     0.16666   0.79512   0.23822   0.00000  Uiso   1.00
O332   O     0.16666   0.87155   0.23822   0.00000  Uiso   1.00
O333   O     0.16667   0.79512   0.09511   0.00000  Uiso   1.00
O334   O     0.21510   0.71075   0.23805   0.00000  Uiso   1.00
Zn335  Zn    0.16667   0.88437   0.16667   0.00000  Uiso   1.00
Zn336  Zn    0.16667   0.78229   0.16667   0.00000  Uiso   1.00
C337   C     0.42030   0.83336   0.16689   0.00000  Uiso   1.00
C338   C     0.35622   0.84943   0.20951   0.00000  Uiso   1.00
C339   C     0.62388   0.83325   0.16690   0.00000  Uiso   1.00
C340   C     0.37609   0.83342   0.16707   0.00000  Uiso   1.00
C341   C     0.52349   0.69025   0.20174   0.00000  Uiso   1.00
C342   C     0.47651   0.97642   0.13159   0.00000  Uiso   1.00
C343   C     0.47651   0.69033   0.13159   0.00000  Uiso   1.00
C344   C     0.52349   0.97633   0.20175   0.00000  Uiso   1.00
C345   C     0.57970   0.83331   0.16684   0.00000  Uiso   1.00
C346   C     0.49986   0.83335   0.07304   0.00000  Uiso   1.00
C347   C     0.50016   0.83332   0.26029   0.00000  Uiso   1.00
C348   C     0.49995   0.83336   0.02183   0.00000  Uiso   1.00
C349   C     0.50006   0.83331   0.31150   0.00000  Uiso   1.00
C350   C     0.35381   0.81718   0.12470   0.00000  Uiso   1.00
C351   C     0.64614   0.84935   0.20926   0.00000  Uiso   1.00
C352   C     0.64352   0.81702   0.12466   0.00000  Uiso   1.00
H353   H     0.36662   0.82113   0.05090   0.00000  Uiso   1.00
H354   H     0.44770   0.92472   0.10495   0.00000  Uiso   1.00
H355   H     0.44775   0.74211   0.10492   0.00000  Uiso   1.00
H356   H     0.55227   0.92456   0.22841   0.00000  Uiso   1.00
H357   H     0.36768   0.76866   0.07499   0.00000  Uiso   1.00
H358   H     0.63395   0.84537   0.28303   0.00000  Uiso   1.00
H359   H     0.63299   0.89773   0.25914   0.00000  Uiso   1.00
H360   H     0.62588   0.82060   0.05085   0.00000  Uiso   1.00
H361   H     0.62673   0.76822   0.07520   0.00000  Uiso   1.00
H362   H     0.39751   0.89228   0.24364   0.00000  Uiso   1.00
H363   H     0.39974   0.83920   0.26590   0.00000  Uiso   1.00
H364   H     0.55230   0.74195   0.22839   0.00000  Uiso   1.00
N365   N     0.50000   0.95240   0.16667   0.00000  Uiso   1.00
N366   N     0.50000   0.71427   0.16667   0.00000  Uiso   1.00
N367   N     0.37586   0.80186   0.08205   0.00000  Uiso   1.00
N368   N     0.62430   0.86466   0.25204   0.00000  Uiso   1.00
N369   N     0.61880   0.80141   0.08209   0.00000  Uiso   1.00
N370   N     0.37954   0.86468   0.25331   0.00000  Uiso   1.00
O371   O     0.43892   0.87154   0.16666   0.00000  Uiso   1.00
O372   O     0.45155   0.95592   0.09529   0.00000  Uiso   1.00
O373   O     0.45157   0.71093   0.09527   0.00000  Uiso   1.00
O374   O     0.54843   0.95574   0.23806   0.00000  Uiso   1.00
O375   O     0.56108   0.79513   0.16667   0.00000  Uiso   1.00
O376   O     0.56108   0.87154   0.16667   0.00000  Uiso   1.00
O377   O     0.43892   0.79513   0.16666   0.00000  Uiso   1.00
O378   O     0.50000   0.87155   0.09511   0.00000  Uiso   1.00
O379   O     0.50000   0.79512   0.23822   0.00000  Uiso   1.00
O380   O     0.50000   0.87155   0.23822   0.00000  Uiso   1.00
O381   O     0.50000   0.79512   0.09511   0.00000  Uiso   1.00
O382   O     0.54844   0.71075   0.23805   0.00000  Uiso   1.00
Zn383  Zn    0.50000   0.88437   0.16667   0.00000  Uiso   1.00
Zn384  Zn    0.50000   0.78229   0.16667   0.00000  Uiso   1.00
C385   C     0.75363   0.83336   0.16689   0.00000  Uiso   1.00
C386   C     0.68955   0.84943   0.20951   0.00000  Uiso   1.00
C387   C     0.95722   0.83325   0.16690   0.00000  Uiso   1.00
C388   C     0.70942   0.83342   0.16707   0.00000  Uiso   1.00
C389   C     0.85682   0.69025   0.20174   0.00000  Uiso   1.00
C390   C     0.80984   0.97642   0.13159   0.00000  Uiso   1.00
C391   C     0.80985   0.69033   0.13159   0.00000  Uiso   1.00
C392   C     0.85682   0.97633   0.20175   0.00000  Uiso   1.00
C393   C     0.91303   0.83331   0.16684   0.00000  Uiso   1.00
C394   C     0.83320   0.83335   0.07304   0.00000  Uiso   1.00
C395   C     0.83349   0.83332   0.26029   0.00000  Uiso   1.00
C396   C     0.83329   0.83336   0.02183   0.00000  Uiso   1.00
C397   C     0.83340   0.83331   0.31150   0.00000  Uiso   1.00
C398   C     0.68714   0.81718   0.12470   0.00000  Uiso   1.00
C399   C     0.97947   0.84935   0.20926   0.00000  Uiso   1.00
C400   C     0.97686   0.81702   0.12466   0.00000  Uiso   1.00
H401   H     0.69996   0.82113   0.05090   0.00000  Uiso   1.00
H402   H     0.78103   0.92472   0.10495   0.00000  Uiso   1.00
H403   H     0.78108   0.74211   0.10492   0.00000  Uiso   1.00
H404   H     0.88560   0.92456   0.22841   0.00000  Uiso   1.00
H405   H     0.70101   0.76866   0.07499   0.00000  Uiso   1.00
H406   H     0.96729   0.84537   0.28303   0.00000  Uiso   1.00
H407   H     0.96632   0.89773   0.25914   0.00000  Uiso   1.00
H408   H     0.95921   0.82060   0.05085   0.00000  Uiso   1.00
H409   H     0.96006   0.76822   0.07520   0.00000  Uiso   1.00
H410   H     0.73085   0.89228   0.24364   0.00000  Uiso   1.00
H411   H     0.73307   0.83920   0.26590   0.00000  Uiso   1.00
H412   H     0.88563   0.74195   0.22839   0.00000  Uiso   1.00
N413   N     0.83333   0.95240   0.16667   0.00000  Uiso   1.00
N414   N     0.83333   0.71427   0.16667   0.00000  Uiso   1.00
N415   N     0.70919   0.80186   0.08205   0.00000  Uiso   1.00
N416   N     0.95763   0.86466   0.25204   0.00000  Uiso   1.00
N417   N     0.95213   0.80141   0.08209   0.00000  Uiso   1.00
N418   N     0.71287   0.86468   0.25331   0.00000  Uiso   1.00
O419   O     0.77226   0.87154   0.16666   0.00000  Uiso   1.00
O420   O     0.78489   0.95592   0.09529   0.00000  Uiso   1.00
O421   O     0.78490   0.71093   0.09527   0.00000  Uiso   1.00
O422   O     0.88176   0.95574   0.23806   0.00000  Uiso   1.00
O423   O     0.89441   0.79513   0.16667   0.00000  Uiso   1.00
O424   O     0.89441   0.87154   0.16667   0.00000  Uiso   1.00
O425   O     0.77226   0.79513   0.16666   0.00000  Uiso   1.00
O426   O     0.83334   0.87155   0.09511   0.00000  Uiso   1.00
O427   O     0.83333   0.79512   0.23822   0.00000  Uiso   1.00
O428   O     0.83333   0.87155   0.23822   0.00000  Uiso   1.00
O429   O     0.83334   0.79512   0.09511   0.00000  Uiso   1.00
O430   O     0.88177   0.71075   0.23805   0.00000  Uiso   1.00
Zn431  Zn    0.83333   0.88437   0.16667   0.00000  Uiso   1.00
Zn432  Zn    0.83333   0.78229   0.16667   0.00000  Uiso   1.00
C433   C     0.08697   0.16670   0.50022   0.00000  Uiso   1.00
C434   C     0.02289   0.18277   0.54284   0.00000  Uiso   1.00
C435   C     0.29055   0.16658   0.50024   0.00000  Uiso   1.00
C436   C     0.04276   0.16675   0.50040   0.00000  Uiso   1.00
C437   C     0.19016   0.02358   0.53508   0.00000  Uiso   1.00
C438   C     0.14317   0.30975   0.46493   0.00000  Uiso   1.00
C439   C     0.14318   0.02367   0.46492   0.00000  Uiso   1.00
C440   C     0.19015   0.30966   0.53508   0.00000  Uiso   1.00
C441   C     0.24636   0.16665   0.50017   0.00000  Uiso   1.00
C442   C     0.16653   0.16668   0.40637   0.00000  Uiso   1.00
C443   C     0.16682   0.16665   0.59362   0.00000  Uiso   1.00
C444   C     0.16662   0.16669   0.35517   0.00000  Uiso   1.00
C445   C     0.16673   0.16665   0.64483   0.00000  Uiso   1.00
C446   C     0.02048   0.15051   0.45803   0.00000  Uiso   1.00
C447   C     0.31281   0.18269   0.54259   0.00000  Uiso   1.00
C448   C     0.31019   0.15035   0.45800   0.00000  Uiso   1.00
H449   H     0.03329   0.15446   0.38423   0.00000  Uiso   1.00
H450   H     0.11436   0.25805   0.43829   0.00000  Uiso   1.00
H451   H     0.11441   0.07545   0.43826   0.00000  Uiso   1.00
H452   H     0.21893   0.25789   0.56174   0.00000  Uiso   1.00
H453   H     0.03435   0.10199   0.40833   0.00000  Uiso   1.00
H454   H     0.30062   0.17870   0.61637   0.00000  Uiso   1.00
H455   H     0.29966   0.23107   0.59247   0.00000  Uiso   1.00
H456   H     0.29255   0.15393   0.38418   0.00000  Uiso   1.00
H457   H     0.29340   0.10156   0.40853   0.00000  Uiso   1.00
H458   H     0.06418   0.22561   0.57698   0.00000  Uiso   1.00
H459   H     0.06640   0.17253   0.59923   0.00000  Uiso   1.00
H460   H     0.21897   0.07528   0.56172   0.00000  Uiso   1.00
N461   N     0.16667   0.28573   0.50000   0.00000  Uiso   1.00
N462   N     0.16667   0.04760   0.50000   0.00000  Uiso   1.00
N463   N     0.04253   0.13520   0.41538   0.00000  Uiso   1.00
N464   N     0.29097   0.19799   0.58537   0.00000  Uiso   1.00
N465   N     0.28546   0.13474   0.41542   0.00000  Uiso   1.00
N466   N     0.04621   0.19802   0.58664   0.00000  Uiso   1.00
O467   O     0.10559   0.20487   0.50000   0.00000  Uiso   1.00
O468   O     0.11822   0.28925   0.42863   0.00000  Uiso   1.00
O469   O     0.11823   0.04426   0.42861   0.00000  Uiso   1.00
O470   O     0.21509   0.28907   0.57140   0.00000  Uiso   1.00
O471   O     0.22774   0.12846   0.50000   0.00000  Uiso   1.00
O472   O     0.22774   0.20487   0.50000   0.00000  Uiso   1.00
O473   O     0.10559   0.12846   0.50000   0.00000  Uiso   1.00
O474   O     0.16667   0.20488   0.42845   0.00000  Uiso   1.00
O475   O     0.16666   0.12845   0.57155   0.00000  Uiso   1.00
O476   O     0.16666   0.20488   0.57155   0.00000  Uiso   1.00
O477   O     0.16667   0.12845   0.42845   0.00000  Uiso   1.00
O478   O     0.21510   0.04408   0.57138   0.00000  Uiso   1.00
Zn479  Zn    0.16667   0.21771   0.50000   0.00000  Uiso   1.00
Zn480  Zn    0.16667   0.11563   0.50000   0.00000  Uiso   1.00
C481   C     0.42030   0.16670   0.50022   0.00000  Uiso   1.00
C482   C     0.35622   0.18277   0.54284   0.00000  Uiso   1.00
C483   C     0.62388   0.16658   0.50024   0.00000  Uiso   1.00
C484   C     0.37609   0.16675   0.50040   0.00000  Uiso   1.00
C485   C     0.52349   0.02358   0.53508   0.00000  Uiso   1.00
C486   C     0.47651   0.30975   0.46493   0.00000  Uiso   1.00
C487   C     0.47651   0.02367   0.46492   0.00000  Uiso   1.00
C488   C     0.52349   0.30966   0.53508   0.00000  Uiso   1.00
C489   C     0.57970   0.16665   0.50017   0.00000  Uiso   1.00
C490   C     0.49986   0.16668   0.40637   0.00000  Uiso   1.00
C491   C     0.50016   0.16665   0.59362   0.00000  Uiso   1.00
C492   C     0.49995   0.16669   0.35517   0.00000  Uiso   1.00
C493   C     0.50006   0.16665   0.64483   0.00000  Uiso   1.00
C494   C     0.35381   0.15051   0.45803   0.00000  Uiso   1.00
C495   C     0.64614   0.18269   0.54259   0.00000  Uiso   1.00
C496   C     0.64352   0.15035   0.45800   0.00000  Uiso   1.00
H497   H     0.36662   0.15446   0.38423   0.00000  Uiso   1.00
H498   H     0.44770   0.25805   0.43829   0.00000  Uiso   1.00
H499   H     0.44775   0.07545   0.43826   0.00000  Uiso   1.00
H500   H     0.55227   0.25789   0.56174   0.00000  Uiso   1.00
H501   H     0.36768   0.10199   0.40833   0.00000  Uiso   1.00
H502   H     0.63395   0.17870   0.61637   0.00000  Uiso   1.00
H503   H     0.63299   0.23107   0.59247   0.00000  Uiso   1.00
H504   H     0.62588   0.15393   0.38418   0.00000  Uiso   1.00
H505   H     0.62673   0.10156   0.40853   0.00000  Uiso   1.00
H506   H     0.39751   0.22561   0.57698   0.00000  Uiso   1.00
H507   H     0.39974   0.17253   0.59923   0.00000  Uiso   1.00
H508   H     0.55230   0.07528   0.56172   0.00000  Uiso   1.00
N509   N     0.50000   0.28573   0.50000   0.00000  Uiso   1.00
N510   N     0.50000   0.04760   0.50000   0.00000  Uiso   1.00
N511   N     0.37586   0.13520   0.41538   0.00000  Uiso   1.00
N512   N     0.62430   0.19799   0.58537   0.00000  Uiso   1.00
N513   N     0.61880   0.13474   0.41542   0.00000  Uiso   1.00
N514   N     0.37954   0.19802   0.58664   0.00000  Uiso   1.00
O515   O     0.43892   0.20487   0.50000   0.00000  Uiso   1.00
O516   O     0.45155   0.28925   0.42863   0.00000  Uiso   1.00
O517   O     0.45157   0.04426   0.42861   0.00000  Uiso   1.00
O518   O     0.54843   0.28907   0.57140   0.00000  Uiso   1.00
O519   O     0.56108   0.12846   0.50000   0.00000  Uiso   1.00
O520   O     0.56108   0.20487   0.50000   0.00000  Uiso   1.00
O521   O     0.43892   0.12846   0.50000   0.00000  Uiso   1.00
O522   O     0.50000   0.20488   0.42845   0.00000  Uiso   1.00
O523   O     0.50000   0.12845   0.57155   0.00000  Uiso   1.00
O524   O     0.50000   0.20488   0.57155   0.00000  Uiso   1.00
O525   O     0.50000   0.12845   0.42845   0.00000  Uiso   1.00
O526   O     0.54844   0.04408   0.57138   0.00000  Uiso   1.00
Zn527  Zn    0.50000   0.21771   0.50000   0.00000  Uiso   1.00
Zn528  Zn    0.50000   0.11563   0.50000   0.00000  Uiso   1.00
C529   C     0.75363   0.16670   0.50022   0.00000  Uiso   1.00
C530   C     0.68955   0.18277   0.54284   0.00000  Uiso   1.00
C531   C     0.95722   0.16658   0.50024   0.00000  Uiso   1.00
C532   C     0.70942   0.16675   0.50040   0.00000  Uiso   1.00
C533   C     0.85682   0.02358   0.53508   0.00000  Uiso   1.00
C534   C     0.80984   0.30975   0.46493   0.00000  Uiso   1.00
C535   C     0.80985   0.02367   0.46492   0.00000  Uiso   1.00
C536   C     0.85682   0.30966   0.53508   0.00000  Uiso   1.00
C537   C     0.91303   0.16665   0.50017   0.00000  Uiso   1.00
C538   C     0.83320   0.16668   0.40637   0.00000  Uiso   1.00
C539   C     0.83349   0.16665   0.59362   0.00000  Uiso   1.00
C540   C     0.83329   0.16669   0.35517   0.00000  Uiso   1.00
C541   C     0.83340   0.16665   0.64483   0.00000  Uiso   1.00
C542   C     0.68714   0.15051   0.45803   0.00000  Uiso   1.00
C543   C     0.97947   0.18269   0.54259   0.00000  Uiso   1.00
C544   C     0.97686   0.15035   0.45800   0.00000  Uiso   1.00
H545   H     0.69996   0.15446   0.38423   0.00000  Uiso   1.00
H546   H     0.78103   0.25805   0.43829   0.00000  Uiso   1.00
H547   H     0.78108   0.07545   0.43826   0.00000  Uiso   1.00
H548   H     0.88560   0.25789   0.56174   0.00000  Uiso   1.00
H549   H     0.70101   0.10199   0.40833   0.00000  Uiso   1.00
H550   H     0.96729   0.17870   0.61637   0.00000  Uiso   1.00
H551   H     0.96632   0.23107   0.59247   0.00000  Uiso   1.00
H552   H     0.95921   0.15393   0.38418   0.00000  Uiso   1.00
H553   H     0.96006   0.10156   0.40853   0.00000  Uiso   1.00
H554   H     0.73085   0.22561   0.57698   0.00000  Uiso   1.00
H555   H     0.73307   0.17253   0.59923   0.00000  Uiso   1.00
H556   H     0.88563   0.07528   0.56172   0.00000  Uiso   1.00
N557   N     0.83333   0.28573   0.50000   0.00000  Uiso   1.00
N558   N     0.83333   0.04760   0.50000   0.00000  Uiso   1.00
N559   N     0.70919   0.13520   0.41538   0.00000  Uiso   1.00
N560   N     0.95763   0.19799   0.58537   0.00000  Uiso   1.00
N561   N     0.95213   0.13474   0.41542   0.00000  Uiso   1.00
N562   N     0.71287   0.19802   0.58664   0.00000  Uiso   1.00
O563   O     0.77226   0.20487   0.50000   0.00000  Uiso   1.00
O564   O     0.78489   0.28925   0.42863   0.00000  Uiso   1.00
O565   O     0.78490   0.04426   0.42861   0.00000  Uiso   1.00
O566   O     0.88176   0.28907   0.57140   0.00000  Uiso   1.00
O567   O     0.89441   0.12846   0.50000   0.00000  Uiso   1.00
O568   O     0.89441   0.20487   0.50000   0.00000  Uiso   1.00
O569   O     0.77226   0.12846   0.50000   0.00000  Uiso   1.00
O570   O     0.83334   0.20488   0.42845   0.00000  Uiso   1.00
O571   O     0.83333   0.12845   0.57155   0.00000  Uiso   1.00
O572   O     0.83333   0.20488   0.57155   0.00000  Uiso   1.00
O573   O     0.83334   0.12845   0.42845   0.00000  Uiso   1.00
O574   O     0.88177   0.04408   0.57138   0.00000  Uiso   1.00
Zn575  Zn    0.83333   0.21771   0.50000   0.00000  Uiso   1.00
Zn576  Zn    0.83333   0.11563   0.50000   0.00000  Uiso   1.00
C577   C     0.08697   0.50003   0.50022   0.00000  Uiso   1.00
C578   C     0.02289   0.51610   0.54284   0.00000  Uiso   1.00
C579   C     0.29055   0.49992   0.50024   0.00000  Uiso   1.00
C580   C     0.04276   0.50008   0.50040   0.00000  Uiso   1.00
C581   C     0.19016   0.35691   0.53508   0.00000  Uiso   1.00
C582   C     0.14317   0.64309   0.46493   0.00000  Uiso   1.00
C583   C     0.14318   0.35700   0.46492   0.00000  Uiso   1.00
C584   C     0.19015   0.64300   0.53508   0.00000  Uiso   1.00
C585   C     0.24636   0.49998   0.50017   0.00000  Uiso   1.00
C586   C     0.16653   0.50002   0.40637   0.00000  Uiso   1.00
C587   C     0.16682   0.49998   0.59362   0.00000  Uiso   1.00
C588   C     0.16662   0.50002   0.35517   0.00000  Uiso   1.00
C589   C     0.16673   0.49998   0.64483   0.00000  Uiso   1.00
C590   C     0.02048   0.48384   0.45803   0.00000  Uiso   1.00
C591   C     0.31281   0.51602   0.54259   0.00000  Uiso   1.00
C592   C     0.31019   0.48368   0.45800   0.00000  Uiso   1.00
H593   H     0.03329   0.48780   0.38423   0.00000  Uiso   1.00
H594   H     0.11436   0.59138   0.43829   0.00000  Uiso   1.00
H595   H     0.11441   0.40878   0.43826   0.00000  Uiso   1.00
H596   H     0.21893   0.59122   0.56174   0.00000  Uiso   1.00
H597   H     0.03435   0.43533   0.40833   0.00000  Uiso   1.00
H598   H     0.30062   0.51203   0.61637   0.00000  Uiso   1.00
H599   H     0.29966   0.56440   0.59247   0.00000  Uiso   1.00
H600   H     0.29255   0.48727   0.38418   0.00000  Uiso   1.00
H601   H     0.29340   0.43489   0.40853   0.00000  Uiso   1.00
H602   H     0.06418   0.55895   0.57698   0.00000  Uiso   1.00
H603   H     0.06640   0.50587   0.59923   0.00000  Uiso   1.00
H604   H     0.21897   0.40862   0.56172   0.00000  Uiso   1.00
N605   N     0.16667   0.61907   0.50000   0.00000  Uiso   1.00
N606   N     0.16667   0.38093   0.50000   0.00000  Uiso   1.00
N607   N     0.04253   0.46853   0.41538   0.00000  Uiso   1.00
N608   N     0.29097   0.53133   0.58537   0.00000  Uiso   1.00
N609   N     0.28546   0.46807   0.41542   0.00000  Uiso   1.00
N610   N     0.04621   0.53135   0.58664   0.00000  Uiso   1.00
O611   O     0.10559   0.53821   0.50000   0.00000  Uiso   1.00
O612   O     0.11822   0.62258   0.42863   0.00000  Uiso   1.00
O613   O     0.11823   0.37759   0.42861   0.00000  Uiso   1.00
O614   O     0.21509   0.62240   0.57140   0.00000  Uiso   1.00
O615   O     0.22774   0.46179   0.50000   0.00000  Uiso   1.00
O616   O     0.22774   0.53821   0.50000   0.00000  Uiso   1.00
O617   O     0.10559   0.46179   0.50000   0.00000  Uiso   1.00
O618   O     0.16667   0.53821   0.42845   0.00000  Uiso   1.00
O619   O     0.16666   0.46179   0.57155   0.00000  Uiso   1.00
O620   O     0.16666   0.53821   0.57155   0.00000  Uiso   1.00
O621   O     0.16667   0.46179   0.42845   0.00000  Uiso   1.00
O622   O     0.21510   0.37742   0.57138   0.00000  Uiso   1.00
Zn623  Zn    0.16667   0.55104   0.50000   0.00000  Uiso   1.00
Zn624  Zn    0.16667   0.44896   0.50000   0.00000  Uiso   1.00
C625   C     0.42030   0.50003   0.50022   0.00000  Uiso   1.00
C626   C     0.35622   0.51610   0.54284   0.00000  Uiso   1.00
C627   C     0.62388   0.49992   0.50024   0.00000  Uiso   1.00
C628   C     0.37609   0.50008   0.50040   0.00000  Uiso   1.00
C629   C     0.52349   0.35691   0.53508   0.00000  Uiso   1.00
C630   C     0.47651   0.64309   0.46493   0.00000  Uiso   1.00
C631   C     0.47651   0.35700   0.46492   0.00000  Uiso   1.00
C632   C     0.52349   0.64300   0.53508   0.00000  Uiso   1.00
C633   C     0.57970   0.49998   0.50017   0.00000  Uiso   1.00
C634   C     0.49986   0.50002   0.40637   0.00000  Uiso   1.00
C635   C     0.50016   0.49998   0.59362   0.00000  Uiso   1.00
C636   C     0.49995   0.50002   0.35517   0.00000  Uiso   1.00
C637   C     0.50006   0.49998   0.64483   0.00000  Uiso   1.00
C638   C     0.35381   0.48384   0.45803   0.00000  Uiso   1.00
C639   C     0.64614   0.51602   0.54259   0.00000  Uiso   1.00
C640   C     0.64352   0.48368   0.45800   0.00000  Uiso   1.00
H641   H     0.36662   0.48780   0.38423   0.00000  Uiso   1.00
H642   H     0.44770   0.59138   0.43829   0.00000  Uiso   1.00
H643   H     0.44775   0.40878   0.43826   0.00000  Uiso   1.00
H644   H     0.55227   0.59122   0.56174   0.00000  Uiso   1.00
H645   H     0.36768   0.43533   0.40833   0.00000  Uiso   1.00
H646   H     0.63395   0.51203   0.61637   0.00000  Uiso   1.00
H647   H     0.63299   0.56440   0.59247   0.00000  Uiso   1.00
H648   H     0.62588   0.48727   0.38418   0.00000  Uiso   1.00
H649   H     0.62673   0.43489   0.40853   0.00000  Uiso   1.00
H650   H     0.39751   0.55895   0.57698   0.00000  Uiso   1.00
H651   H     0.39974   0.50587   0.59923   0.00000  Uiso   1.00
H652   H     0.55230   0.40862   0.56172   0.00000  Uiso   1.00
N653   N     0.50000   0.61907   0.50000   0.00000  Uiso   1.00
N654   N     0.50000   0.38093   0.50000   0.00000  Uiso   1.00
N655   N     0.37586   0.46853   0.41538   0.00000  Uiso   1.00
N656   N     0.62430   0.53133   0.58537   0.00000  Uiso   1.00
N657   N     0.61880   0.46807   0.41542   0.00000  Uiso   1.00
N658   N     0.37954   0.53135   0.58664   0.00000  Uiso   1.00
O659   O     0.43892   0.53821   0.50000   0.00000  Uiso   1.00
O660   O     0.45155   0.62258   0.42863   0.00000  Uiso   1.00
O661   O     0.45157   0.37759   0.42861   0.00000  Uiso   1.00
O662   O     0.54843   0.62240   0.57140   0.00000  Uiso   1.00
O663   O     0.56108   0.46179   0.50000   0.00000  Uiso   1.00
O664   O     0.56108   0.53821   0.50000   0.00000  Uiso   1.00
O665   O     0.43892   0.46179   0.50000   0.00000  Uiso   1.00
O666   O     0.50000   0.53821   0.42845   0.00000  Uiso   1.00
O667   O     0.50000   0.46179   0.57155   0.00000  Uiso   1.00
O668   O     0.50000   0.53821   0.57155   0.00000  Uiso   1.00
O669   O     0.50000   0.46179   0.42845   0.00000  Uiso   1.00
O670   O     0.54844   0.37742   0.57138   0.00000  Uiso   1.00
Zn671  Zn    0.50000   0.55104   0.50000   0.00000  Uiso   1.00
Zn672  Zn    0.50000   0.44896   0.50000   0.00000  Uiso   1.00
C673   C     0.75363   0.50003   0.50022   0.00000  Uiso   1.00
C674   C     0.68955   0.51610   0.54284   0.00000  Uiso   1.00
C675   C     0.95722   0.49992   0.50024   0.00000  Uiso   1.00
C676   C     0.70942   0.50008   0.50040   0.00000  Uiso   1.00
C677   C     0.85682   0.35691   0.53508   0.00000  Uiso   1.00
C678   C     0.80984   0.64309   0.46493   0.00000  Uiso   1.00
C679   C     0.80985   0.35700   0.46492   0.00000  Uiso   1.00
C680   C     0.85682   0.64300   0.53508   0.00000  Uiso   1.00
C681   C     0.91303   0.49998   0.50017   0.00000  Uiso   1.00
C682   C     0.83320   0.50002   0.40637   0.00000  Uiso   1.00
C683   C     0.83349   0.49998   0.59362   0.00000  Uiso   1.00
C684   C     0.83329   0.50002   0.35517   0.00000  Uiso   1.00
C685   C     0.83340   0.49998   0.64483   0.00000  Uiso   1.00
C686   C     0.68714   0.48384   0.45803   0.00000  Uiso   1.00
C687   C     0.97947   0.51602   0.54259   0.00000  Uiso   1.00
C688   C     0.97686   0.48368   0.45800   0.00000  Uiso   1.00
H689   H     0.69996   0.48780   0.38423   0.00000  Uiso   1.00
H690   H     0.78103   0.59138   0.43829   0.00000  Uiso   1.00
H691   H     0.78108   0.40878   0.43826   0.00000  Uiso   1.00
H692   H     0.88560   0.59122   0.56174   0.00000  Uiso   1.00
H693   H     0.70101   0.43533   0.40833   0.00000  Uiso   1.00
H694   H     0.96729   0.51203   0.61637   0.00000  Uiso   1.00
H695   H     0.96632   0.56440   0.59247   0.00000  Uiso   1.00
H696   H     0.95921   0.48727   0.38418   0.00000  Uiso   1.00
H697   H     0.96006   0.43489   0.40853   0.00000  Uiso   1.00
H698   H     0.73085   0.55895   0.57698   0.00000  Uiso   1.00
H699   H     0.73307   0.50587   0.59923   0.00000  Uiso   1.00
H700   H     0.88563   0.40862   0.56172   0.00000  Uiso   1.00
N701   N     0.83333   0.61907   0.50000   0.00000  Uiso   1.00
N702   N     0.83333   0.38093   0.50000   0.00000  Uiso   1.00
N703   N     0.70919   0.46853   0.41538   0.00000  Uiso   1.00
N704   N     0.95763   0.53133   0.58537   0.00000  Uiso   1.00
N705   N     0.95213   0.46807   0.41542   0.00000  Uiso   1.00
N706   N     0.71287   0.53135   0.58664   0.00000  Uiso   1.00
O707   O     0.77226   0.53821   0.50000   0.00000  Uiso   1.00
O708   O     0.78489   0.62258   0.42863   0.00000  Uiso   1.00
O709   O     0.78490   0.37759   0.42861   0.00000  Uiso   1.00
O710   O     0.88176   0.62240   0.57140   0.00000  Uiso   1.00
O711   O     0.89441   0.46179   0.50000   0.00000  Uiso   1.00
O712   O     0.89441   0.53821   0.50000   0.00000  Uiso   1.00
O713   O     0.77226   0.46179   0.50000   0.00000  Uiso   1.00
O714   O     0.83334   0.53821   0.42845   0.00000  Uiso   1.00
O715   O     0.83333   0.46179   0.57155   0.00000  Uiso   1.00
O716   O     0.83333   0.53821   0.57155   0.00000  Uiso   1.00
O717   O     0.83334   0.46179   0.42845   0.00000  Uiso   1.00
O718   O     0.88177   0.37742   0.57138   0.00000  Uiso   1.00
Zn719  Zn    0.83333   0.55104   0.50000   0.00000  Uiso   1.00
Zn720  Zn    0.83333   0.44896   0.50000   0.00000  Uiso   1.00
C721   C     0.08697   0.83336   0.50022   0.00000  Uiso   1.00
C722   C     0.02289   0.84943   0.54284   0.00000  Uiso   1.00
C723   C     0.29055   0.83325   0.50024   0.00000  Uiso   1.00
C724   C     0.04276   0.83342   0.50040   0.00000  Uiso   1.00
C725   C     0.19016   0.69025   0.53508   0.00000  Uiso   1.00
C726   C     0.14317   0.97642   0.46493   0.00000  Uiso   1.00
C727   C     0.14318   0.69033   0.46492   0.00000  Uiso   1.00
C728   C     0.19015   0.97633   0.53508   0.00000  Uiso   1.00
C729   C     0.24636   0.83331   0.50017   0.00000  Uiso   1.00
C730   C     0.16653   0.83335   0.40637   0.00000  Uiso   1.00
C731   C     0.16682   0.83332   0.59362   0.00000  Uiso   1.00
C732   C     0.16662   0.83336   0.35517   0.00000  Uiso   1.00
C733   C     0.16673   0.83331   0.64483   0.00000  Uiso   1.00
C734   C     0.02048   0.81718   0.45803   0.00000  Uiso   1.00
C735   C     0.31281   0.84935   0.54259   0.00000  Uiso   1.00
C736   C     0.31019   0.81702   0.45800   0.00000  Uiso   1.00
H737   H     0.03329   0.82113   0.38423   0.00000  Uiso   1.00
H738   H     0.11436   0.92472   0.43829   0.00000  Uiso   1.00
H739   H     0.11441   0.74211   0.43826   0.00000  Uiso   1.00
H740   H     0.21893   0.92456   0.56174   0.00000  Uiso   1.00
H741   H     0.03435   0.76866   0.40833   0.00000  Uiso   1.00
H742   H     0.30062   0.84537   0.61637   0.00000  Uiso   1.00
H743   H     0.29966   0.89773   0.59247   0.00000  Uiso   1.00
H744   H     0.29255   0.82060   0.38418   0.00000  Uiso   1.00
H745   H     0.29340   0.76822   0.40853   0.00000  Uiso   1.00
H746   H     0.06418   0.89228   0.57698   0.00000  Uiso   1.00
H747   H     0.06640   0.83920   0.59923   0.00000  Uiso   1.00
H748   H     0.21897   0.74195   0.56172   0.00000  Uiso   1.00
N749   N     0.16667   0.95240   0.50000   0.00000  Uiso   1.00
N750   N     0.16667   0.71427   0.50000   0.00000  Uiso   1.00
N751   N     0.04253   0.80186   0.41538   0.00000  Uiso   1.00
N752   N     0.29097   0.86466   0.58537   0.00000  Uiso   1.00
N753   N     0.28546   0.80141   0.41542   0.00000  Uiso   1.00
N754   N     0.04621   0.86468   0.58664   0.00000  Uiso   1.00
O755   O     0.10559   0.87154   0.50000   0.00000  Uiso   1.00
O756   O     0.11822   0.95592   0.42863   0.00000  Uiso   1.00
O757   O     0.11823   0.71093   0.42861   0.00000  Uiso   1.00
O758   O     0.21509   0.95574   0.57140   0.00000  Uiso   1.00
O759   O     0.22774   0.79513   0.50000   0.00000  Uiso   1.00
O760   O     0.22774   0.87154   0.50000   0.00000  Uiso   1.00
O761   O     0.10559   0.79513   0.50000   0.00000  Uiso   1.00
O762   O     0.16667   0.87155   0.42845   0.00000  Uiso   1.00
O763   O     0.16666   0.79512   0.57155   0.00000  Uiso   1.00
O764   O     0.16666   0.87155   0.57155   0.00000  Uiso   1.00
O765   O     0.16667   0.79512   0.42845   0.00000  Uiso   1.00
O766   O     0.21510   0.71075   0.57138   0.00000  Uiso   1.00
Zn767  Zn    0.16667   0.88437   0.50000   0.00000  Uiso   1.00
Zn768  Zn    0.16667   0.78229   0.50000   0.00000  Uiso   1.00
C769   C     0.42030   0.83336   0.50022   0.00000  Uiso   1.00
C770   C     0.35622   0.84943   0.54284   0.00000  Uiso   1.00
C771   C     0.62388   0.83325   0.50024   0.00000  Uiso   1.00
C772   C     0.37609   0.83342   0.50040   0.00000  Uiso   1.00
C773   C     0.52349   0.69025   0.53508   0.00000  Uiso   1.00
C774   C     0.47651   0.97642   0.46493   0.00000  Uiso   1.00
C775   C     0.47651   0.69033   0.46492   0.00000  Uiso   1.00
C776   C     0.52349   0.97633   0.53508   0.00000  Uiso   1.00
C777   C     0.57970   0.83331   0.50017   0.00000  Uiso   1.00
C778   C     0.49986   0.83335   0.40637   0.00000  Uiso   1.00
C779   C     0.50016   0.83332   0.59362   0.00000  Uiso   1.00
C780   C     0.49995   0.83336   0.35517   0.00000  Uiso   1.00
C781   C     0.50006   0.83331   0.64483   0.00000  Uiso   1.00
C782   C     0.35381   0.81718   0.45803   0.00000  Uiso   1.00
C783   C     0.64614   0.84935   0.54259   0.00000  Uiso   1.00
C784   C     0.64352   0.81702   0.45800   0.00000  Uiso   1.00
H785   H     0.36662   0.82113   0.38423   0.00000  Uiso   1.00
H786   H     0.44770   0.92472   0.43829   0.00000  Uiso   1.00
H787   H     0.44775   0.74211   0.43826   0.00000  Uiso   1.00
H788   H     0.55227   0.92456   0.56174   0.00000  Uiso   1.00
H789   H     0.36768   0.76866   0.40833   0.00000  Uiso   1.00
H790   H     0.63395   0.84537   0.61637   0.00000  Uiso   1.00
H791   H     0.63299   0.89773   0.59247   0.00000  Uiso   1.00
H792   H     0.62588   0.82060   0.38418   0.00000  Uiso   1.00
H793   H     0.62673   0.76822   0.40853   0.00000  Uiso   1.00
H794   H     0.39751   0.89228   0.57698   0.00000  Uiso   1.00
H795   H     0.39974   0.83920   0.59923   0.00000  Uiso   1.00
H796   H     0.55230   0.74195   0.56172   0.00000  Uiso   1.00
N797   N     0.50000   0.95240   0.50000   0.00000  Uiso   1.00
N798   N     0.50000   0.71427   0.50000   0.00000  Uiso   1.00
N799   N     0.37586   0.80186   0.41538   0.00000  Uiso   1.00
N800   N     0.62430   0.86466   0.58537   0.00000  Uiso   1.00
N801   N     0.61880   0.80141   0.41542   0.00000  Uiso   1.00
N802   N     0.37954   0.86468   0.58664   0.00000  Uiso   1.00
O803   O     0.43892   0.87154   0.50000   0.00000  Uiso   1.00
O804   O     0.45155   0.95592   0.42863   0.00000  Uiso   1.00
O805   O     0.45157   0.71093   0.42861   0.00000  Uiso   1.00
O806   O     0.54843   0.95574   0.57140   0.00000  Uiso   1.00
O807   O     0.56108   0.79513   0.50000   0.00000  Uiso   1.00
O808   O     0.56108   0.87154   0.50000   0.00000  Uiso   1.00
O809   O     0.43892   0.79513   0.50000   0.00000  Uiso   1.00
O810   O     0.50000   0.87155   0.42845   0.00000  Uiso   1.00
O811   O     0.50000   0.79512   0.57155   0.00000  Uiso   1.00
O812   O     0.50000   0.87155   0.57155   0.00000  Uiso   1.00
O813   O     0.50000   0.79512   0.42845   0.00000  Uiso   1.00
O814   O     0.54844   0.71075   0.57138   0.00000  Uiso   1.00
Zn815  Zn    0.50000   0.88437   0.50000   0.00000  Uiso   1.00
Zn816  Zn    0.50000   0.78229   0.50000   0.00000  Uiso   1.00
C817   C     0.75363   0.83336   0.50022   0.00000  Uiso   1.00
C818   C     0.68955   0.84943   0.54284   0.00000  Uiso   1.00
C819   C     0.95722   0.83325   0.50024   0.00000  Uiso   1.00
C820   C     0.70942   0.83342   0.50040   0.00000  Uiso   1.00
C821   C     0.85682   0.69025   0.53508   0.00000  Uiso   1.00
C822   C     0.80984   0.97642   0.46493   0.00000  Uiso   1.00
C823   C     0.80985   0.69033   0.46492   0.00000  Uiso   1.00
C824   C     0.85682   0.97633   0.53508   0.00000  Uiso   1.00
C825   C     0.91303   0.83331   0.50017   0.00000  Uiso   1.00
C826   C     0.83320   0.83335   0.40637   0.00000  Uiso   1.00
C827   C     0.83349   0.83332   0.59362   0.00000  Uiso   1.00
C828   C     0.83329   0.83336   0.35517   0.00000  Uiso   1.00
C829   C     0.83340   0.83331   0.64483   0.00000  Uiso   1.00
C830   C     0.68714   0.81718   0.45803   0.00000  Uiso   1.00
C831   C     0.97947   0.84935   0.54259   0.00000  Uiso   1.00
C832   C     0.97686   0.81702   0.45800   0.00000  Uiso   1.00
H833   H     0.69996   0.82113   0.38423   0.00000  Uiso   1.00
H834   H     0.78103   0.92472   0.43829   0.00000  Uiso   1.00
H835   H     0.78108   0.74211   0.43826   0.00000  Uiso   1.00
H836   H     0.88560   0.92456   0.56174   0.00000  Uiso   1.00
H837   H     0.70101   0.76866   0.40833   0.00000  Uiso   1.00
H838   H     0.96729   0.84537   0.61637   0.00000  Uiso   1.00
H839   H     0.96632   0.89773   0.59247   0.00000  Uiso   1.00
H840   H     0.95921   0.82060   0.38418   0.00000  Uiso   1.00
H841   H     0.96006   0.76822   0.40853   0.00000  Uiso   1.00
H842   H     0.73085   0.89228   0.57698   0.00000  Uiso   1.00
H843   H     0.73307   0.83920   0.59923   0.00000  Uiso   1.00
H844   H     0.88563   0.74195   0.56172   0.00000  Uiso   1.00
N845   N     0.83333   0.95240   0.50000   0.00000  Uiso   1.00
N846   N     0.83333   0.71427   0.50000   0.00000  Uiso   1.00
N847   N     0.70919   0.80186   0.41538   0.00000  Uiso   1.00
N848   N     0.95763   0.86466   0.58537   0.00000  Uiso   1.00
N849   N     0.95213   0.80141   0.41542   0.00000  Uiso   1.00
N850   N     0.71287   0.86468   0.58664   0.00000  Uiso   1.00
O851   O     0.77226   0.87154   0.50000   0.00000  Uiso   1.00
O852   O     0.78489   0.95592   0.42863   0.00000  Uiso   1.00
O853   O     0.78490   0.71093   0.42861   0.00000  Uiso   1.00
O854   O     0.88176   0.95574   0.57140   0.00000  Uiso   1.00
O855   O     0.89441   0.79513   0.50000   0.00000  Uiso   1.00
O856   O     0.89441   0.87154   0.50000   0.00000  Uiso   1.00
O857   O     0.77226   0.79513   0.50000   0.00000  Uiso   1.00
O858   O     0.83334   0.87155   0.42845   0.00000  Uiso   1.00
O859   O     0.83333   0.79512   0.57155   0.00000  Uiso   1.00
O860   O     0.83333   0.87155   0.57155   0.00000  Uiso   1.00
O861   O     0.83334   0.79512   0.42845   0.00000  Uiso   1.00
O862   O     0.88177   0.71075   0.57138   0.00000  Uiso   1.00
Zn863  Zn    0.83333   0.88437   0.50000   0.00000  Uiso   1.00
Zn864  Zn    0.83333   0.78229   0.50000   0.00000  Uiso   1.00
C865   C     0.08697   0.16670   0.83356   0.00000  Uiso   1.00
C866   C     0.02289   0.18277   0.87617   0.00000  Uiso   1.00
C867   C     0.29055   0.16658   0.83357   0.00000  Uiso   1.00
C868   C     0.04276   0.16675   0.83373   0.00000  Uiso   1.00
C869   C     0.19016   0.02358   0.86841   0.00000  Uiso   1.00
C870   C     0.14317   0.30975   0.79826   0.00000  Uiso   1.00
C871   C     0.14318   0.02367   0.79826   0.00000  Uiso   1.00
C872   C     0.19015   0.30966   0.86841   0.00000  Uiso   1.00
C873   C     0.24636   0.16665   0.83350   0.00000  Uiso   1.00
C874   C     0.16653   0.16668   0.73971   0.00000  Uiso   1.00
C875   C     0.16682   0.16665   0.92696   0.00000  Uiso   1.00
C876   C     0.16662   0.16669   0.68850   0.00000  Uiso   1.00
C877   C     0.16673   0.16665   0.97817   0.00000  Uiso   1.00
C878   C     0.02048   0.15051   0.79136   0.00000  Uiso   1.00
C879   C     0.31281   0.18269   0.87593   0.00000  Uiso   1.00
C880   C     0.31019   0.15035   0.79133   0.00000  Uiso   1.00
H881   H     0.03329   0.15446   0.71757   0.00000  Uiso   1.00
H882   H     0.11436   0.25805   0.77162   0.00000  Uiso   1.00
H883   H     0.11441   0.07545   0.77159   0.00000  Uiso   1.00
H884   H     0.21893   0.25789   0.89507   0.00000  Uiso   1.00
H885   H     0.03435   0.10199   0.74166   0.00000  Uiso   1.00
H886   H     0.30062   0.17870   0.94970   0.00000  Uiso   1.00
H887   H     0.29966   0.23107   0.92580   0.00000  Uiso   1.00
H888   H     0.29255   0.15393   0.71751   0.00000  Uiso   1.00
H889   H     0.29340   0.10156   0.74187   0.00000  Uiso   1.00
H890   H     0.06418   0.22561   0.91031   0.00000  Uiso   1.00
H891   H     0.06640   0.17253   0.93257   0.00000  Uiso   1.00
H892   H     0.21897   0.07528   0.89505   0.00000  Uiso   1.00
N893   N     0.16667   0.28573   0.83333   0.00000  Uiso   1.00
N894   N     0.16667   0.04760   0.83333   0.00000  Uiso   1.00
N895   N     0.04253   0.13520   0.74872   0.00000  Uiso   1.00
N896   N     0.29097   0.19799   0.91871   0.00000  Uiso   1.00
N897   N     0.28546   0.13474   0.74875   0.00000  Uiso   1.00
N898   N     0.04621   0.19802   0.91998   0.00000  Uiso   1.00
O899   O     0.10559   0.20487   0.83333   0.00000  Uiso   1.00
O900   O     0.11822   0.28925   0.76196   0.00000  Uiso   1.00
O901   O     0.11823   0.04426   0.76194   0.00000  Uiso   1.00
O902   O     0.21509   0.28907   0.90473   0.00000  Uiso   1.00
O903   O     0.22774   0.12846   0.83334   0.00000  Uiso   1.00
O904   O     0.22774   0.20487   0.83334   0.00000  Uiso   1.00
O905   O     0.10559   0.12846   0.83333   0.00000  Uiso   1.00
O906   O     0.16667   0.20488   0.76178   0.00000  Uiso   1.00
O907   O     0.16666   0.12845   0.90489   0.00000  Uiso   1.00
O908   O     0.16666   0.20488   0.90489   0.00000  Uiso   1.00
O909   O     0.16667   0.12845   0.76178   0.00000  Uiso   1.00
O910   O     0.21510   0.04408   0.90471   0.00000  Uiso   1.00
Zn911  Zn    0.16667   0.21771   0.83333   0.00000  Uiso   1.00
Zn912  Zn    0.16667   0.11563   0.83333   0.00000  Uiso   1.00
C913   C     0.42030   0.16670   0.83356   0.00000  Uiso   1.00
C914   C     0.35622   0.18277   0.87617   0.00000  Uiso   1.00
C915   C     0.62388   0.16658   0.83357   0.00000  Uiso   1.00
C916   C     0.37609   0.16675   0.83373   0.00000  Uiso   1.00
C917   C     0.52349   0.02358   0.86841   0.00000  Uiso   1.00
C918   C     0.47651   0.30975   0.79826   0.00000  Uiso   1.00
C919   C     0.47651   0.02367   0.79826   0.00000  Uiso   1.00
C920   C     0.52349   0.30966   0.86841   0.00000  Uiso   1.00
C921   C     0.57970   0.16665   0.83350   0.00000  Uiso   1.00
C922   C     0.49986   0.16668   0.73971   0.00000  Uiso   1.00
C923   C     0.50016   0.16665   0.92696   0.00000  Uiso   1.00
C924   C     0.49995   0.16669   0.68850   0.00000  Uiso   1.00
C925   C     0.50006   0.16665   0.97817   0.00000  Uiso   1.00
C926   C     0.35381   0.15051   0.79136   0.00000  Uiso   1.00
C927   C     0.64614   0.18269   0.87593   0.00000  Uiso   1.00
C928   C     0.64352   0.15035   0.79133   0.00000  Uiso   1.00
H929   H     0.36662   0.15446   0.71757   0.00000  Uiso   1.00
H930   H     0.44770   0.25805   0.77162   0.00000  Uiso   1.00
H931   H     0.44775   0.07545   0.77159   0.00000  Uiso   1.00
H932   H     0.55227   0.25789   0.89507   0.00000  Uiso   1.00
H933   H     0.36768   0.10199   0.74166   0.00000  Uiso   1.00
H934   H     0.63395   0.17870   0.94970   0.00000  Uiso   1.00
H935   H     0.63299   0.23107   0.92580   0.00000  Uiso   1.00
H936   H     0.62588   0.15393   0.71751   0.00000  Uiso   1.00
H937   H     0.62673   0.10156   0.74187   0.00000  Uiso   1.00
H938   H     0.39751   0.22561   0.91031   0.00000  Uiso   1.00
H939   H     0.39974   0.17253   0.93257   0.00000  Uiso   1.00
H940   H     0.55230   0.07528   0.89505   0.00000  Uiso   1.00
N941   N     0.50000   0.28573   0.83333   0.00000  Uiso   1.00
N942   N     0.50000   0.04760   0.83333   0.00000  Uiso   1.00
N943   N     0.37586   0.13520   0.74872   0.00000  Uiso   1.00
N944   N     0.62430   0.19799   0.91871   0.00000  Uiso   1.00
N945   N     0.61880   0.13474   0.74875   0.00000  Uiso   1.00
N946   N     0.37954   0.19802   0.91998   0.00000  Uiso   1.00
O947   O     0.43892   0.20487   0.83333   0.00000  Uiso   1.00
O948   O     0.45155   0.28925   0.76196   0.00000  Uiso   1.00
O949   O     0.45157   0.04426   0.76194   0.00000  Uiso   1.00
O950   O     0.54843   0.28907   0.90473   0.00000  Uiso   1.00
O951   O     0.56108   0.12846   0.83334   0.00000  Uiso   1.00
O952   O     0.56108   0.20487   0.83334   0.00000  Uiso   1.00
O953   O     0.43892   0.12846   0.83333   0.00000  Uiso   1.00
O954   O     0.50000   0.20488   0.76178   0.00000  Uiso   1.00
O955   O     0.50000   0.12845   0.90489   0.00000  Uiso   1.00
O956   O     0.50000   0.20488   0.90489   0.00000  Uiso   1.00
O957   O     0.50000   0.12845   0.76178   0.00000  Uiso   1.00
O958   O     0.54844   0.04408   0.90471   0.00000  Uiso   1.00
Zn959  Zn    0.50000   0.21771   0.83333   0.00000  Uiso   1.00
Zn960  Zn    0.50000   0.11563   0.83333   0.00000  Uiso   1.00
C961   C     0.75363   0.16670   0.83356   0.00000  Uiso   1.00
C962   C     0.68955   0.18277   0.87617   0.00000  Uiso   1.00
C963   C     0.95722   0.16658   0.83357   0.00000  Uiso   1.00
C964   C     0.70942   0.16675   0.83373   0.00000  Uiso   1.00
C965   C     0.85682   0.02358   0.86841   0.00000  Uiso   1.00
C966   C     0.80984   0.30975   0.79826   0.00000  Uiso   1.00
C967   C     0.80985   0.02367   0.79826   0.00000  Uiso   1.00
C968   C     0.85682   0.30966   0.86841   0.00000  Uiso   1.00
C969   C     0.91303   0.16665   0.83350   0.00000  Uiso   1.00
C970   C     0.83320   0.16668   0.73971   0.00000  Uiso   1.00
C971   C     0.83349   0.16665   0.92696   0.00000  Uiso   1.00
C972   C     0.83329   0.16669   0.68850   0.00000  Uiso   1.00
C973   C     0.83340   0.16665   0.97817   0.00000  Uiso   1.00
C974   C     0.68714   0.15051   0.79136   0.00000  Uiso   1.00
C975   C     0.97947   0.18269   0.87593   0.00000  Uiso   1.00
C976   C     0.97686   0.15035   0.79133   0.00000  Uiso   1.00
H977   H     0.69996   0.15446   0.71757   0.00000  Uiso   1.00
H978   H     0.78103   0.25805   0.77162   0.00000  Uiso   1.00
H979   H     0.78108   0.07545   0.77159   0.00000  Uiso   1.00
H980   H     0.88560   0.25789   0.89507   0.00000  Uiso   1.00
H981   H     0.70101   0.10199   0.74166   0.00000  Uiso   1.00
H982   H     0.96729   0.17870   0.94970   0.00000  Uiso   1.00
H983   H     0.96632   0.23107   0.92580   0.00000  Uiso   1.00
H984   H     0.95921   0.15393   0.71751   0.00000  Uiso   1.00
H985   H     0.96006   0.10156   0.74187   0.00000  Uiso   1.00
H986   H     0.73085   0.22561   0.91031   0.00000  Uiso   1.00
H987   H     0.73307   0.17253   0.93257   0.00000  Uiso   1.00
H988   H     0.88563   0.07528   0.89505   0.00000  Uiso   1.00
N989   N     0.83333   0.28573   0.83333   0.00000  Uiso   1.00
N990   N     0.83333   0.04760   0.83333   0.00000  Uiso   1.00
N991   N     0.70919   0.13520   0.74872   0.00000  Uiso   1.00
N992   N     0.95763   0.19799   0.91871   0.00000  Uiso   1.00
N993   N     0.95213   0.13474   0.74875   0.00000  Uiso   1.00
N994   N     0.71287   0.19802   0.91998   0.00000  Uiso   1.00
O995   O     0.77226   0.20487   0.83333   0.00000  Uiso   1.00
O996   O     0.78489   0.28925   0.76196   0.00000  Uiso   1.00
O997   O     0.78490   0.04426   0.76194   0.00000  Uiso   1.00
O998   O     0.88176   0.28907   0.90473   0.00000  Uiso   1.00
O999   O     0.89441   0.12846   0.83334   0.00000  Uiso   1.00
O1000  O     0.89441   0.20487   0.83334   0.00000  Uiso   1.00
O1001  O     0.77226   0.12846   0.83333   0.00000  Uiso   1.00
O1002  O     0.83334   0.20488   0.76178   0.00000  Uiso   1.00
O1003  O     0.83333   0.12845   0.90489   0.00000  Uiso   1.00
O1004  O     0.83333   0.20488   0.90489   0.00000  Uiso   1.00
O1005  O     0.83334   0.12845   0.76178   0.00000  Uiso   1.00
O1006  O     0.88177   0.04408   0.90471   0.00000  Uiso   1.00
Zn1007 Zn    0.83333   0.21771   0.83333   0.00000  Uiso   1.00
Zn1008 Zn    0.83333   0.11563   0.83333   0.00000  Uiso   1.00
C1009  C     0.08697   0.50003   0.83356   0.00000  Uiso   1.00
C1010  C     0.02289   0.51610   0.87617   0.00000  Uiso   1.00
C1011  C     0.29055   0.49992   0.83357   0.00000  Uiso   1.00
C1012  C     0.04276   0.50008   0.83373   0.00000  Uiso   1.00
C1013  C     0.19016   0.35691   0.86841   0.00000  Uiso   1.00
C1014  C     0.14317   0.64309   0.79826   0.00000  Uiso   1.00
C1015  C     0.14318   0.35700   0.79826   0.00000  Uiso   1.00
C1016  C     0.19015   0.64300   0.86841   0.00000  Uiso   1.00
C1017  C     0.24636   0.49998   0.83350   0.00000  Uiso   1.00
C1018  C     0.16653   0.50002   0.73971   0.00000  Uiso   1.00
C1019  C     0.16682   0.49998   0.92696   0.00000  Uiso   1.00
C1020  C     0.16662   0.50002   0.68850   0.00000  Uiso   1.00
C1021  C     0.16673   0.49998   0.97817   0.00000  Uiso   1.00
C1022  C     0.02048   0.48384   0.79136   0.00000  Uiso   1.00
C1023  C     0.31281   0.51602   0.87593   0.00000  Uiso   1.00
C1024  C     0.31019   0.48368   0.79133   0.00000  Uiso   1.00
H1025  H     0.03329   0.48780   0.71757   0.00000  Uiso   1.00
H1026  H     0.11436   0.59138   0.77162   0.00000  Uiso   1.00
H1027  H     0.11441   0.40878   0.77159   0.00000  Uiso   1.00
H1028  H     0.21893   0.59122   0.89507   0.00000  Uiso   1.00
H1029  H     0.03435   0.43533   0.74166   0.00000  Uiso   1.00
H1030  H     0.30062   0.51203   0.94970   0.00000  Uiso   1.00
H1031  H     0.29966   0.56440   0.92580   0.00000  Uiso   1.00
H1032  H     0.29255   0.48727   0.71751   0.00000  Uiso   1.00
H1033  H     0.29340   0.43489   0.74187   0.00000  Uiso   1.00
H1034  H     0.06418   0.55895   0.91031   0.00000  Uiso   1.00
H1035  H     0.06640   0.50587   0.93257   0.00000  Uiso   1.00
H1036  H     0.21897   0.40862   0.89505   0.00000  Uiso   1.00
N1037  N     0.16667   0.61907   0.83333   0.00000  Uiso   1.00
N1038  N     0.16667   0.38093   0.83333   0.00000  Uiso   1.00
N1039  N     0.04253   0.46853   0.74872   0.00000  Uiso   1.00
N1040  N     0.29097   0.53133   0.91871   0.00000  Uiso   1.00
N1041  N     0.28546   0.46807   0.74875   0.00000  Uiso   1.00
N1042  N     0.04621   0.53135   0.91998   0.00000  Uiso   1.00
O1043  O     0.10559   0.53821   0.83333   0.00000  Uiso   1.00
O1044  O     0.11822   0.62258   0.76196   0.00000  Uiso   1.00
O1045  O     0.11823   0.37759   0.76194   0.00000  Uiso   1.00
O1046  O     0.21509   0.62240   0.90473   0.00000  Uiso   1.00
O1047  O     0.22774   0.46179   0.83334   0.00000  Uiso   1.00
O1048  O     0.22774   0.53821   0.83334   0.00000  Uiso   1.00
O1049  O     0.10559   0.46179   0.83333   0.00000  Uiso   1.00
O1050  O     0.16667   0.53821   0.76178   0.00000  Uiso   1.00
O1051  O     0.16666   0.46179   0.90489   0.00000  Uiso   1.00
O1052  O     0.16666   0.53821   0.90489   0.00000  Uiso   1.00
O1053  O     0.16667   0.46179   0.76178   0.00000  Uiso   1.00
O1054  O     0.21510   0.37742   0.90471   0.00000  Uiso   1.00
Zn1055 Zn    0.16667   0.55104   0.83333   0.00000  Uiso   1.00
Zn1056 Zn    0.16667   0.44896   0.83333   0.00000  Uiso   1.00
C1057  C     0.42030   0.50003   0.83356   0.00000  Uiso   1.00
C1058  C     0.35622   0.51610   0.87617   0.00000  Uiso   1.00
C1059  C     0.62388   0.49992   0.83357   0.00000  Uiso   1.00
C1060  C     0.37609   0.50008   0.83373   0.00000  Uiso   1.00
C1061  C     0.52349   0.35691   0.86841   0.00000  Uiso   1.00
C1062  C     0.47651   0.64309   0.79826   0.00000  Uiso   1.00
C1063  C     0.47651   0.35700   0.79826   0.00000  Uiso   1.00
C1064  C     0.52349   0.64300   0.86841   0.00000  Uiso   1.00
C1065  C     0.57970   0.49998   0.83350   0.00000  Uiso   1.00
C1066  C     0.49986   0.50002   0.73971   0.00000  Uiso   1.00
C1067  C     0.50016   0.49998   0.92696   0.00000  Uiso   1.00
C1068  C     0.49995   0.50002   0.68850   0.00000  Uiso   1.00
C1069  C     0.50006   0.49998   0.97817   0.00000  Uiso   1.00
C1070  C     0.35381   0.48384   0.79136   0.00000  Uiso   1.00
C1071  C     0.64614   0.51602   0.87593   0.00000  Uiso   1.00
C1072  C     0.64352   0.48368   0.79133   0.00000  Uiso   1.00
H1073  H     0.36662   0.48780   0.71757   0.00000  Uiso   1.00
H1074  H     0.44770   0.59138   0.77162   0.00000  Uiso   1.00
H1075  H     0.44775   0.40878   0.77159   0.00000  Uiso   1.00
H1076  H     0.55227   0.59122   0.89507   0.00000  Uiso   1.00
H1077  H     0.36768   0.43533   0.74166   0.00000  Uiso   1.00
H1078  H     0.63395   0.51203   0.94970   0.00000  Uiso   1.00
H1079  H     0.63299   0.56440   0.92580   0.00000  Uiso   1.00
H1080  H     0.62588   0.48727   0.71751   0.00000  Uiso   1.00
H1081  H     0.62673   0.43489   0.74187   0.00000  Uiso   1.00
H1082  H     0.39751   0.55895   0.91031   0.00000  Uiso   1.00
H1083  H     0.39974   0.50587   0.93257   0.00000  Uiso   1.00
H1084  H     0.55230   0.40862   0.89505   0.00000  Uiso   1.00
N1085  N     0.50000   0.61907   0.83333   0.00000  Uiso   1.00
N1086  N     0.50000   0.38093   0.83333   0.00000  Uiso   1.00
N1087  N     0.37586   0.46853   0.74872   0.00000  Uiso   1.00
N1088  N     0.62430   0.53133   0.91871   0.00000  Uiso   1.00
N1089  N     0.61880   0.46807   0.74875   0.00000  Uiso   1.00
N1090  N     0.37954   0.53135   0.91998   0.00000  Uiso   1.00
O1091  O     0.43892   0.53821   0.83333   0.00000  Uiso   1.00
O1092  O     0.45155   0.62258   0.76196   0.00000  Uiso   1.00
O1093  O     0.45157   0.37759   0.76194   0.00000  Uiso   1.00
O1094  O     0.54843   0.62240   0.90473   0.00000  Uiso   1.00
O1095  O     0.56108   0.46179   0.83334   0.00000  Uiso   1.00
O1096  O     0.56108   0.53821   0.83334   0.00000  Uiso   1.00
O1097  O     0.43892   0.46179   0.83333   0.00000  Uiso   1.00
O1098  O     0.50000   0.53821   0.76178   0.00000  Uiso   1.00
O1099  O     0.50000   0.46179   0.90489   0.00000  Uiso   1.00
O1100  O     0.50000   0.53821   0.90489   0.00000  Uiso   1.00
O1101  O     0.50000   0.46179   0.76178   0.00000  Uiso   1.00
O1102  O     0.54844   0.37742   0.90471   0.00000  Uiso   1.00
Zn1103 Zn    0.50000   0.55104   0.83333   0.00000  Uiso   1.00
Zn1104 Zn    0.50000   0.44896   0.83333   0.00000  Uiso   1.00
C1105  C     0.75363   0.50003   0.83356   0.00000  Uiso   1.00
C1106  C     0.68955   0.51610   0.87617   0.00000  Uiso   1.00
C1107  C     0.95722   0.49992   0.83357   0.00000  Uiso   1.00
C1108  C     0.70942   0.50008   0.83373   0.00000  Uiso   1.00
C1109  C     0.85682   0.35691   0.86841   0.00000  Uiso   1.00
C1110  C     0.80984   0.64309   0.79826   0.00000  Uiso   1.00
C1111  C     0.80985   0.35700   0.79826   0.00000  Uiso   1.00
C1112  C     0.85682   0.64300   0.86841   0.00000  Uiso   1.00
C1113  C     0.91303   0.49998   0.83350   0.00000  Uiso   1.00
C1114  C     0.83320   0.50002   0.73971   0.00000  Uiso   1.00
C1115  C     0.83349   0.49998   0.92696   0.00000  Uiso   1.00
C1116  C     0.83329   0.50002   0.68850   0.00000  Uiso   1.00
C1117  C     0.83340   0.49998   0.97817   0.00000  Uiso   1.00
C1118  C     0.68714   0.48384   0.79136   0.00000  Uiso   1.00
C1119  C     0.97947   0.51602   0.87593   0.00000  Uiso   1.00
C1120  C     0.97686   0.48368   0.79133   0.00000  Uiso   1.00
H1121  H     0.69996   0.48780   0.71757   0.00000  Uiso   1.00
H1122  H     0.78103   0.59138   0.77162   0.00000  Uiso   1.00
H1123  H     0.78108   0.40878   0.77159   0.00000  Uiso   1.00
H1124  H     0.88560   0.59122   0.89507   0.00000  Uiso   1.00
H1125  H     0.70101   0.43533   0.74166   0.00000  Uiso   1.00
H1126  H     0.96729   0.51203   0.94970   0.00000  Uiso   1.00
H1127  H     0.96632   0.56440   0.92580   0.00000  Uiso   1.00
H1128  H     0.95921   0.48727   0.71751   0.00000  Uiso   1.00
H1129  H     0.96006   0.43489   0.74187   0.00000  Uiso   1.00
H1130  H     0.73085   0.55895   0.91031   0.00000  Uiso   1.00
H1131  H     0.73307   0.50587   0.93257   0.00000  Uiso   1.00
H1132  H     0.88563   0.40862   0.89505   0.00000  Uiso   1.00
N1133  N     0.83333   0.61907   0.83333   0.00000  Uiso   1.00
N1134  N     0.83333   0.38093   0.83333   0.00000  Uiso   1.00
N1135  N     0.70919   0.46853   0.74872   0.00000  Uiso   1.00
N1136  N     0.95763   0.53133   0.91871   0.00000  Uiso   1.00
N1137  N     0.95213   0.46807   0.74875   0.00000  Uiso   1.00
N1138  N     0.71287   0.53135   0.91998   0.00000  Uiso   1.00
O1139  O     0.77226   0.53821   0.83333   0.00000  Uiso   1.00
O1140  O     0.78489   0.62258   0.76196   0.00000  Uiso   1.00
O1141  O     0.78490   0.37759   0.76194   0.00000  Uiso   1.00
O1142  O     0.88176   0.62240   0.90473   0.00000  Uiso   1.00
O1143  O     0.89441   0.46179   0.83334   0.00000  Uiso   1.00
O1144  O     0.89441   0.53821   0.83334   0.00000  Uiso   1.00
O1145  O     0.77226   0.46179   0.83333   0.00000  Uiso   1.00
O1146  O     0.83334   0.53821   0.76178   0.00000  Uiso   1.00
O1147  O     0.83333   0.46179   0.90489   0.00000  Uiso   1.00
O1148  O     0.83333   0.53821   0.90489   0.00000  Uiso   1.00
O1149  O     0.83334   0.46179   0.76178   0.00000  Uiso   1.00
O1150  O     0.88177   0.37742   0.90471   0.00000  Uiso   1.00
Zn1151 Zn    0.83333   0.55104   0.83333   0.00000  Uiso   1.00
Zn1152 Zn    0.83333   0.44896   0.83333   0.00000  Uiso   1.00
C1153  C     0.08697   0.83336   0.83356   0.00000  Uiso   1.00
C1154  C     0.02289   0.84943   0.87617   0.00000  Uiso   1.00
C1155  C     0.29055   0.83325   0.83357   0.00000  Uiso   1.00
C1156  C     0.04276   0.83342   0.83373   0.00000  Uiso   1.00
C1157  C     0.19016   0.69025   0.86841   0.00000  Uiso   1.00
C1158  C     0.14317   0.97642   0.79826   0.00000  Uiso   1.00
C1159  C     0.14318   0.69033   0.79826   0.00000  Uiso   1.00
C1160  C     0.19015   0.97633   0.86841   0.00000  Uiso   1.00
C1161  C     0.24636   0.83331   0.83350   0.00000  Uiso   1.00
C1162  C     0.16653   0.83335   0.73971   0.00000  Uiso   1.00
C1163  C     0.16682   0.83332   0.92696   0.00000  Uiso   1.00
C1164  C     0.16662   0.83336   0.68850   0.00000  Uiso   1.00
C1165  C     0.16673   0.83331   0.97817   0.00000  Uiso   1.00
C1166  C     0.02048   0.81718   0.79136   0.00000  Uiso   1.00
C1167  C     0.31281   0.84935   0.87593   0.00000  Uiso   1.00
C1168  C     0.31019   0.81702   0.79133   0.00000  Uiso   1.00
H1169  H     0.03329   0.82113   0.71757   0.00000  Uiso   1.00
H1170  H     0.11436   0.92472   0.77162   0.00000  Uiso   1.00
H1171  H     0.11441   0.74211   0.77159   0.00000  Uiso   1.00
H1172  H     0.21893   0.92456   0.89507   0.00000  Uiso   1.00
H1173  H     0.03435   0.76866   0.74166   0.00000  Uiso   1.00
H1174  H     0.30062   0.84537   0.94970   0.00000  Uiso   1.00
H1175  H     0.29966   0.89773   0.92580   0.00000  Uiso   1.00
H1176  H     0.29255   0.82060   0.71751   0.00000  Uiso   1.00
H1177  H     0.29340   0.76822   0.74187   0.00000  Uiso   1.00
H1178  H     0.06418   0.89228   0.91031   0.00000  Uiso   1.00
H1179  H     0.06640   0.83920   0.93257   0.00000  Uiso   1.00
H1180  H     0.21897   0.74195   0.89505   0.00000  Uiso   1.00
N1181  N     0.16667   0.95240   0.83333   0.00000  Uiso   1.00
N1182  N     0.16667   0.71427   0.83333   0.00000  Uiso   1.00
N1183  N     0.04253   0.80186   0.74872   0.00000  Uiso   1.00
N1184  N     0.29097   0.86466   0.91871   0.00000  Uiso   1.00
N1185  N     0.28546   0.80141   0.74875   0.00000  Uiso   1.00
N1186  N     0.04621   0.86468   0.91998   0.00000  Uiso   1.00
O1187  O     0.10559   0.87154   0.83333   0.00000  Uiso   1.00
O1188  O     0.11822   0.95592   0.76196   0.00000  Uiso   1.00
O1189  O     0.11823   0.71093   0.76194   0.00000  Uiso   1.00
O1190  O     0.21509   0.95574   0.90473   0.00000  Uiso   1.00
O1191  O     0.22774   0.79513   0.83334   0.00000  Uiso   1.00
O1192  O     0.22774   0.87154   0.83334   0.00000  Uiso   1.00
O1193  O     0.10559   0.79513   0.83333   0.00000  Uiso   1.00
O1194  O     0.16667   0.87155   0.76178   0.00000  Uiso   1.00
O1195  O     0.16666   0.79512   0.90489   0.00000  Uiso   1.00
O1196  O     0.16666   0.87155   0.90489   0.00000  Uiso   1.00
O1197  O     0.16667   0.79512   0.76178   0.00000  Uiso   1.00
O1198  O     0.21510   0.71075   0.90471   0.00000  Uiso   1.00
Zn1199 Zn    0.16667   0.88437   0.83333   0.00000  Uiso   1.00
Zn1200 Zn    0.16667   0.78229   0.83333   0.00000  Uiso   1.00
C1201  C     0.42030   0.83336   0.83356   0.00000  Uiso   1.00
C1202  C     0.35622   0.84943   0.87617   0.00000  Uiso   1.00
C1203  C     0.62388   0.83325   0.83357   0.00000  Uiso   1.00
C1204  C     0.37609   0.83342   0.83373   0.00000  Uiso   1.00
C1205  C     0.52349   0.69025   0.86841   0.00000  Uiso   1.00
C1206  C     0.47651   0.97642   0.79826   0.00000  Uiso   1.00
C1207  C     0.47651   0.69033   0.79826   0.00000  Uiso   1.00
C1208  C     0.52349   0.97633   0.86841   0.00000  Uiso   1.00
C1209  C     0.57970   0.83331   0.83350   0.00000  Uiso   1.00
C1210  C     0.49986   0.83335   0.73971   0.00000  Uiso   1.00
C1211  C     0.50016   0.83332   0.92696   0.00000  Uiso   1.00
C1212  C     0.49995   0.83336   0.68850   0.00000  Uiso   1.00
C1213  C     0.50006   0.83331   0.97817   0.00000  Uiso   1.00
C1214  C     0.35381   0.81718   0.79136   0.00000  Uiso   1.00
C1215  C     0.64614   0.84935   0.87593   0.00000  Uiso   1.00
C1216  C     0.64352   0.81702   0.79133   0.00000  Uiso   1.00
H1217  H     0.36662   0.82113   0.71757   0.00000  Uiso   1.00
H1218  H     0.44770   0.92472   0.77162   0.00000  Uiso   1.00
H1219  H     0.44775   0.74211   0.77159   0.00000  Uiso   1.00
H1220  H     0.55227   0.92456   0.89507   0.00000  Uiso   1.00
H1221  H     0.36768   0.76866   0.74166   0.00000  Uiso   1.00
H1222  H     0.63395   0.84537   0.94970   0.00000  Uiso   1.00
H1223  H     0.63299   0.89773   0.92580   0.00000  Uiso   1.00
H1224  H     0.62588   0.82060   0.71751   0.00000  Uiso   1.00
H1225  H     0.62673   0.76822   0.74187   0.00000  Uiso   1.00
H1226  H     0.39751   0.89228   0.91031   0.00000  Uiso   1.00
H1227  H     0.39974   0.83920   0.93257   0.00000  Uiso   1.00
H1228  H     0.55230   0.74195   0.89505   0.00000  Uiso   1.00
N1229  N     0.50000   0.95240   0.83333   0.00000  Uiso   1.00
N1230  N     0.50000   0.71427   0.83333   0.00000  Uiso   1.00
N1231  N     0.37586   0.80186   0.74872   0.00000  Uiso   1.00
N1232  N     0.62430   0.86466   0.91871   0.00000  Uiso   1.00
N1233  N     0.61880   0.80141   0.74875   0.00000  Uiso   1.00
N1234  N     0.37954   0.86468   0.91998   0.00000  Uiso   1.00
O1235  O     0.43892   0.87154   0.83333   0.00000  Uiso   1.00
O1236  O     0.45155   0.95592   0.76196   0.00000  Uiso   1.00
O1237  O     0.45157   0.71093   0.76194   0.00000  Uiso   1.00
O1238  O     0.54843   0.95574   0.90473   0.00000  Uiso   1.00
O1239  O     0.56108   0.79513   0.83334   0.00000  Uiso   1.00
O1240  O     0.56108   0.87154   0.83334   0.00000  Uiso   1.00
O1241  O     0.43892   0.79513   0.83333   0.00000  Uiso   1.00
O1242  O     0.50000   0.87155   0.76178   0.00000  Uiso   1.00
O1243  O     0.50000   0.79512   0.90489   0.00000  Uiso   1.00
O1244  O     0.50000   0.87155   0.90489   0.00000  Uiso   1.00
O1245  O     0.50000   0.79512   0.76178   0.00000  Uiso   1.00
O1246  O     0.54844   0.71075   0.90471   0.00000  Uiso   1.00
Zn1247 Zn    0.50000   0.88437   0.83333   0.00000  Uiso   1.00
Zn1248 Zn    0.50000   0.78229   0.83333   0.00000  Uiso   1.00
C1249  C     0.75363   0.83336   0.83356   0.00000  Uiso   1.00
C1250  C     0.68955   0.84943   0.87617   0.00000  Uiso   1.00
C1251  C     0.95722   0.83325   0.83357   0.00000  Uiso   1.00
C1252  C     0.70942   0.83342   0.83373   0.00000  Uiso   1.00
C1253  C     0.85682   0.69025   0.86841   0.00000  Uiso   1.00
C1254  C     0.80984   0.97642   0.79826   0.00000  Uiso   1.00
C1255  C     0.80985   0.69033   0.79826   0.00000  Uiso   1.00
C1256  C     0.85682   0.97633   0.86841   0.00000  Uiso   1.00
C1257  C     0.91303   0.83331   0.83350   0.00000  Uiso   1.00
C1258  C     0.83320   0.83335   0.73971   0.00000  Uiso   1.00
C1259  C     0.83349   0.83332   0.92696   0.00000  Uiso   1.00
C1260  C     0.83329   0.83336   0.68850   0.00000  Uiso   1.00
C1261  C     0.83340   0.83331   0.97817   0.00000  Uiso   1.00
C1262  C     0.68714   0.81718   0.79136   0.00000  Uiso   1.00
C1263  C     0.97947   0.84935   0.87593   0.00000  Uiso   1.00
C1264  C     0.97686   0.81702   0.79133   0.00000  Uiso   1.00
H1265  H     0.69996   0.82113   0.71757   0.00000  Uiso   1.00
H1266  H     0.78103   0.92472   0.77162   0.00000  Uiso   1.00
H1267  H     0.78108   0.74211   0.77159   0.00000  Uiso   1.00
H1268  H     0.88560   0.92456   0.89507   0.00000  Uiso   1.00
H1269  H     0.70101   0.76866   0.74166   0.00000  Uiso   1.00
H1270  H     0.96729   0.84537   0.94970   0.00000  Uiso   1.00
H1271  H     0.96632   0.89773   0.92580   0.00000  Uiso   1.00
H1272  H     0.95921   0.82060   0.71751   0.00000  Uiso   1.00
H1273  H     0.96006   0.76822   0.74187   0.00000  Uiso   1.00
H1274  H     0.73085   0.89228   0.91031   0.00000  Uiso   1.00
H1275  H     0.73307   0.83920   0.93257   0.00000  Uiso   1.00
H1276  H     0.88563   0.74195   0.89505   0.00000  Uiso   1.00
N1277  N     0.83333   0.95240   0.83333   0.00000  Uiso   1.00
N1278  N     0.83333   0.71427   0.83333   0.00000  Uiso   1.00
N1279  N     0.70919   0.80186   0.74872   0.00000  Uiso   1.00
N1280  N     0.95763   0.86466   0.91871   0.00000  Uiso   1.00
N1281  N     0.95213   0.80141   0.74875   0.00000  Uiso   1.00
N1282  N     0.71287   0.86468   0.91998   0.00000  Uiso   1.00
O1283  O     0.77226   0.87154   0.83333   0.00000  Uiso   1.00
O1284  O     0.78489   0.95592   0.76196   0.00000  Uiso   1.00
O1285  O     0.78490   0.71093   0.76194   0.00000  Uiso   1.00
O1286  O     0.88176   0.95574   0.90473   0.00000  Uiso   1.00
O1287  O     0.89441   0.79513   0.83334   0.00000  Uiso   1.00
O1288  O     0.89441   0.87154   0.83334   0.00000  Uiso   1.00
O1289  O     0.77226   0.79513   0.83333   0.00000  Uiso   1.00
O1290  O     0.83334   0.87155   0.76178   0.00000  Uiso   1.00
O1291  O     0.83333   0.79512   0.90489   0.00000  Uiso   1.00
O1292  O     0.83333   0.87155   0.90489   0.00000  Uiso   1.00
O1293  O     0.83334   0.79512   0.76178   0.00000  Uiso   1.00
O1294  O     0.88177   0.71075   0.90471   0.00000  Uiso   1.00
Zn1295 Zn    0.83333   0.88437   0.83333   0.00000  Uiso   1.00
Zn1296 Zn    0.83333   0.78229   0.83333   0.00000  Uiso   1.00
loop_
_geom_bond_atom_site_label_1
_geom_bond_atom_site_label_2
_geom_bond_distance
_geom_bond_site_symmetry_2
_ccdc_geom_bond_type
C1     C4      1.409   .     S
C1     O41     1.291   .     A
C1     O35     1.290   .     A
C2     C4      1.405   .     A
C2     N34     1.437   .     S
C2     C111    1.383   1_455 S
C3     C9      1.408   .     S
C3     C15     1.398   .     A
C3     C16     1.399   .     A
C4     C14     1.400   .     A
C5     O46     1.376   .     S
C5     N30     1.378   .     A
C5     C296    1.417   1_545 S
C6     O36     1.376   .     S
C6     N29     1.378   .     A
C6     C151    1.417   .     S
C7     O37     1.376   .     S
C7     N30     1.379   .     A
C7     C294    1.417   1_545 S
C8     N29     1.379   .     A
C8     O38     1.376   .     S
C8     C149    1.417   .     S
C9     O39     1.290   .     A
C9     O40     1.291   .     A
C10    O42     1.289   .     A
C10    O45     1.289   .     A
C10    C12     1.368   .     S
C11    O43     1.289   .     A
C11    O44     1.289   .     A
C11    C13     1.368   .     S
C12    C877    1.166   1_554 S
C13    C444    1.166   .     S
C14    N31     1.437   .     S
C14    C112    1.390   1_455 S
C15    N32     1.436   .     S
C15    C50     1.383   .     S
C16    N33     1.437   .     S
C16    C62     1.390   .     S
H17    N31     1.045   .     S
H18    O36     0.980   .     S
H19    O37     0.979   .     S
H20    O38     0.979   .     S
H21    N31     1.045   .     S
H22    N32     1.046   .     S
H23    N32     1.046   .     S
H24    N33     1.045   .     S
H25    N33     1.045   .     S
H26    N34     1.045   .     S
H27    N34     1.046   .     S
H28    O46     0.980   .     S
N29    Zn47    2.040   .     S
N30    Zn48    2.040   .     S
O35    Zn47    1.984   .     S
O39    Zn48    1.984   .     S
O40    Zn47    1.984   .     S
O41    Zn48    1.984   .     S
O42    Zn47    1.950   .     S
O43    Zn48    1.950   .     S
O44    Zn47    1.949   .     S
O45    Zn48    1.949   .     S
C49    C52     1.409   .     S
C49    O89     1.291   .     A
C49    O83     1.290   .     A
C50    C52     1.405   .     A
C50    N82     1.437   .     S
C51    C57     1.408   .     S
C51    C63     1.398   .     A
C51    C64     1.399   .     A
C52    C62     1.400   .     A
C53    O94     1.376   .     S
C53    N78     1.378   .     A
C53    C344    1.417   1_545 S
C54    O84     1.376   .     S
C54    N77     1.378   .     A
C54    C199    1.417   .     S
C55    O85     1.376   .     S
C55    N78     1.379   .     A
C55    C342    1.417   1_545 S
C56    N77     1.379   .     A
C56    O86     1.376   .     S
C56    C197    1.417   .     S
C57    O87     1.290   .     A
C57    O88     1.291   .     A
C58    O90     1.289   .     A
C58    O93     1.289   .     A
C58    C60     1.368   .     S
C59    O91     1.289   .     A
C59    O92     1.289   .     A
C59    C61     1.368   .     S
C60    C925    1.166   1_554 S
C61    C492    1.166   .     S
C62    N79     1.437   .     S
C63    N80     1.436   .     S
C63    C98     1.383   .     S
C64    N81     1.437   .     S
C64    C110    1.390   .     S
H65    N79     1.045   .     S
H66    O84     0.980   .     S
H67    O85     0.979   .     S
H68    O86     0.979   .     S
H69    N79     1.045   .     S
H70    N80     1.046   .     S
H71    N80     1.046   .     S
H72    N81     1.045   .     S
H73    N81     1.045   .     S
H74    N82     1.045   .     S
H75    N82     1.046   .     S
H76    O94     0.980   .     S
N77    Zn95    2.040   .     S
N78    Zn96    2.040   .     S
O83    Zn95    1.984   .     S
O87    Zn96    1.984   .     S
O88    Zn95    1.984   .     S
O89    Zn96    1.984   .     S
O90    Zn95    1.950   .     S
O91    Zn96    1.950   .     S
O92    Zn95    1.949   .     S
O93    Zn96    1.949   .     S
C97    C100    1.409   .     S
C97    O137    1.291   .     A
C97    O131    1.290   .     A
C98    C100    1.405   .     A
C98    N130    1.437   .     S
C99    C105    1.408   .     S
C99    C111    1.398   .     A
C99    C112    1.399   .     A
C100   C110    1.400   .     A
C101   O142    1.376   .     S
C101   N126    1.378   .     A
C101   C392    1.417   1_545 S
C102   O132    1.376   .     S
C102   N125    1.378   .     A
C102   C247    1.417   .     S
C103   O133    1.376   .     S
C103   N126    1.379   .     A
C103   C390    1.417   1_545 S
C104   N125    1.379   .     A
C104   O134    1.376   .     S
C104   C245    1.417   .     S
C105   O135    1.290   .     A
C105   O136    1.291   .     A
C106   O138    1.289   .     A
C106   O141    1.289   .     A
C106   C108    1.368   .     S
C107   O139    1.289   .     A
C107   O140    1.289   .     A
C107   C109    1.368   .     S
C108   C973    1.166   1_554 S
C109   C540    1.166   .     S
C110   N127    1.437   .     S
C111   N128    1.436   .     S
C111   C2      1.383   1_655 S
C112   N129    1.437   .     S
C112   C14     1.390   1_655 S
H113   N127    1.045   .     S
H114   O132    0.980   .     S
H115   O133    0.979   .     S
H116   O134    0.979   .     S
H117   N127    1.045   .     S
H118   N128    1.046   .     S
H119   N128    1.046   .     S
H120   N129    1.045   .     S
H121   N129    1.045   .     S
H122   N130    1.045   .     S
H123   N130    1.046   .     S
H124   O142    0.980   .     S
N125   Zn143   2.040   .     S
N126   Zn144   2.040   .     S
O131   Zn143   1.984   .     S
O135   Zn144   1.984   .     S
O136   Zn143   1.984   .     S
O137   Zn144   1.984   .     S
O138   Zn143   1.950   .     S
O139   Zn144   1.950   .     S
O140   Zn143   1.949   .     S
O141   Zn144   1.949   .     S
C145   C148    1.409   .     S
C145   O185    1.291   .     A
C145   O179    1.290   .     A
C146   C148    1.405   .     A
C146   N178    1.437   .     S
C146   C255    1.383   1_455 S
C147   C153    1.408   .     S
C147   C159    1.398   .     A
C147   C160    1.399   .     A
C148   C158    1.400   .     A
C149   O190    1.376   .     S
C149   N174    1.378   .     A
C150   O180    1.376   .     S
C150   N173    1.378   .     A
C150   C295    1.417   .     S
C151   O181    1.376   .     S
C151   N174    1.379   .     A
C152   N173    1.379   .     A
C152   O182    1.376   .     S
C152   C293    1.417   .     S
C153   O183    1.290   .     A
C153   O184    1.291   .     A
C154   O186    1.289   .     A
C154   O189    1.289   .     A
C154   C156    1.368   .     S
C155   O187    1.289   .     A
C155   O188    1.289   .     A
C155   C157    1.368   .     S
C156   C1021   1.166   1_554 S
C157   C588    1.166   .     S
C158   N175    1.437   .     S
C158   C256    1.390   1_455 S
C159   N176    1.436   .     S
C159   C194    1.383   .     S
C160   N177    1.437   .     S
C160   C206    1.390   .     S
H161   N175    1.045   .     S
H162   O180    0.980   .     S
H163   O181    0.979   .     S
H164   O182    0.979   .     S
H165   N175    1.045   .     S
H166   N176    1.046   .     S
H167   N176    1.046   .     S
H168   N177    1.045   .     S
H169   N177    1.045   .     S
H170   N178    1.045   .     S
H171   N178    1.046   .     S
H172   O190    0.980   .     S
N173   Zn191   2.040   .     S
N174   Zn192   2.040   .     S
O179   Zn191   1.984   .     S
O183   Zn192   1.984   .     S
O184   Zn191   1.984   .     S
O185   Zn192   1.984   .     S
O186   Zn191   1.950   .     S
O187   Zn192   1.950   .     S
O188   Zn191   1.949   .     S
O189   Zn192   1.949   .     S
C193   C196    1.409   .     S
C193   O233    1.291   .     A
C193   O227    1.290   .     A
C194   C196    1.405   .     A
C194   N226    1.437   .     S
C195   C201    1.408   .     S
C195   C207    1.398   .     A
C195   C208    1.399   .     A
C196   C206    1.400   .     A
C197   O238    1.376   .     S
C197   N222    1.378   .     A
C198   O228    1.376   .     S
C198   N221    1.378   .     A
C198   C343    1.417   .     S
C199   O229    1.376   .     S
C199   N222    1.379   .     A
C200   N221    1.379   .     A
C200   O230    1.376   .     S
C200   C341    1.417   .     S
C201   O231    1.290   .     A
C201   O232    1.291   .     A
C202   O234    1.289   .     A
C202   O237    1.289   .     A
C202   C204    1.368   .     S
C203   O235    1.289   .     A
C203   O236    1.289   .     A
C203   C205    1.368   .     S
C204   C1069   1.166   1_554 S
C205   C636    1.166   .     S
C206   N223    1.437   .     S
C207   N224    1.436   .     S
C207   C242    1.383   .     S
C208   N225    1.437   .     S
C208   C254    1.390   .     S
H209   N223    1.045   .     S
H210   O228    0.980   .     S
H211   O229    0.979   .     S
H212   O230    0.979   .     S
H213   N223    1.045   .     S
H214   N224    1.046   .     S
H215   N224    1.046   .     S
H216   N225    1.045   .     S
H217   N225    1.045   .     S
H218   N226    1.045   .     S
H219   N226    1.046   .     S
H220   O238    0.980   .     S
N221   Zn239   2.040   .     S
N222   Zn240   2.040   .     S
O227   Zn239   1.984   .     S
O231   Zn240   1.984   .     S
O232   Zn239   1.984   .     S
O233   Zn240   1.984   .     S
O234   Zn239   1.950   .     S
O235   Zn240   1.950   .     S
O236   Zn239   1.949   .     S
O237   Zn240   1.949   .     S
C241   C244    1.409   .     S
C241   O281    1.291   .     A
C241   O275    1.290   .     A
C242   C244    1.405   .     A
C242   N274    1.437   .     S
C243   C249    1.408   .     S
C243   C255    1.398   .     A
C243   C256    1.399   .     A
C244   C254    1.400   .     A
C245   O286    1.376   .     S
C245   N270    1.378   .     A
C246   O276    1.376   .     S
C246   N269    1.378   .     A
C246   C391    1.417   .     S
C247   O277    1.376   .     S
C247   N270    1.379   .     A
C248   N269    1.379   .     A
C248   O278    1.376   .     S
C248   C389    1.417   .     S
C249   O279    1.290   .     A
C249   O280    1.291   .     A
C250   O282    1.289   .     A
C250   O285    1.289   .     A
C250   C252    1.368   .     S
C251   O283    1.289   .     A
C251   O284    1.289   .     A
C251   C253    1.368   .     S
C252   C1117   1.166   1_554 S
C253   C684    1.166   .     S
C254   N271    1.437   .     S
C255   N272    1.436   .     S
C255   C146    1.383   1_655 S
C256   N273    1.437   .     S
C256   C158    1.390   1_655 S
H257   N271    1.045   .     S
H258   O276    0.980   .     S
H259   O277    0.979   .     S
H260   O278    0.979   .     S
H261   N271    1.045   .     S
H262   N272    1.046   .     S
H263   N272    1.046   .     S
H264   N273    1.045   .     S
H265   N273    1.045   .     S
H266   N274    1.045   .     S
H267   N274    1.046   .     S
H268   O286    0.980   .     S
N269   Zn287   2.040   .     S
N270   Zn288   2.040   .     S
O275   Zn287   1.984   .     S
O279   Zn288   1.984   .     S
O280   Zn287   1.984   .     S
O281   Zn288   1.984   .     S
O282   Zn287   1.950   .     S
O283   Zn288   1.950   .     S
O284   Zn287   1.949   .     S
O285   Zn288   1.949   .     S
C289   C292    1.409   .     S
C289   O329    1.291   .     A
C289   O323    1.290   .     A
C290   C292    1.405   .     A
C290   N322    1.437   .     S
C290   C399    1.383   1_455 S
C291   C297    1.408   .     S
C291   C303    1.398   .     A
C291   C304    1.399   .     A
C292   C302    1.400   .     A
C293   O334    1.376   .     S
C293   N318    1.378   .     A
C294   O324    1.376   .     S
C294   N317    1.378   .     A
C294   C7      1.417   1_565 S
C295   O325    1.376   .     S
C295   N318    1.379   .     A
C296   N317    1.379   .     A
C296   O326    1.376   .     S
C296   C5      1.417   1_565 S
C297   O327    1.290   .     A
C297   O328    1.291   .     A
C298   O330    1.289   .     A
C298   O333    1.289   .     A
C298   C300    1.368   .     S
C299   O331    1.289   .     A
C299   O332    1.289   .     A
C299   C301    1.368   .     S
C300   C1165   1.166   1_554 S
C301   C732    1.166   .     S
C302   N319    1.437   .     S
C302   C400    1.390   1_455 S
C303   N320    1.436   .     S
C303   C338    1.383   .     S
C304   N321    1.437   .     S
C304   C350    1.390   .     S
H305   N319    1.045   .     S
H306   O324    0.980   .     S
H307   O325    0.979   .     S
H308   O326    0.979   .     S
H309   N319    1.045   .     S
H310   N320    1.046   .     S
H311   N320    1.046   .     S
H312   N321    1.045   .     S
H313   N321    1.045   .     S
H314   N322    1.045   .     S
H315   N322    1.046   .     S
H316   O334    0.980   .     S
N317   Zn335   2.040   .     S
N318   Zn336   2.040   .     S
O323   Zn335   1.984   .     S
O327   Zn336   1.984   .     S
O328   Zn335   1.984   .     S
O329   Zn336   1.984   .     S
O330   Zn335   1.950   .     S
O331   Zn336   1.950   .     S
O332   Zn335   1.949   .     S
O333   Zn336   1.949   .     S
C337   C340    1.409   .     S
C337   O377    1.291   .     A
C337   O371    1.290   .     A
C338   C340    1.405   .     A
C338   N370    1.437   .     S
C339   C345    1.408   .     S
C339   C351    1.398   .     A
C339   C352    1.399   .     A
C340   C350    1.400   .     A
C341   O382    1.376   .     S
C341   N366    1.378   .     A
C342   O372    1.376   .     S
C342   N365    1.378   .     A
C342   C55     1.417   1_565 S
C343   O373    1.376   .     S
C343   N366    1.379   .     A
C344   N365    1.379   .     A
C344   O374    1.376   .     S
C344   C53     1.417   1_565 S
C345   O375    1.290   .     A
C345   O376    1.291   .     A
C346   O378    1.289   .     A
C346   O381    1.289   .     A
C346   C348    1.368   .     S
C347   O379    1.289   .     A
C347   O380    1.289   .     A
C347   C349    1.368   .     S
C348   C1213   1.166   1_554 S
C349   C780    1.166   .     S
C350   N367    1.437   .     S
C351   N368    1.436   .     S
C351   C386    1.383   .     S
C352   N369    1.437   .     S
C352   C398    1.390   .     S
H353   N367    1.045   .     S
H354   O372    0.980   .     S
H355   O373    0.979   .     S
H356   O374    0.979   .     S
H357   N367    1.045   .     S
H358   N368    1.046   .     S
H359   N368    1.046   .     S
H360   N369    1.045   .     S
H361   N369    1.045   .     S
H362   N370    1.045   .     S
H363   N370    1.046   .     S
H364   O382    0.980   .     S
N365   Zn383   2.040   .     S
N366   Zn384   2.040   .     S
O371   Zn383   1.984   .     S
O375   Zn384   1.984   .     S
O376   Zn383   1.984   .     S
O377   Zn384   1.984   .     S
O378   Zn383   1.950   .     S
O379   Zn384   1.950   .     S
O380   Zn383   1.949   .     S
O381   Zn384   1.949   .     S
C385   C388    1.409   .     S
C385   O425    1.291   .     A
C385   O419    1.290   .     A
C386   C388    1.405   .     A
C386   N418    1.437   .     S
C387   C393    1.408   .     S
C387   C399    1.398   .     A
C387   C400    1.399   .     A
C388   C398    1.400   .     A
C389   O430    1.376   .     S
C389   N414    1.378   .     A
C390   O420    1.376   .     S
C390   N413    1.378   .     A
C390   C103    1.417   1_565 S
C391   O421    1.376   .     S
C391   N414    1.379   .     A
C392   N413    1.379   .     A
C392   O422    1.376   .     S
C392   C101    1.417   1_565 S
C393   O423    1.290   .     A
C393   O424    1.291   .     A
C394   O426    1.289   .     A
C394   O429    1.289   .     A
C394   C396    1.368   .     S
C395   O427    1.289   .     A
C395   O428    1.289   .     A
C395   C397    1.368   .     S
C396   C1261   1.166   1_554 S
C397   C828    1.166   .     S
C398   N415    1.437   .     S
C399   N416    1.436   .     S
C399   C290    1.383   1_655 S
C400   N417    1.437   .     S
C400   C302    1.390   1_655 S
H401   N415    1.045   .     S
H402   O420    0.980   .     S
H403   O421    0.979   .     S
H404   O422    0.979   .     S
H405   N415    1.045   .     S
H406   N416    1.046   .     S
H407   N416    1.046   .     S
H408   N417    1.045   .     S
H409   N417    1.045   .     S
H410   N418    1.045   .     S
H411   N418    1.046   .     S
H412   O430    0.980   .     S
N413   Zn431   2.040   .     S
N414   Zn432   2.040   .     S
O419   Zn431   1.984   .     S
O423   Zn432   1.984   .     S
O424   Zn431   1.984   .     S
O425   Zn432   1.984   .     S
O426   Zn431   1.950   .     S
O427   Zn432   1.950   .     S
O428   Zn431   1.949   .     S
O429   Zn432   1.949   .     S
C433   C436    1.409   .     S
C433   O473    1.291   .     A
C433   O467    1.290   .     A
C434   C436    1.405   .     A
C434   N466    1.437   .     S
C434   C543    1.383   1_455 S
C435   C441    1.408   .     S
C435   C447    1.398   .     A
C435   C448    1.399   .     A
C436   C446    1.400   .     A
C437   O478    1.376   .     S
C437   N462    1.378   .     A
C437   C728    1.417   1_545 S
C438   O468    1.376   .     S
C438   N461    1.378   .     A
C438   C583    1.417   .     S
C439   O469    1.376   .     S
C439   N462    1.379   .     A
C439   C726    1.417   1_545 S
C440   N461    1.379   .     A
C440   O470    1.376   .     S
C440   C581    1.417   .     S
C441   O471    1.290   .     A
C441   O472    1.291   .     A
C442   O474    1.289   .     A
C442   O477    1.289   .     A
C442   C444    1.368   .     S
C443   O475    1.289   .     A
C443   O476    1.289   .     A
C443   C445    1.368   .     S
C445   C876    1.166   .     S
C446   N463    1.437   .     S
C446   C544    1.390   1_455 S
C447   N464    1.436   .     S
C447   C482    1.383   .     S
C448   N465    1.437   .     S
C448   C494    1.390   .     S
H449   N463    1.045   .     S
H450   O468    0.980   .     S
H451   O469    0.979   .     S
H452   O470    0.979   .     S
H453   N463    1.045   .     S
H454   N464    1.046   .     S
H455   N464    1.046   .     S
H456   N465    1.045   .     S
H457   N465    1.045   .     S
H458   N466    1.045   .     S
H459   N466    1.046   .     S
H460   O478    0.980   .     S
N461   Zn479   2.040   .     S
N462   Zn480   2.040   .     S
O467   Zn479   1.984   .     S
O471   Zn480   1.984   .     S
O472   Zn479   1.984   .     S
O473   Zn480   1.984   .     S
O474   Zn479   1.950   .     S
O475   Zn480   1.950   .     S
O476   Zn479   1.949   .     S
O477   Zn480   1.949   .     S
C481   C484    1.409   .     S
C481   O521    1.291   .     A
C481   O515    1.290   .     A
C482   C484    1.405   .     A
C482   N514    1.437   .     S
C483   C489    1.408   .     S
C483   C495    1.398   .     A
C483   C496    1.399   .     A
C484   C494    1.400   .     A
C485   O526    1.376   .     S
C485   N510    1.378   .     A
C485   C776    1.417   1_545 S
C486   O516    1.376   .     S
C486   N509    1.378   .     A
C486   C631    1.417   .     S
C487   O517    1.376   .     S
C487   N510    1.379   .     A
C487   C774    1.417   1_545 S
C488   N509    1.379   .     A
C488   O518    1.376   .     S
C488   C629    1.417   .     S
C489   O519    1.290   .     A
C489   O520    1.291   .     A
C490   O522    1.289   .     A
C490   O525    1.289   .     A
C490   C492    1.368   .     S
C491   O523    1.289   .     A
C491   O524    1.289   .     A
C491   C493    1.368   .     S
C493   C924    1.166   .     S
C494   N511    1.437   .     S
C495   N512    1.436   .     S
C495   C530    1.383   .     S
C496   N513    1.437   .     S
C496   C542    1.390   .     S
H497   N511    1.045   .     S
H498   O516    0.980   .     S
H499   O517    0.979   .     S
H500   O518    0.979   .     S
H501   N511    1.045   .     S
H502   N512    1.046   .     S
H503   N512    1.046   .     S
H504   N513    1.045   .     S
H505   N513    1.045   .     S
H506   N514    1.045   .     S
H507   N514    1.046   .     S
H508   O526    0.980   .     S
N509   Zn527   2.040   .     S
N510   Zn528   2.040   .     S
O515   Zn527   1.984   .     S
O519   Zn528   1.984   .     S
O520   Zn527   1.984   .     S
O521   Zn528   1.984   .     S
O522   Zn527   1.950   .     S
O523   Zn528   1.950   .     S
O524   Zn527   1.949   .     S
O525   Zn528   1.949   .     S
C529   C532    1.409   .     S
C529   O569    1.291   .     A
C529   O563    1.290   .     A
C530   C532    1.405   .     A
C530   N562    1.437   .     S
C531   C537    1.408   .     S
C531   C543    1.398   .     A
C531   C544    1.399   .     A
C532   C542    1.400   .     A
C533   O574    1.376   .     S
C533   N558    1.378   .     A
C533   C824    1.417   1_545 S
C534   O564    1.376   .     S
C534   N557    1.378   .     A
C534   C679    1.417   .     S
C535   O565    1.376   .     S
C535   N558    1.379   .     A
C535   C822    1.417   1_545 S
C536   N557    1.379   .     A
C536   O566    1.376   .     S
C536   C677    1.417   .     S
C537   O567    1.290   .     A
C537   O568    1.291   .     A
C538   O570    1.289   .     A
C538   O573    1.289   .     A
C538   C540    1.368   .     S
C539   O571    1.289   .     A
C539   O572    1.289   .     A
C539   C541    1.368   .     S
C541   C972    1.166   .     S
C542   N559    1.437   .     S
C543   N560    1.436   .     S
C543   C434    1.383   1_655 S
C544   N561    1.437   .     S
C544   C446    1.390   1_655 S
H545   N559    1.045   .     S
H546   O564    0.980   .     S
H547   O565    0.979   .     S
H548   O566    0.979   .     S
H549   N559    1.045   .     S
H550   N560    1.046   .     S
H551   N560    1.046   .     S
H552   N561    1.045   .     S
H553   N561    1.045   .     S
H554   N562    1.045   .     S
H555   N562    1.046   .     S
H556   O574    0.980   .     S
N557   Zn575   2.040   .     S
N558   Zn576   2.040   .     S
O563   Zn575   1.984   .     S
O567   Zn576   1.984   .     S
O568   Zn575   1.984   .     S
O569   Zn576   1.984   .     S
O570   Zn575   1.950   .     S
O571   Zn576   1.950   .     S
O572   Zn575   1.949   .     S
O573   Zn576   1.949   .     S
C577   C580    1.409   .     S
C577   O617    1.291   .     A
C577   O611    1.290   .     A
C578   C580    1.405   .     A
C578   N610    1.437   .     S
C578   C687    1.383   1_455 S
C579   C585    1.408   .     S
C579   C591    1.398   .     A
C579   C592    1.399   .     A
C580   C590    1.400   .     A
C581   O622    1.376   .     S
C581   N606    1.378   .     A
C582   O612    1.376   .     S
C582   N605    1.378   .     A
C582   C727    1.417   .     S
C583   O613    1.376   .     S
C583   N606    1.379   .     A
C584   N605    1.379   .     A
C584   O614    1.376   .     S
C584   C725    1.417   .     S
C585   O615    1.290   .     A
C585   O616    1.291   .     A
C586   O618    1.289   .     A
C586   O621    1.289   .     A
C586   C588    1.368   .     S
C587   O619    1.289   .     A
C587   O620    1.289   .     A
C587   C589    1.368   .     S
C589   C1020   1.166   .     S
C590   N607    1.437   .     S
C590   C688    1.390   1_455 S
C591   N608    1.436   .     S
C591   C626    1.383   .     S
C592   N609    1.437   .     S
C592   C638    1.390   .     S
H593   N607    1.045   .     S
H594   O612    0.980   .     S
H595   O613    0.979   .     S
H596   O614    0.979   .     S
H597   N607    1.045   .     S
H598   N608    1.046   .     S
H599   N608    1.046   .     S
H600   N609    1.045   .     S
H601   N609    1.045   .     S
H602   N610    1.045   .     S
H603   N610    1.046   .     S
H604   O622    0.980   .     S
N605   Zn623   2.040   .     S
N606   Zn624   2.040   .     S
O611   Zn623   1.984   .     S
O615   Zn624   1.984   .     S
O616   Zn623   1.984   .     S
O617   Zn624   1.984   .     S
O618   Zn623   1.950   .     S
O619   Zn624   1.950   .     S
O620   Zn623   1.949   .     S
O621   Zn624   1.949   .     S
C625   C628    1.409   .     S
C625   O665    1.291   .     A
C625   O659    1.290   .     A
C626   C628    1.405   .     A
C626   N658    1.437   .     S
C627   C633    1.408   .     S
C627   C639    1.398   .     A
C627   C640    1.399   .     A
C628   C638    1.400   .     A
C629   O670    1.376   .     S
C629   N654    1.378   .     A
C630   O660    1.376   .     S
C630   N653    1.378   .     A
C630   C775    1.417   .     S
C631   O661    1.376   .     S
C631   N654    1.379   .     A
C632   N653    1.379   .     A
C632   O662    1.376   .     S
C632   C773    1.417   .     S
C633   O663    1.290   .     A
C633   O664    1.291   .     A
C634   O666    1.289   .     A
C634   O669    1.289   .     A
C634   C636    1.368   .     S
C635   O667    1.289   .     A
C635   O668    1.289   .     A
C635   C637    1.368   .     S
C637   C1068   1.166   .     S
C638   N655    1.437   .     S
C639   N656    1.436   .     S
C639   C674    1.383   .     S
C640   N657    1.437   .     S
C640   C686    1.390   .     S
H641   N655    1.045   .     S
H642   O660    0.980   .     S
H643   O661    0.979   .     S
H644   O662    0.979   .     S
H645   N655    1.045   .     S
H646   N656    1.046   .     S
H647   N656    1.046   .     S
H648   N657    1.045   .     S
H649   N657    1.045   .     S
H650   N658    1.045   .     S
H651   N658    1.046   .     S
H652   O670    0.980   .     S
N653   Zn671   2.040   .     S
N654   Zn672   2.040   .     S
O659   Zn671   1.984   .     S
O663   Zn672   1.984   .     S
O664   Zn671   1.984   .     S
O665   Zn672   1.984   .     S
O666   Zn671   1.950   .     S
O667   Zn672   1.950   .     S
O668   Zn671   1.949   .     S
O669   Zn672   1.949   .     S
C673   C676    1.409   .     S
C673   O713    1.291   .     A
C673   O707    1.290   .     A
C674   C676    1.405   .     A
C674   N706    1.437   .     S
C675   C681    1.408   .     S
C675   C687    1.398   .     A
C675   C688    1.399   .     A
C676   C686    1.400   .     A
C677   O718    1.376   .     S
C677   N702    1.378   .     A
C678   O708    1.376   .     S
C678   N701    1.378   .     A
C678   C823    1.417   .     S
C679   O709    1.376   .     S
C679   N702    1.379   .     A
C680   N701    1.379   .     A
C680   O710    1.376   .     S
C680   C821    1.417   .     S
C681   O711    1.290   .     A
C681   O712    1.291   .     A
C682   O714    1.289   .     A
C682   O717    1.289   .     A
C682   C684    1.368   .     S
C683   O715    1.289   .     A
C683   O716    1.289   .     A
C683   C685    1.368   .     S
C685   C1116   1.166   .     S
C686   N703    1.437   .     S
C687   N704    1.436   .     S
C687   C578    1.383   1_655 S
C688   N705    1.437   .     S
C688   C590    1.390   1_655 S
H689   N703    1.045   .     S
H690   O708    0.980   .     S
H691   O709    0.979   .     S
H692   O710    0.979   .     S
H693   N703    1.045   .     S
H694   N704    1.046   .     S
H695   N704    1.046   .     S
H696   N705    1.045   .     S
H697   N705    1.045   .     S
H698   N706    1.045   .     S
H699   N706    1.046   .     S
H700   O718    0.980   .     S
N701   Zn719   2.040   .     S
N702   Zn720   2.040   .     S
O707   Zn719   1.984   .     S
O711   Zn720   1.984   .     S
O712   Zn719   1.984   .     S
O713   Zn720   1.984   .     S
O714   Zn719   1.950   .     S
O715   Zn720   1.950   .     S
O716   Zn719   1.949   .     S
O717   Zn720   1.949   .     S
C721   C724    1.409   .     S
C721   O761    1.291   .     A
C721   O755    1.290   .     A
C722   C724    1.405   .     A
C722   N754    1.437   .     S
C722   C831    1.383   1_455 S
C723   C729    1.408   .     S
C723   C735    1.398   .     A
C723   C736    1.399   .     A
C724   C734    1.400   .     A
C725   O766    1.376   .     S
C725   N750    1.378   .     A
C726   O756    1.376   .     S
C726   N749    1.378   .     A
C726   C439    1.417   1_565 S
C727   O757    1.376   .     S
C727   N750    1.379   .     A
C728   N749    1.379   .     A
C728   O758    1.376   .     S
C728   C437    1.417   1_565 S
C729   O759    1.290   .     A
C729   O760    1.291   .     A
C730   O762    1.289   .     A
C730   O765    1.289   .     A
C730   C732    1.368   .     S
C731   O763    1.289   .     A
C731   O764    1.289   .     A
C731   C733    1.368   .     S
C733   C1164   1.166   .     S
C734   N751    1.437   .     S
C734   C832    1.390   1_455 S
C735   N752    1.436   .     S
C735   C770    1.383   .     S
C736   N753    1.437   .     S
C736   C782    1.390   .     S
H737   N751    1.045   .     S
H738   O756    0.980   .     S
H739   O757    0.979   .     S
H740   O758    0.979   .     S
H741   N751    1.045   .     S
H742   N752    1.046   .     S
H743   N752    1.046   .     S
H744   N753    1.045   .     S
H745   N753    1.045   .     S
H746   N754    1.045   .     S
H747   N754    1.046   .     S
H748   O766    0.980   .     S
N749   Zn767   2.040   .     S
N750   Zn768   2.040   .     S
O755   Zn767   1.984   .     S
O759   Zn768   1.984   .     S
O760   Zn767   1.984   .     S
O761   Zn768   1.984   .     S
O762   Zn767   1.950   .     S
O763   Zn768   1.950   .     S
O764   Zn767   1.949   .     S
O765   Zn768   1.949   .     S
C769   C772    1.409   .     S
C769   O809    1.291   .     A
C769   O803    1.290   .     A
C770   C772    1.405   .     A
C770   N802    1.437   .     S
C771   C777    1.408   .     S
C771   C783    1.398   .     A
C771   C784    1.399   .     A
C772   C782    1.400   .     A
C773   O814    1.376   .     S
C773   N798    1.378   .     A
C774   O804    1.376   .     S
C774   N797    1.378   .     A
C774   C487    1.417   1_565 S
C775   O805    1.376   .     S
C775   N798    1.379   .     A
C776   N797    1.379   .     A
C776   O806    1.376   .     S
C776   C485    1.417   1_565 S
C777   O807    1.290   .     A
C777   O808    1.291   .     A
C778   O810    1.289   .     A
C778   O813    1.289   .     A
C778   C780    1.368   .     S
C779   O811    1.289   .     A
C779   O812    1.289   .     A
C779   C781    1.368   .     S
C781   C1212   1.166   .     S
C782   N799    1.437   .     S
C783   N800    1.436   .     S
C783   C818    1.383   .     S
C784   N801    1.437   .     S
C784   C830    1.390   .     S
H785   N799    1.045   .     S
H786   O804    0.980   .     S
H787   O805    0.979   .     S
H788   O806    0.979   .     S
H789   N799    1.045   .     S
H790   N800    1.046   .     S
H791   N800    1.046   .     S
H792   N801    1.045   .     S
H793   N801    1.045   .     S
H794   N802    1.045   .     S
H795   N802    1.046   .     S
H796   O814    0.980   .     S
N797   Zn815   2.040   .     S
N798   Zn816   2.040   .     S
O803   Zn815   1.984   .     S
O807   Zn816   1.984   .     S
O808   Zn815   1.984   .     S
O809   Zn816   1.984   .     S
O810   Zn815   1.950   .     S
O811   Zn816   1.950   .     S
O812   Zn815   1.949   .     S
O813   Zn816   1.949   .     S
C817   C820    1.409   .     S
C817   O857    1.291   .     A
C817   O851    1.290   .     A
C818   C820    1.405   .     A
C818   N850    1.437   .     S
C819   C825    1.408   .     S
C819   C831    1.398   .     A
C819   C832    1.399   .     A
C820   C830    1.400   .     A
C821   O862    1.376   .     S
C821   N846    1.378   .     A
C822   O852    1.376   .     S
C822   N845    1.378   .     A
C822   C535    1.417   1_565 S
C823   O853    1.376   .     S
C823   N846    1.379   .     A
C824   N845    1.379   .     A
C824   O854    1.376   .     S
C824   C533    1.417   1_565 S
C825   O855    1.290   .     A
C825   O856    1.291   .     A
C826   O858    1.289   .     A
C826   O861    1.289   .     A
C826   C828    1.368   .     S
C827   O859    1.289   .     A
C827   O860    1.289   .     A
C827   C829    1.368   .     S
C829   C1260   1.166   .     S
C830   N847    1.437   .     S
C831   N848    1.436   .     S
C831   C722    1.383   1_655 S
C832   N849    1.437   .     S
C832   C734    1.390   1_655 S
H833   N847    1.045   .     S
H834   O852    0.980   .     S
H835   O853    0.979   .     S
H836   O854    0.979   .     S
H837   N847    1.045   .     S
H838   N848    1.046   .     S
H839   N848    1.046   .     S
H840   N849    1.045   .     S
H841   N849    1.045   .     S
H842   N850    1.045   .     S
H843   N850    1.046   .     S
H844   O862    0.980   .     S
N845   Zn863   2.040   .     S
N846   Zn864   2.040   .     S
O851   Zn863   1.984   .     S
O855   Zn864   1.984   .     S
O856   Zn863   1.984   .     S
O857   Zn864   1.984   .     S
O858   Zn863   1.950   .     S
O859   Zn864   1.950   .     S
O860   Zn863   1.949   .     S
O861   Zn864   1.949   .     S
C865   C868    1.409   .     S
C865   O905    1.291   .     A
C865   O899    1.290   .     A
C866   C868    1.405   .     A
C866   N898    1.437   .     S
C866   C975    1.383   1_455 S
C867   C873    1.408   .     S
C867   C879    1.398   .     A
C867   C880    1.399   .     A
C868   C878    1.400   .     A
C869   O910    1.376   .     S
C869   N894    1.378   .     A
C869   C1160   1.417   1_545 S
C870   O900    1.376   .     S
C870   N893    1.378   .     A
C870   C1015   1.417   .     S
C871   O901    1.376   .     S
C871   N894    1.379   .     A
C871   C1158   1.417   1_545 S
C872   N893    1.379   .     A
C872   O902    1.376   .     S
C872   C1013   1.417   .     S
C873   O903    1.290   .     A
C873   O904    1.291   .     A
C874   O906    1.289   .     A
C874   O909    1.289   .     A
C874   C876    1.368   .     S
C875   O907    1.289   .     A
C875   O908    1.289   .     A
C875   C877    1.368   .     S
C877   C12     1.166   1_556 S
C878   N895    1.437   .     S
C878   C976    1.390   1_455 S
C879   N896    1.436   .     S
C879   C914    1.383   .     S
C880   N897    1.437   .     S
C880   C926    1.390   .     S
H881   N895    1.045   .     S
H882   O900    0.980   .     S
H883   O901    0.979   .     S
H884   O902    0.979   .     S
H885   N895    1.045   .     S
H886   N896    1.046   .     S
H887   N896    1.046   .     S
H888   N897    1.045   .     S
H889   N897    1.045   .     S
H890   N898    1.045   .     S
H891   N898    1.046   .     S
H892   O910    0.980   .     S
N893   Zn911   2.040   .     S
N894   Zn912   2.040   .     S
O899   Zn911   1.984   .     S
O903   Zn912   1.984   .     S
O904   Zn911   1.984   .     S
O905   Zn912   1.984   .     S
O906   Zn911   1.950   .     S
O907   Zn912   1.950   .     S
O908   Zn911   1.949   .     S
O909   Zn912   1.949   .     S
C913   C916    1.409   .     S
C913   O953    1.291   .     A
C913   O947    1.290   .     A
C914   C916    1.405   .     A
C914   N946    1.437   .     S
C915   C921    1.408   .     S
C915   C927    1.398   .     A
C915   C928    1.399   .     A
C916   C926    1.400   .     A
C917   O958    1.376   .     S
C917   N942    1.378   .     A
C917   C1208   1.417   1_545 S
C918   O948    1.376   .     S
C918   N941    1.378   .     A
C918   C1063   1.417   .     S
C919   O949    1.376   .     S
C919   N942    1.379   .     A
C919   C1206   1.417   1_545 S
C920   N941    1.379   .     A
C920   O950    1.376   .     S
C920   C1061   1.417   .     S
C921   O951    1.290   .     A
C921   O952    1.291   .     A
C922   O954    1.289   .     A
C922   O957    1.289   .     A
C922   C924    1.368   .     S
C923   O955    1.289   .     A
C923   O956    1.289   .     A
C923   C925    1.368   .     S
C925   C60     1.166   1_556 S
C926   N943    1.437   .     S
C927   N944    1.436   .     S
C927   C962    1.383   .     S
C928   N945    1.437   .     S
C928   C974    1.390   .     S
H929   N943    1.045   .     S
H930   O948    0.980   .     S
H931   O949    0.979   .     S
H932   O950    0.979   .     S
H933   N943    1.045   .     S
H934   N944    1.046   .     S
H935   N944    1.046   .     S
H936   N945    1.045   .     S
H937   N945    1.045   .     S
H938   N946    1.045   .     S
H939   N946    1.046   .     S
H940   O958    0.980   .     S
N941   Zn959   2.040   .     S
N942   Zn960   2.040   .     S
O947   Zn959   1.984   .     S
O951   Zn960   1.984   .     S
O952   Zn959   1.984   .     S
O953   Zn960   1.984   .     S
O954   Zn959   1.950   .     S
O955   Zn960   1.950   .     S
O956   Zn959   1.949   .     S
O957   Zn960   1.949   .     S
C961   C964    1.409   .     S
C961   O1001   1.291   .     A
C961   O995    1.290   .     A
C962   C964    1.405   .     A
C962   N994    1.437   .     S
C963   C969    1.408   .     S
C963   C975    1.398   .     A
C963   C976    1.399   .     A
C964   C974    1.400   .     A
C965   O1006   1.376   .     S
C965   N990    1.378   .     A
C965   C1256   1.417   1_545 S
C966   O996    1.376   .     S
C966   N989    1.378   .     A
C966   C1111   1.417   .     S
C967   O997    1.376   .     S
C967   N990    1.379   .     A
C967   C1254   1.417   1_545 S
C968   N989    1.379   .     A
C968   O998    1.376   .     S
C968   C1109   1.417   .     S
C969   O999    1.290   .     A
C969   O1000   1.291   .     A
C970   O1002   1.289   .     A
C970   O1005   1.289   .     A
C970   C972    1.368   .     S
C971   O1003   1.289   .     A
C971   O1004   1.289   .     A
C971   C973    1.368   .     S
C973   C108    1.166   1_556 S
C974   N991    1.437   .     S
C975   N992    1.436   .     S
C975   C866    1.383   1_655 S
C976   N993    1.437   .     S
C976   C878    1.390   1_655 S
H977   N991    1.045   .     S
H978   O996    0.980   .     S
H979   O997    0.979   .     S
H980   O998    0.979   .     S
H981   N991    1.045   .     S
H982   N992    1.046   .     S
H983   N992    1.046   .     S
H984   N993    1.045   .     S
H985   N993    1.045   .     S
H986   N994    1.045   .     S
H987   N994    1.046   .     S
H988   O1006   0.980   .     S
N989   Zn1007  2.040   .     S
N990   Zn1008  2.040   .     S
O995   Zn1007  1.984   .     S
O999   Zn1008  1.984   .     S
O1000  Zn1007  1.984   .     S
O1001  Zn1008  1.984   .     S
O1002  Zn1007  1.950   .     S
O1003  Zn1008  1.950   .     S
O1004  Zn1007  1.949   .     S
O1005  Zn1008  1.949   .     S
C1009  C1012   1.409   .     S
C1009  O1049   1.291   .     A
C1009  O1043   1.290   .     A
C1010  C1012   1.405   .     A
C1010  N1042   1.437   .     S
C1010  C1119   1.383   1_455 S
C1011  C1017   1.408   .     S
C1011  C1023   1.398   .     A
C1011  C1024   1.399   .     A
C1012  C1022   1.400   .     A
C1013  O1054   1.376   .     S
C1013  N1038   1.378   .     A
C1014  O1044   1.376   .     S
C1014  N1037   1.378   .     A
C1014  C1159   1.417   .     S
C1015  O1045   1.376   .     S
C1015  N1038   1.379   .     A
C1016  N1037   1.379   .     A
C1016  O1046   1.376   .     S
C1016  C1157   1.417   .     S
C1017  O1047   1.290   .     A
C1017  O1048   1.291   .     A
C1018  O1050   1.289   .     A
C1018  O1053   1.289   .     A
C1018  C1020   1.368   .     S
C1019  O1051   1.289   .     A
C1019  O1052   1.289   .     A
C1019  C1021   1.368   .     S
C1021  C156    1.166   1_556 S
C1022  N1039   1.437   .     S
C1022  C1120   1.390   1_455 S
C1023  N1040   1.436   .     S
C1023  C1058   1.383   .     S
C1024  N1041   1.437   .     S
C1024  C1070   1.390   .     S
H1025  N1039   1.045   .     S
H1026  O1044   0.980   .     S
H1027  O1045   0.979   .     S
H1028  O1046   0.979   .     S
H1029  N1039   1.045   .     S
H1030  N1040   1.046   .     S
H1031  N1040   1.046   .     S
H1032  N1041   1.045   .     S
H1033  N1041   1.045   .     S
H1034  N1042   1.045   .     S
H1035  N1042   1.046   .     S
H1036  O1054   0.980   .     S
N1037  Zn1055  2.040   .     S
N1038  Zn1056  2.040   .     S
O1043  Zn1055  1.984   .     S
O1047  Zn1056  1.984   .     S
O1048  Zn1055  1.984   .     S
O1049  Zn1056  1.984   .     S
O1050  Zn1055  1.950   .     S
O1051  Zn1056  1.950   .     S
O1052  Zn1055  1.949   .     S
O1053  Zn1056  1.949   .     S
C1057  C1060   1.409   .     S
C1057  O1097   1.291   .     A
C1057  O1091   1.290   .     A
C1058  C1060   1.405   .     A
C1058  N1090   1.437   .     S
C1059  C1065   1.408   .     S
C1059  C1071   1.398   .     A
C1059  C1072   1.399   .     A
C1060  C1070   1.400   .     A
C1061  O1102   1.376   .     S
C1061  N1086   1.378   .     A
C1062  O1092   1.376   .     S
C1062  N1085   1.378   .     A
C1062  C1207   1.417   .     S
C1063  O1093   1.376   .     S
C1063  N1086   1.379   .     A
C1064  N1085   1.379   .     A
C1064  O1094   1.376   .     S
C1064  C1205   1.417   .     S
C1065  O1095   1.290   .     A
C1065  O1096   1.291   .     A
C1066  O1098   1.289   .     A
C1066  O1101   1.289   .     A
C1066  C1068   1.368   .     S
C1067  O1099   1.289   .     A
C1067  O1100   1.289   .     A
C1067  C1069   1.368   .     S
C1069  C204    1.166   1_556 S
C1070  N1087   1.437   .     S
C1071  N1088   1.436   .     S
C1071  C1106   1.383   .     S
C1072  N1089   1.437   .     S
C1072  C1118   1.390   .     S
H1073  N1087   1.045   .     S
H1074  O1092   0.980   .     S
H1075  O1093   0.979   .     S
H1076  O1094   0.979   .     S
H1077  N1087   1.045   .     S
H1078  N1088   1.046   .     S
H1079  N1088   1.046   .     S
H1080  N1089   1.045   .     S
H1081  N1089   1.045   .     S
H1082  N1090   1.045   .     S
H1083  N1090   1.046   .     S
H1084  O1102   0.980   .     S
N1085  Zn1103  2.040   .     S
N1086  Zn1104  2.040   .     S
O1091  Zn1103  1.984   .     S
O1095  Zn1104  1.984   .     S
O1096  Zn1103  1.984   .     S
O1097  Zn1104  1.984   .     S
O1098  Zn1103  1.950   .     S
O1099  Zn1104  1.950   .     S
O1100  Zn1103  1.949   .     S
O1101  Zn1104  1.949   .     S
C1105  C1108   1.409   .     S
C1105  O1145   1.291   .     A
C1105  O1139   1.290   .     A
C1106  C1108   1.405   .     A
C1106  N1138   1.437   .     S
C1107  C1113   1.408   .     S
C1107  C1119   1.398   .     A
C1107  C1120   1.399   .     A
C1108  C1118   1.400   .     A
C1109  O1150   1.376   .     S
C1109  N1134   1.378   .     A
C1110  O1140   1.376   .     S
C1110  N1133   1.378   .     A
C1110  C1255   1.417   .     S
C1111  O1141   1.376   .     S
C1111  N1134   1.379   .     A
C1112  N1133   1.379   .     A
C1112  O1142   1.376   .     S
C1112  C1253   1.417   .     S
C1113  O1143   1.290   .     A
C1113  O1144   1.291   .     A
C1114  O1146   1.289   .     A
C1114  O1149   1.289   .     A
C1114  C1116   1.368   .     S
C1115  O1147   1.289   .     A
C1115  O1148   1.289   .     A
C1115  C1117   1.368   .     S
C1117  C252    1.166   1_556 S
C1118  N1135   1.437   .     S
C1119  N1136   1.436   .     S
C1119  C1010   1.383   1_655 S
C1120  N1137   1.437   .     S
C1120  C1022   1.390   1_655 S
H1121  N1135   1.045   .     S
H1122  O1140   0.980   .     S
H1123  O1141   0.979   .     S
H1124  O1142   0.979   .     S
H1125  N1135   1.045   .     S
H1126  N1136   1.046   .     S
H1127  N1136   1.046   .     S
H1128  N1137   1.045   .     S
H1129  N1137   1.045   .     S
H1130  N1138   1.045   .     S
H1131  N1138   1.046   .     S
H1132  O1150   0.980   .     S
N1133  Zn1151  2.040   .     S
N1134  Zn1152  2.040   .     S
O1139  Zn1151  1.984   .     S
O1143  Zn1152  1.984   .     S
O1144  Zn1151  1.984   .     S
O1145  Zn1152  1.984   .     S
O1146  Zn1151  1.950   .     S
O1147  Zn1152  1.950   .     S
O1148  Zn1151  1.949   .     S
O1149  Zn1152  1.949   .     S
C1153  C1156   1.409   .     S
C1153  O1193   1.291   .     A
C1153  O1187   1.290   .     A
C1154  C1156   1.405   .     A
C1154  N1186   1.437   .     S
C1154  C1263   1.383   1_455 S
C1155  C1161   1.408   .     S
C1155  C1167   1.398   .     A
C1155  C1168   1.399   .     A
C1156  C1166   1.400   .     A
C1157  O1198   1.376   .     S
C1157  N1182   1.378   .     A
C1158  O1188   1.376   .     S
C1158  N1181   1.378   .     A
C1158  C871    1.417   1_565 S
C1159  O1189   1.376   .     S
C1159  N1182   1.379   .     A
C1160  N1181   1.379   .     A
C1160  O1190   1.376   .     S
C1160  C869    1.417   1_565 S
C1161  O1191   1.290   .     A
C1161  O1192   1.291   .     A
C1162  O1194   1.289   .     A
C1162  O1197   1.289   .     A
C1162  C1164   1.368   .     S
C1163  O1195   1.289   .     A
C1163  O1196   1.289   .     A
C1163  C1165   1.368   .     S
C1165  C300    1.166   1_556 S
C1166  N1183   1.437   .     S
C1166  C1264   1.390   1_455 S
C1167  N1184   1.436   .     S
C1167  C1202   1.383   .     S
C1168  N1185   1.437   .     S
C1168  C1214   1.390   .     S
H1169  N1183   1.045   .     S
H1170  O1188   0.980   .     S
H1171  O1189   0.979   .     S
H1172  O1190   0.979   .     S
H1173  N1183   1.045   .     S
H1174  N1184   1.046   .     S
H1175  N1184   1.046   .     S
H1176  N1185   1.045   .     S
H1177  N1185   1.045   .     S
H1178  N1186   1.045   .     S
H1179  N1186   1.046   .     S
H1180  O1198   0.980   .     S
N1181  Zn1199  2.040   .     S
N1182  Zn1200  2.040   .     S
O1187  Zn1199  1.984   .     S
O1191  Zn1200  1.984   .     S
O1192  Zn1199  1.984   .     S
O1193  Zn1200  1.984   .     S
O1194  Zn1199  1.950   .     S
O1195  Zn1200  1.950   .     S
O1196  Zn1199  1.949   .     S
O1197  Zn1200  1.949   .     S
C1201  C1204   1.409   .     S
C1201  O1241   1.291   .     A
C1201  O1235   1.290   .     A
C1202  C1204   1.405   .     A
C1202  N1234   1.437   .     S
C1203  C1209   1.408   .     S
C1203  C1215   1.398   .     A
C1203  C1216   1.399   .     A
C1204  C1214   1.400   .     A
C1205  O1246   1.376   .     S
C1205  N1230   1.378   .     A
C1206  O1236   1.376   .     S
C1206  N1229   1.378   .     A
C1206  C919    1.417   1_565 S
C1207  O1237   1.376   .     S
C1207  N1230   1.379   .     A
C1208  N1229   1.379   .     A
C1208  O1238   1.376   .     S
C1208  C917    1.417   1_565 S
C1209  O1239   1.290   .     A
C1209  O1240   1.291   .     A
C1210  O1242   1.289   .     A
C1210  O1245   1.289   .     A
C1210  C1212   1.368   .     S
C1211  O1243   1.289   .     A
C1211  O1244   1.289   .     A
C1211  C1213   1.368   .     S
C1213  C348    1.166   1_556 S
C1214  N1231   1.437   .     S
C1215  N1232   1.436   .     S
C1215  C1250   1.383   .     S
C1216  N1233   1.437   .     S
C1216  C1262   1.390   .     S
H1217  N1231   1.045   .     S
H1218  O1236   0.980   .     S
H1219  O1237   0.979   .     S
H1220  O1238   0.979   .     S
H1221  N1231   1.045   .     S
H1222  N1232   1.046   .     S
H1223  N1232   1.046   .     S
H1224  N1233   1.045   .     S
H1225  N1233   1.045   .     S
H1226  N1234   1.045   .     S
H1227  N1234   1.046   .     S
H1228  O1246   0.980   .     S
N1229  Zn1247  2.040   .     S
N1230  Zn1248  2.040   .     S
O1235  Zn1247  1.984   .     S
O1239  Zn1248  1.984   .     S
O1240  Zn1247  1.984   .     S
O1241  Zn1248  1.984   .     S
O1242  Zn1247  1.950   .     S
O1243  Zn1248  1.950   .     S
O1244  Zn1247  1.949   .     S
O1245  Zn1248  1.949   .     S
C1249  C1252   1.409   .     S
C1249  O1289   1.291   .     A
C1249  O1283   1.290   .     A
C1250  C1252   1.405   .     A
C1250  N1282   1.437   .     S
C1251  C1257   1.408   .     S
C1251  C1263   1.398   .     A
C1251  C1264   1.399   .     A
C1252  C1262   1.400   .     A
C1253  O1294   1.376   .     S
C1253  N1278   1.378   .     A
C1254  O1284   1.376   .     S
C1254  N1277   1.378   .     A
C1254  C967    1.417   1_565 S
C1255  O1285   1.376   .     S
C1255  N1278   1.379   .     A
C1256  N1277   1.379   .     A
C1256  O1286   1.376   .     S
C1256  C965    1.417   1_565 S
C1257  O1287   1.290   .     A
C1257  O1288   1.291   .     A
C1258  O1290   1.289   .     A
C1258  O1293   1.289   .     A
C1258  C1260   1.368   .     S
C1259  O1291   1.289   .     A
C1259  O1292   1.289   .     A
C1259  C1261   1.368   .     S
C1261  C396    1.166   1_556 S
C1262  N1279   1.437   .     S
C1263  N1280   1.436   .     S
C1263  C1154   1.383   1_655 S
C1264  N1281   1.437   .     S
C1264  C1166   1.390   1_655 S
H1265  N1279   1.045   .     S
H1266  O1284   0.980   .     S
H1267  O1285   0.979   .     S
H1268  O1286   0.979   .     S
H1269  N1279   1.045   .     S
H1270  N1280   1.046   .     S
H1271  N1280   1.046   .     S
H1272  N1281   1.045   .     S
H1273  N1281   1.045   .     S
H1274  N1282   1.045   .     S
H1275  N1282   1.046   .     S
H1276  O1294   0.980   .     S
N1277  Zn1295  2.040   .     S
N1278  Zn1296  2.040   .     S
O1283  Zn1295  1.984   .     S
O1287  Zn1296  1.984   .     S
O1288  Zn1295  1.984   .     S
O1289  Zn1296  1.984   .     S
O1290  Zn1295  1.950   .     S
O1291  Zn1296  1.950   .     S
O1292  Zn1295  1.949   .     S
O1293  Zn1296  1.949   .     S
