data_str_m3_o1_o16_pcu_sym.168
_audit_creation_date              2020-01-03
_audit_creation_method            'Materials Studio'
_symmetry_space_group_name_H-M    'P1'
_symmetry_Int_Tables_number       1
_symmetry_cell_setting            triclinic
loop_
_symmetry_equiv_pos_as_xyz
  x,y,z
_cell_length_a                    29.6439
_cell_length_b                    31.9578
_cell_length_c                    26.1297
_cell_angle_alpha                 89.9141
_cell_angle_beta                  70.4166
_cell_angle_gamma                 89.4408
loop_
_atom_site_label
_atom_site_type_symbol
_atom_site_fract_x
_atom_site_fract_y
_atom_site_fract_z
_atom_site_U_iso_or_equiv
_atom_site_adp_type
_atom_site_occupancy
C1     C     0.16667   0.24652   0.24930   0.00000  Uiso   1.00
C2     C     0.13902   0.17555   0.49522   0.00000  Uiso   1.00
C3     C     0.14813   0.18512   0.44050   0.00000  Uiso   1.00
C4     C     0.17620   0.18342   0.01682   0.00000  Uiso   1.00
C5     C     0.21488   0.21051   0.48953   0.00000  Uiso   1.00
C6     C     0.21336   0.23105   0.44200   0.00000  Uiso   1.00
C7     C     0.18228   0.21604   0.41626   0.00000  Uiso   1.00
C8     C     0.17738   0.16230   0.06300   0.00000  Uiso   1.00
C9     C     0.24728   0.19960   0.06306   0.00000  Uiso   1.00
C10    C     0.12242   0.16427   0.41171   0.00000  Uiso   1.00
C11    C     0.17660   0.31089   0.28997   0.00000  Uiso   1.00
C12    C     0.14004   0.16620   0.35225   0.00000  Uiso   1.00
C13    C     0.17608   0.02064   0.29219   0.00000  Uiso   1.00
C14    C     0.16717   0.04261   0.24974   0.00000  Uiso   1.00
C15    C     0.15748   0.02238   0.20663   0.00000  Uiso   1.00
C16    C     0.15599   0.31222   0.20657   0.00000  Uiso   1.00
C17    C     0.16654   0.29065   0.24809   0.00000  Uiso   1.00
C18    C     0.31537   0.13291   0.23120   0.00000  Uiso   1.00
C19    C     0.02985   0.13290   0.23133   0.00000  Uiso   1.00
C20    C     0.01685   0.19994   0.27088   0.00000  Uiso   1.00
C21    C     0.30284   0.20007   0.26952   0.00000  Uiso   1.00
C22    C     0.16665   0.08684   0.25066   0.00000  Uiso   1.00
C23    C     0.19314   0.16703   0.14774   0.00000  Uiso   1.00
C24    C     0.25312   0.21517   0.01098   0.00000  Uiso   1.00
C25    C     0.20849   0.17421   0.08944   0.00000  Uiso   1.00
C26    C     0.08267   0.13894   0.43980   0.00000  Uiso   1.00
C27    C     0.06652   0.13800   0.49703   0.00000  Uiso   1.00
C28    C     0.09404   0.15750   0.02514   0.00000  Uiso   1.00
H29    H     0.27287   0.20707   0.08304   0.00000  Uiso   1.00
H30    H     0.30229   0.10594   0.21573   0.00000  Uiso   1.00
H31    H     0.05263   0.10593   0.21602   0.00000  Uiso   1.00
H32    H     0.27919   0.22641   0.28567   0.00000  Uiso   1.00
H33    H     0.15250   0.13760   0.08095   0.00000  Uiso   1.00
H34    H     0.18304   0.23031   0.37839   0.00000  Uiso   1.00
H35    H     0.18356   0.29274   0.32167   0.00000  Uiso   1.00
N36    N     0.04760   0.16668   0.25001   0.00000  Uiso   1.00
N37    N     0.28573   0.16665   0.25000   0.00000  Uiso   1.00
O38    O     0.12846   0.22775   0.25000   0.00000  Uiso   1.00
O39    O     0.20490   0.22774   0.25000   0.00000  Uiso   1.00
O40    O     0.10947   0.16666   0.32681   0.00000  Uiso   1.00
O41    O     0.18591   0.16665   0.32681   0.00000  Uiso   1.00
O42    O     0.12843   0.10559   0.24999   0.00000  Uiso   1.00
O43    O     0.20488   0.10558   0.24999   0.00000  Uiso   1.00
O44    O     0.14742   0.16668   0.17319   0.00000  Uiso   1.00
O45    O     0.22387   0.16667   0.17319   0.00000  Uiso   1.00
Zn46   Zn    0.11562   0.16667   0.25000   0.00000  Uiso   1.00
Zn47   Zn    0.21771   0.16666   0.25000   0.00000  Uiso   1.00
C48    C     0.18325   0.04196   0.33961   0.00000  Uiso   1.00
H49    H     0.17945   0.07560   0.34455   0.00000  Uiso   1.00
O50    O     0.19302   0.02200   0.37445   0.00000  Uiso   1.00
C51    C     0.15322   0.04656   0.15970   0.00000  Uiso   1.00
O52    O     0.18685   0.06763   0.13220   0.00000  Uiso   1.00
O53    O     0.11080   0.04562   0.14754   0.00000  Uiso   1.00
H54    H     0.11253   0.06322   0.11464   0.00000  Uiso   1.00
C55    C     0.14730   0.28947   0.16136   0.00000  Uiso   1.00
O56    O     0.17850   0.26668   0.13185   0.00000  Uiso   1.00
O57    O     0.10353   0.29418   0.15270   0.00000  Uiso   1.00
H58    H     0.10275   0.27858   0.11929   0.00000  Uiso   1.00
C59    C     0.03068   0.23552   0.29777   0.00000  Uiso   1.00
O60    O     0.04598   0.22948   0.33514   0.00000  Uiso   1.00
O61    O     0.02390   0.27632   0.28223   0.00000  Uiso   1.00
H62    H     0.03436   0.29820   0.30389   0.00000  Uiso   1.00
C63    C     0.23944   0.27033   0.42121   0.00000  Uiso   1.00
O64    O     0.25454   0.27735   0.37241   0.00000  Uiso   1.00
O65    O     0.24509   0.30014   0.45767   0.00000  Uiso   1.00
H66    H     0.26306   0.32571   0.43867   0.00000  Uiso   1.00
C67    C     0.30076   0.23195   0.47870   0.00000  Uiso   1.00
H68    H     0.31183   0.23306   0.43482   0.00000  Uiso   1.00
O69    O     0.32890   0.24357   0.00070   0.00000  Uiso   1.00
C70    C     0.05662   0.11428   0.41047   0.00000  Uiso   1.00
H71    H     0.01777   0.11478   0.42437   0.00000  Uiso   1.00
O72    O     0.07822   0.09170   0.37232   0.00000  Uiso   1.00
C73    C     0.07336   0.16329   0.08483   0.00000  Uiso   1.00
O74    O     0.05524   0.13383   0.11403   0.00000  Uiso   1.00
O75    O     0.07587   0.20239   0.10750   0.00000  Uiso   1.00
H76    H     0.06069   0.20266   0.14847   0.00000  Uiso   1.00
C77    C     0.02195   0.11513   0.02699   0.00000  Uiso   1.00
O78    O     0.32226   0.13326   0.06105   0.00000  Uiso   1.00
O79    O     0.01790   0.07280   0.01593   0.00000  Uiso   1.00
H80    H     0.31928   0.06075   0.03868   0.00000  Uiso   1.00
C81    C     0.50000   0.24652   0.24930   0.00000  Uiso   1.00
C82    C     0.47235   0.17555   0.49522   0.00000  Uiso   1.00
C83    C     0.48147   0.18512   0.44050   0.00000  Uiso   1.00
C84    C     0.50954   0.18342   0.01682   0.00000  Uiso   1.00
C85    C     0.54821   0.21051   0.48953   0.00000  Uiso   1.00
C86    C     0.54670   0.23105   0.44200   0.00000  Uiso   1.00
C87    C     0.51561   0.21604   0.41626   0.00000  Uiso   1.00
C88    C     0.51071   0.16230   0.06300   0.00000  Uiso   1.00
C89    C     0.58062   0.19960   0.06306   0.00000  Uiso   1.00
C90    C     0.45575   0.16427   0.41171   0.00000  Uiso   1.00
C91    C     0.50994   0.31089   0.28997   0.00000  Uiso   1.00
C92    C     0.47338   0.16620   0.35225   0.00000  Uiso   1.00
C93    C     0.50941   0.02064   0.29219   0.00000  Uiso   1.00
C94    C     0.50050   0.04261   0.24974   0.00000  Uiso   1.00
C95    C     0.49082   0.02238   0.20663   0.00000  Uiso   1.00
C96    C     0.48933   0.31222   0.20657   0.00000  Uiso   1.00
C97    C     0.49988   0.29065   0.24809   0.00000  Uiso   1.00
C98    C     0.64870   0.13291   0.23120   0.00000  Uiso   1.00
C99    C     0.36318   0.13290   0.23133   0.00000  Uiso   1.00
C100   C     0.35019   0.19994   0.27088   0.00000  Uiso   1.00
C101   C     0.63617   0.20007   0.26952   0.00000  Uiso   1.00
C102   C     0.49998   0.08684   0.25066   0.00000  Uiso   1.00
C103   C     0.52648   0.16703   0.14774   0.00000  Uiso   1.00
C104   C     0.58645   0.21517   0.01098   0.00000  Uiso   1.00
C105   C     0.54182   0.17421   0.08944   0.00000  Uiso   1.00
C106   C     0.41600   0.13894   0.43980   0.00000  Uiso   1.00
C107   C     0.39986   0.13800   0.49703   0.00000  Uiso   1.00
C108   C     0.42737   0.15750   0.02514   0.00000  Uiso   1.00
H109   H     0.60621   0.20707   0.08304   0.00000  Uiso   1.00
H110   H     0.63563   0.10594   0.21573   0.00000  Uiso   1.00
H111   H     0.38597   0.10593   0.21602   0.00000  Uiso   1.00
H112   H     0.61252   0.22641   0.28567   0.00000  Uiso   1.00
H113   H     0.48583   0.13760   0.08095   0.00000  Uiso   1.00
H114   H     0.51637   0.23031   0.37839   0.00000  Uiso   1.00
H115   H     0.51690   0.29274   0.32167   0.00000  Uiso   1.00
N116   N     0.38093   0.16668   0.25001   0.00000  Uiso   1.00
N117   N     0.61906   0.16665   0.25000   0.00000  Uiso   1.00
O118   O     0.46179   0.22775   0.25000   0.00000  Uiso   1.00
O119   O     0.53823   0.22774   0.25000   0.00000  Uiso   1.00
O120   O     0.44280   0.16666   0.32681   0.00000  Uiso   1.00
O121   O     0.51924   0.16665   0.32681   0.00000  Uiso   1.00
O122   O     0.46177   0.10559   0.24999   0.00000  Uiso   1.00
O123   O     0.53821   0.10558   0.24999   0.00000  Uiso   1.00
O124   O     0.48076   0.16668   0.17319   0.00000  Uiso   1.00
O125   O     0.55720   0.16667   0.17319   0.00000  Uiso   1.00
Zn126  Zn    0.44896   0.16667   0.25000   0.00000  Uiso   1.00
Zn127  Zn    0.55104   0.16666   0.25000   0.00000  Uiso   1.00
C128   C     0.51658   0.04196   0.33961   0.00000  Uiso   1.00
H129   H     0.51278   0.07560   0.34455   0.00000  Uiso   1.00
O130   O     0.52636   0.02200   0.37445   0.00000  Uiso   1.00
C131   C     0.48655   0.04656   0.15970   0.00000  Uiso   1.00
O132   O     0.52018   0.06763   0.13220   0.00000  Uiso   1.00
O133   O     0.44414   0.04562   0.14754   0.00000  Uiso   1.00
H134   H     0.44587   0.06322   0.11464   0.00000  Uiso   1.00
C135   C     0.48063   0.28947   0.16136   0.00000  Uiso   1.00
O136   O     0.51183   0.26668   0.13185   0.00000  Uiso   1.00
O137   O     0.43686   0.29418   0.15270   0.00000  Uiso   1.00
H138   H     0.43609   0.27858   0.11929   0.00000  Uiso   1.00
C139   C     0.36402   0.23552   0.29777   0.00000  Uiso   1.00
O140   O     0.37931   0.22948   0.33514   0.00000  Uiso   1.00
O141   O     0.35724   0.27632   0.28223   0.00000  Uiso   1.00
H142   H     0.36770   0.29820   0.30389   0.00000  Uiso   1.00
C143   C     0.57278   0.27033   0.42121   0.00000  Uiso   1.00
O144   O     0.58787   0.27735   0.37241   0.00000  Uiso   1.00
O145   O     0.57842   0.30014   0.45767   0.00000  Uiso   1.00
H146   H     0.59640   0.32571   0.43867   0.00000  Uiso   1.00
C147   C     0.63409   0.23195   0.47870   0.00000  Uiso   1.00
H148   H     0.64516   0.23306   0.43482   0.00000  Uiso   1.00
O149   O     0.66223   0.24357   0.00070   0.00000  Uiso   1.00
C150   C     0.38995   0.11428   0.41047   0.00000  Uiso   1.00
H151   H     0.35110   0.11478   0.42437   0.00000  Uiso   1.00
O152   O     0.41156   0.09170   0.37232   0.00000  Uiso   1.00
C153   C     0.40670   0.16329   0.08483   0.00000  Uiso   1.00
O154   O     0.38857   0.13383   0.11403   0.00000  Uiso   1.00
O155   O     0.40920   0.20239   0.10750   0.00000  Uiso   1.00
H156   H     0.39402   0.20266   0.14847   0.00000  Uiso   1.00
C157   C     0.35528   0.11513   0.02699   0.00000  Uiso   1.00
O158   O     0.65559   0.13326   0.06105   0.00000  Uiso   1.00
O159   O     0.35123   0.07280   0.01593   0.00000  Uiso   1.00
H160   H     0.65261   0.06075   0.03868   0.00000  Uiso   1.00
C161   C     0.83333   0.24652   0.24930   0.00000  Uiso   1.00
C162   C     0.80569   0.17555   0.49522   0.00000  Uiso   1.00
C163   C     0.81480   0.18512   0.44050   0.00000  Uiso   1.00
C164   C     0.84287   0.18342   0.01682   0.00000  Uiso   1.00
C165   C     0.88154   0.21051   0.48953   0.00000  Uiso   1.00
C166   C     0.88003   0.23105   0.44200   0.00000  Uiso   1.00
C167   C     0.84895   0.21604   0.41626   0.00000  Uiso   1.00
C168   C     0.84405   0.16230   0.06300   0.00000  Uiso   1.00
C169   C     0.91395   0.19960   0.06306   0.00000  Uiso   1.00
C170   C     0.78908   0.16427   0.41171   0.00000  Uiso   1.00
C171   C     0.84327   0.31089   0.28997   0.00000  Uiso   1.00
C172   C     0.80671   0.16620   0.35225   0.00000  Uiso   1.00
C173   C     0.84274   0.02064   0.29219   0.00000  Uiso   1.00
C174   C     0.83383   0.04261   0.24974   0.00000  Uiso   1.00
C175   C     0.82415   0.02238   0.20663   0.00000  Uiso   1.00
C176   C     0.82266   0.31222   0.20657   0.00000  Uiso   1.00
C177   C     0.83321   0.29065   0.24809   0.00000  Uiso   1.00
C178   C     0.98204   0.13291   0.23120   0.00000  Uiso   1.00
C179   C     0.69651   0.13290   0.23133   0.00000  Uiso   1.00
C180   C     0.68352   0.19994   0.27088   0.00000  Uiso   1.00
C181   C     0.96951   0.20007   0.26952   0.00000  Uiso   1.00
C182   C     0.83331   0.08684   0.25066   0.00000  Uiso   1.00
C183   C     0.85981   0.16703   0.14774   0.00000  Uiso   1.00
C184   C     0.91979   0.21517   0.01098   0.00000  Uiso   1.00
C185   C     0.87516   0.17421   0.08944   0.00000  Uiso   1.00
C186   C     0.74934   0.13894   0.43980   0.00000  Uiso   1.00
C187   C     0.73319   0.13800   0.49703   0.00000  Uiso   1.00
C188   C     0.76071   0.15750   0.02514   0.00000  Uiso   1.00
H189   H     0.93954   0.20707   0.08304   0.00000  Uiso   1.00
H190   H     0.96896   0.10594   0.21573   0.00000  Uiso   1.00
H191   H     0.71930   0.10593   0.21602   0.00000  Uiso   1.00
H192   H     0.94585   0.22641   0.28567   0.00000  Uiso   1.00
H193   H     0.81917   0.13760   0.08095   0.00000  Uiso   1.00
H194   H     0.84971   0.23031   0.37839   0.00000  Uiso   1.00
H195   H     0.85023   0.29274   0.32167   0.00000  Uiso   1.00
N196   N     0.71426   0.16668   0.25001   0.00000  Uiso   1.00
N197   N     0.95239   0.16665   0.25000   0.00000  Uiso   1.00
O198   O     0.79512   0.22775   0.25000   0.00000  Uiso   1.00
O199   O     0.87157   0.22774   0.25000   0.00000  Uiso   1.00
O200   O     0.77613   0.16666   0.32681   0.00000  Uiso   1.00
O201   O     0.85258   0.16665   0.32681   0.00000  Uiso   1.00
O202   O     0.79510   0.10559   0.24999   0.00000  Uiso   1.00
O203   O     0.87154   0.10558   0.24999   0.00000  Uiso   1.00
O204   O     0.81409   0.16668   0.17319   0.00000  Uiso   1.00
O205   O     0.89053   0.16667   0.17319   0.00000  Uiso   1.00
Zn206  Zn    0.78229   0.16667   0.25000   0.00000  Uiso   1.00
Zn207  Zn    0.88438   0.16666   0.25000   0.00000  Uiso   1.00
C208   C     0.84992   0.04196   0.33961   0.00000  Uiso   1.00
H209   H     0.84612   0.07560   0.34455   0.00000  Uiso   1.00
O210   O     0.85969   0.02200   0.37445   0.00000  Uiso   1.00
C211   C     0.81988   0.04656   0.15970   0.00000  Uiso   1.00
O212   O     0.85351   0.06763   0.13220   0.00000  Uiso   1.00
O213   O     0.77747   0.04562   0.14754   0.00000  Uiso   1.00
H214   H     0.77920   0.06322   0.11464   0.00000  Uiso   1.00
C215   C     0.81397   0.28947   0.16136   0.00000  Uiso   1.00
O216   O     0.84517   0.26668   0.13185   0.00000  Uiso   1.00
O217   O     0.77020   0.29418   0.15270   0.00000  Uiso   1.00
H218   H     0.76942   0.27858   0.11929   0.00000  Uiso   1.00
C219   C     0.69735   0.23552   0.29777   0.00000  Uiso   1.00
O220   O     0.71264   0.22948   0.33514   0.00000  Uiso   1.00
O221   O     0.69057   0.27632   0.28223   0.00000  Uiso   1.00
H222   H     0.70103   0.29820   0.30389   0.00000  Uiso   1.00
C223   C     0.90611   0.27033   0.42121   0.00000  Uiso   1.00
O224   O     0.92120   0.27735   0.37241   0.00000  Uiso   1.00
O225   O     0.91176   0.30014   0.45767   0.00000  Uiso   1.00
H226   H     0.92973   0.32571   0.43867   0.00000  Uiso   1.00
C227   C     0.96743   0.23195   0.47870   0.00000  Uiso   1.00
H228   H     0.97850   0.23306   0.43482   0.00000  Uiso   1.00
O229   O     0.99557   0.24357   0.00070   0.00000  Uiso   1.00
C230   C     0.72329   0.11428   0.41047   0.00000  Uiso   1.00
H231   H     0.68443   0.11478   0.42437   0.00000  Uiso   1.00
O232   O     0.74489   0.09170   0.37232   0.00000  Uiso   1.00
C233   C     0.74003   0.16329   0.08483   0.00000  Uiso   1.00
O234   O     0.72190   0.13383   0.11403   0.00000  Uiso   1.00
O235   O     0.74254   0.20239   0.10750   0.00000  Uiso   1.00
H236   H     0.72735   0.20266   0.14847   0.00000  Uiso   1.00
C237   C     0.68862   0.11513   0.02699   0.00000  Uiso   1.00
O238   O     0.98893   0.13326   0.06105   0.00000  Uiso   1.00
O239   O     0.68456   0.07280   0.01593   0.00000  Uiso   1.00
H240   H     0.98594   0.06075   0.03868   0.00000  Uiso   1.00
C241   C     0.16667   0.57985   0.24930   0.00000  Uiso   1.00
C242   C     0.13902   0.50888   0.49522   0.00000  Uiso   1.00
C243   C     0.14813   0.51845   0.44050   0.00000  Uiso   1.00
C244   C     0.17620   0.51676   0.01682   0.00000  Uiso   1.00
C245   C     0.21488   0.54384   0.48953   0.00000  Uiso   1.00
C246   C     0.21336   0.56439   0.44200   0.00000  Uiso   1.00
C247   C     0.18228   0.54937   0.41626   0.00000  Uiso   1.00
C248   C     0.17738   0.49564   0.06300   0.00000  Uiso   1.00
C249   C     0.24728   0.53294   0.06306   0.00000  Uiso   1.00
C250   C     0.12242   0.49761   0.41171   0.00000  Uiso   1.00
C251   C     0.17660   0.64422   0.28997   0.00000  Uiso   1.00
C252   C     0.14004   0.49953   0.35225   0.00000  Uiso   1.00
C253   C     0.17608   0.35397   0.29219   0.00000  Uiso   1.00
C254   C     0.16717   0.37595   0.24974   0.00000  Uiso   1.00
C255   C     0.15748   0.35571   0.20663   0.00000  Uiso   1.00
C256   C     0.15599   0.64556   0.20657   0.00000  Uiso   1.00
C257   C     0.16654   0.62399   0.24809   0.00000  Uiso   1.00
C258   C     0.31537   0.46625   0.23120   0.00000  Uiso   1.00
C259   C     0.02985   0.46623   0.23133   0.00000  Uiso   1.00
C260   C     0.01685   0.53328   0.27088   0.00000  Uiso   1.00
C261   C     0.30284   0.53340   0.26952   0.00000  Uiso   1.00
C262   C     0.16665   0.42017   0.25066   0.00000  Uiso   1.00
C263   C     0.19314   0.50036   0.14774   0.00000  Uiso   1.00
C264   C     0.25312   0.54850   0.01098   0.00000  Uiso   1.00
C265   C     0.20849   0.50755   0.08944   0.00000  Uiso   1.00
C266   C     0.08267   0.47227   0.43980   0.00000  Uiso   1.00
C267   C     0.06652   0.47134   0.49703   0.00000  Uiso   1.00
C268   C     0.09404   0.49083   0.02514   0.00000  Uiso   1.00
H269   H     0.27287   0.54041   0.08304   0.00000  Uiso   1.00
H270   H     0.30229   0.43927   0.21573   0.00000  Uiso   1.00
H271   H     0.05263   0.43926   0.21602   0.00000  Uiso   1.00
H272   H     0.27919   0.55974   0.28567   0.00000  Uiso   1.00
H273   H     0.15250   0.47093   0.08095   0.00000  Uiso   1.00
H274   H     0.18304   0.56365   0.37839   0.00000  Uiso   1.00
H275   H     0.18356   0.62607   0.32167   0.00000  Uiso   1.00
N276   N     0.04760   0.50001   0.25001   0.00000  Uiso   1.00
N277   N     0.28573   0.49998   0.25000   0.00000  Uiso   1.00
O278   O     0.12846   0.56108   0.25000   0.00000  Uiso   1.00
O279   O     0.20490   0.56107   0.25000   0.00000  Uiso   1.00
O280   O     0.10947   0.50000   0.32681   0.00000  Uiso   1.00
O281   O     0.18591   0.49999   0.32681   0.00000  Uiso   1.00
O282   O     0.12843   0.43893   0.24999   0.00000  Uiso   1.00
O283   O     0.20488   0.43892   0.24999   0.00000  Uiso   1.00
O284   O     0.14742   0.50001   0.17319   0.00000  Uiso   1.00
O285   O     0.22387   0.50000   0.17319   0.00000  Uiso   1.00
Zn286  Zn    0.11562   0.50001   0.25000   0.00000  Uiso   1.00
Zn287  Zn    0.21771   0.49999   0.25000   0.00000  Uiso   1.00
C288   C     0.18325   0.37529   0.33961   0.00000  Uiso   1.00
H289   H     0.17945   0.40893   0.34455   0.00000  Uiso   1.00
O290   O     0.19302   0.35533   0.37445   0.00000  Uiso   1.00
C291   C     0.15322   0.37989   0.15970   0.00000  Uiso   1.00
O292   O     0.18685   0.40096   0.13220   0.00000  Uiso   1.00
O293   O     0.11080   0.37896   0.14754   0.00000  Uiso   1.00
H294   H     0.11253   0.39655   0.11464   0.00000  Uiso   1.00
C295   C     0.14730   0.62280   0.16136   0.00000  Uiso   1.00
O296   O     0.17850   0.60001   0.13185   0.00000  Uiso   1.00
O297   O     0.10353   0.62751   0.15270   0.00000  Uiso   1.00
H298   H     0.10275   0.61191   0.11929   0.00000  Uiso   1.00
C299   C     0.03068   0.56885   0.29777   0.00000  Uiso   1.00
O300   O     0.04598   0.56281   0.33514   0.00000  Uiso   1.00
O301   O     0.02390   0.60966   0.28223   0.00000  Uiso   1.00
H302   H     0.03436   0.63153   0.30389   0.00000  Uiso   1.00
C303   C     0.23944   0.60366   0.42121   0.00000  Uiso   1.00
O304   O     0.25454   0.61068   0.37241   0.00000  Uiso   1.00
O305   O     0.24509   0.63348   0.45767   0.00000  Uiso   1.00
H306   H     0.26306   0.65904   0.43867   0.00000  Uiso   1.00
C307   C     0.30076   0.56528   0.47870   0.00000  Uiso   1.00
H308   H     0.31183   0.56640   0.43482   0.00000  Uiso   1.00
O309   O     0.32890   0.57690   0.00070   0.00000  Uiso   1.00
C310   C     0.05662   0.44761   0.41047   0.00000  Uiso   1.00
H311   H     0.01777   0.44811   0.42437   0.00000  Uiso   1.00
O312   O     0.07822   0.42503   0.37232   0.00000  Uiso   1.00
C313   C     0.07336   0.49663   0.08483   0.00000  Uiso   1.00
O314   O     0.05524   0.46716   0.11403   0.00000  Uiso   1.00
O315   O     0.07587   0.53572   0.10750   0.00000  Uiso   1.00
H316   H     0.06069   0.53600   0.14847   0.00000  Uiso   1.00
C317   C     0.02195   0.44846   0.02699   0.00000  Uiso   1.00
O318   O     0.32226   0.46659   0.06105   0.00000  Uiso   1.00
O319   O     0.01790   0.40614   0.01593   0.00000  Uiso   1.00
H320   H     0.31928   0.39408   0.03868   0.00000  Uiso   1.00
C321   C     0.50000   0.57985   0.24930   0.00000  Uiso   1.00
C322   C     0.47235   0.50888   0.49522   0.00000  Uiso   1.00
C323   C     0.48147   0.51845   0.44050   0.00000  Uiso   1.00
C324   C     0.50954   0.51676   0.01682   0.00000  Uiso   1.00
C325   C     0.54821   0.54384   0.48953   0.00000  Uiso   1.00
C326   C     0.54670   0.56439   0.44200   0.00000  Uiso   1.00
C327   C     0.51561   0.54937   0.41626   0.00000  Uiso   1.00
C328   C     0.51071   0.49564   0.06300   0.00000  Uiso   1.00
C329   C     0.58062   0.53294   0.06306   0.00000  Uiso   1.00
C330   C     0.45575   0.49761   0.41171   0.00000  Uiso   1.00
C331   C     0.50994   0.64422   0.28997   0.00000  Uiso   1.00
C332   C     0.47338   0.49953   0.35225   0.00000  Uiso   1.00
C333   C     0.50941   0.35397   0.29219   0.00000  Uiso   1.00
C334   C     0.50050   0.37595   0.24974   0.00000  Uiso   1.00
C335   C     0.49082   0.35571   0.20663   0.00000  Uiso   1.00
C336   C     0.48933   0.64556   0.20657   0.00000  Uiso   1.00
C337   C     0.49988   0.62399   0.24809   0.00000  Uiso   1.00
C338   C     0.64870   0.46625   0.23120   0.00000  Uiso   1.00
C339   C     0.36318   0.46623   0.23133   0.00000  Uiso   1.00
C340   C     0.35019   0.53328   0.27088   0.00000  Uiso   1.00
C341   C     0.63617   0.53340   0.26952   0.00000  Uiso   1.00
C342   C     0.49998   0.42017   0.25066   0.00000  Uiso   1.00
C343   C     0.52648   0.50036   0.14774   0.00000  Uiso   1.00
C344   C     0.58645   0.54850   0.01098   0.00000  Uiso   1.00
C345   C     0.54182   0.50755   0.08944   0.00000  Uiso   1.00
C346   C     0.41600   0.47227   0.43980   0.00000  Uiso   1.00
C347   C     0.39986   0.47134   0.49703   0.00000  Uiso   1.00
C348   C     0.42737   0.49083   0.02514   0.00000  Uiso   1.00
H349   H     0.60621   0.54041   0.08304   0.00000  Uiso   1.00
H350   H     0.63563   0.43927   0.21573   0.00000  Uiso   1.00
H351   H     0.38597   0.43926   0.21602   0.00000  Uiso   1.00
H352   H     0.61252   0.55974   0.28567   0.00000  Uiso   1.00
H353   H     0.48583   0.47093   0.08095   0.00000  Uiso   1.00
H354   H     0.51637   0.56365   0.37839   0.00000  Uiso   1.00
H355   H     0.51690   0.62607   0.32167   0.00000  Uiso   1.00
N356   N     0.38093   0.50001   0.25001   0.00000  Uiso   1.00
N357   N     0.61906   0.49998   0.25000   0.00000  Uiso   1.00
O358   O     0.46179   0.56108   0.25000   0.00000  Uiso   1.00
O359   O     0.53823   0.56107   0.25000   0.00000  Uiso   1.00
O360   O     0.44280   0.50000   0.32681   0.00000  Uiso   1.00
O361   O     0.51924   0.49999   0.32681   0.00000  Uiso   1.00
O362   O     0.46177   0.43893   0.24999   0.00000  Uiso   1.00
O363   O     0.53821   0.43892   0.24999   0.00000  Uiso   1.00
O364   O     0.48076   0.50001   0.17319   0.00000  Uiso   1.00
O365   O     0.55720   0.50000   0.17319   0.00000  Uiso   1.00
Zn366  Zn    0.44896   0.50001   0.25000   0.00000  Uiso   1.00
Zn367  Zn    0.55104   0.49999   0.25000   0.00000  Uiso   1.00
C368   C     0.51658   0.37529   0.33961   0.00000  Uiso   1.00
H369   H     0.51278   0.40893   0.34455   0.00000  Uiso   1.00
O370   O     0.52636   0.35533   0.37445   0.00000  Uiso   1.00
C371   C     0.48655   0.37989   0.15970   0.00000  Uiso   1.00
O372   O     0.52018   0.40096   0.13220   0.00000  Uiso   1.00
O373   O     0.44414   0.37896   0.14754   0.00000  Uiso   1.00
H374   H     0.44587   0.39655   0.11464   0.00000  Uiso   1.00
C375   C     0.48063   0.62280   0.16136   0.00000  Uiso   1.00
O376   O     0.51183   0.60001   0.13185   0.00000  Uiso   1.00
O377   O     0.43686   0.62751   0.15270   0.00000  Uiso   1.00
H378   H     0.43609   0.61191   0.11929   0.00000  Uiso   1.00
C379   C     0.36402   0.56885   0.29777   0.00000  Uiso   1.00
O380   O     0.37931   0.56281   0.33514   0.00000  Uiso   1.00
O381   O     0.35724   0.60966   0.28223   0.00000  Uiso   1.00
H382   H     0.36770   0.63153   0.30389   0.00000  Uiso   1.00
C383   C     0.57278   0.60366   0.42121   0.00000  Uiso   1.00
O384   O     0.58787   0.61068   0.37241   0.00000  Uiso   1.00
O385   O     0.57842   0.63348   0.45767   0.00000  Uiso   1.00
H386   H     0.59640   0.65904   0.43867   0.00000  Uiso   1.00
C387   C     0.63409   0.56528   0.47870   0.00000  Uiso   1.00
H388   H     0.64516   0.56640   0.43482   0.00000  Uiso   1.00
O389   O     0.66223   0.57690   0.00070   0.00000  Uiso   1.00
C390   C     0.38995   0.44761   0.41047   0.00000  Uiso   1.00
H391   H     0.35110   0.44811   0.42437   0.00000  Uiso   1.00
O392   O     0.41156   0.42503   0.37232   0.00000  Uiso   1.00
C393   C     0.40670   0.49663   0.08483   0.00000  Uiso   1.00
O394   O     0.38857   0.46716   0.11403   0.00000  Uiso   1.00
O395   O     0.40920   0.53572   0.10750   0.00000  Uiso   1.00
H396   H     0.39402   0.53600   0.14847   0.00000  Uiso   1.00
C397   C     0.35528   0.44846   0.02699   0.00000  Uiso   1.00
O398   O     0.65559   0.46659   0.06105   0.00000  Uiso   1.00
O399   O     0.35123   0.40614   0.01593   0.00000  Uiso   1.00
H400   H     0.65261   0.39408   0.03868   0.00000  Uiso   1.00
C401   C     0.83333   0.57985   0.24930   0.00000  Uiso   1.00
C402   C     0.80569   0.50888   0.49522   0.00000  Uiso   1.00
C403   C     0.81480   0.51845   0.44050   0.00000  Uiso   1.00
C404   C     0.84287   0.51676   0.01682   0.00000  Uiso   1.00
C405   C     0.88154   0.54384   0.48953   0.00000  Uiso   1.00
C406   C     0.88003   0.56439   0.44200   0.00000  Uiso   1.00
C407   C     0.84895   0.54937   0.41626   0.00000  Uiso   1.00
C408   C     0.84405   0.49564   0.06300   0.00000  Uiso   1.00
C409   C     0.91395   0.53294   0.06306   0.00000  Uiso   1.00
C410   C     0.78908   0.49761   0.41171   0.00000  Uiso   1.00
C411   C     0.84327   0.64422   0.28997   0.00000  Uiso   1.00
C412   C     0.80671   0.49953   0.35225   0.00000  Uiso   1.00
C413   C     0.84274   0.35397   0.29219   0.00000  Uiso   1.00
C414   C     0.83383   0.37595   0.24974   0.00000  Uiso   1.00
C415   C     0.82415   0.35571   0.20663   0.00000  Uiso   1.00
C416   C     0.82266   0.64556   0.20657   0.00000  Uiso   1.00
C417   C     0.83321   0.62399   0.24809   0.00000  Uiso   1.00
C418   C     0.98204   0.46625   0.23120   0.00000  Uiso   1.00
C419   C     0.69651   0.46623   0.23133   0.00000  Uiso   1.00
C420   C     0.68352   0.53328   0.27088   0.00000  Uiso   1.00
C421   C     0.96951   0.53340   0.26952   0.00000  Uiso   1.00
C422   C     0.83331   0.42017   0.25066   0.00000  Uiso   1.00
C423   C     0.85981   0.50036   0.14774   0.00000  Uiso   1.00
C424   C     0.91979   0.54850   0.01098   0.00000  Uiso   1.00
C425   C     0.87516   0.50755   0.08944   0.00000  Uiso   1.00
C426   C     0.74934   0.47227   0.43980   0.00000  Uiso   1.00
C427   C     0.73319   0.47134   0.49703   0.00000  Uiso   1.00
C428   C     0.76071   0.49083   0.02514   0.00000  Uiso   1.00
H429   H     0.93954   0.54041   0.08304   0.00000  Uiso   1.00
H430   H     0.96896   0.43927   0.21573   0.00000  Uiso   1.00
H431   H     0.71930   0.43926   0.21602   0.00000  Uiso   1.00
H432   H     0.94585   0.55974   0.28567   0.00000  Uiso   1.00
H433   H     0.81917   0.47093   0.08095   0.00000  Uiso   1.00
H434   H     0.84971   0.56365   0.37839   0.00000  Uiso   1.00
H435   H     0.85023   0.62607   0.32167   0.00000  Uiso   1.00
N436   N     0.71426   0.50001   0.25001   0.00000  Uiso   1.00
N437   N     0.95239   0.49998   0.25000   0.00000  Uiso   1.00
O438   O     0.79512   0.56108   0.25000   0.00000  Uiso   1.00
O439   O     0.87157   0.56107   0.25000   0.00000  Uiso   1.00
O440   O     0.77613   0.50000   0.32681   0.00000  Uiso   1.00
O441   O     0.85258   0.49999   0.32681   0.00000  Uiso   1.00
O442   O     0.79510   0.43893   0.24999   0.00000  Uiso   1.00
O443   O     0.87154   0.43892   0.24999   0.00000  Uiso   1.00
O444   O     0.81409   0.50001   0.17319   0.00000  Uiso   1.00
O445   O     0.89053   0.50000   0.17319   0.00000  Uiso   1.00
Zn446  Zn    0.78229   0.50001   0.25000   0.00000  Uiso   1.00
Zn447  Zn    0.88438   0.49999   0.25000   0.00000  Uiso   1.00
C448   C     0.84992   0.37529   0.33961   0.00000  Uiso   1.00
H449   H     0.84612   0.40893   0.34455   0.00000  Uiso   1.00
O450   O     0.85969   0.35533   0.37445   0.00000  Uiso   1.00
C451   C     0.81988   0.37989   0.15970   0.00000  Uiso   1.00
O452   O     0.85351   0.40096   0.13220   0.00000  Uiso   1.00
O453   O     0.77747   0.37896   0.14754   0.00000  Uiso   1.00
H454   H     0.77920   0.39655   0.11464   0.00000  Uiso   1.00
C455   C     0.81397   0.62280   0.16136   0.00000  Uiso   1.00
O456   O     0.84517   0.60001   0.13185   0.00000  Uiso   1.00
O457   O     0.77020   0.62751   0.15270   0.00000  Uiso   1.00
H458   H     0.76942   0.61191   0.11929   0.00000  Uiso   1.00
C459   C     0.69735   0.56885   0.29777   0.00000  Uiso   1.00
O460   O     0.71264   0.56281   0.33514   0.00000  Uiso   1.00
O461   O     0.69057   0.60966   0.28223   0.00000  Uiso   1.00
H462   H     0.70103   0.63153   0.30389   0.00000  Uiso   1.00
C463   C     0.90611   0.60366   0.42121   0.00000  Uiso   1.00
O464   O     0.92120   0.61068   0.37241   0.00000  Uiso   1.00
O465   O     0.91176   0.63348   0.45767   0.00000  Uiso   1.00
H466   H     0.92973   0.65904   0.43867   0.00000  Uiso   1.00
C467   C     0.96743   0.56528   0.47870   0.00000  Uiso   1.00
H468   H     0.97850   0.56640   0.43482   0.00000  Uiso   1.00
O469   O     0.99557   0.57690   0.00070   0.00000  Uiso   1.00
C470   C     0.72329   0.44761   0.41047   0.00000  Uiso   1.00
H471   H     0.68443   0.44811   0.42437   0.00000  Uiso   1.00
O472   O     0.74489   0.42503   0.37232   0.00000  Uiso   1.00
C473   C     0.74003   0.49663   0.08483   0.00000  Uiso   1.00
O474   O     0.72190   0.46716   0.11403   0.00000  Uiso   1.00
O475   O     0.74254   0.53572   0.10750   0.00000  Uiso   1.00
H476   H     0.72735   0.53600   0.14847   0.00000  Uiso   1.00
C477   C     0.68862   0.44846   0.02699   0.00000  Uiso   1.00
O478   O     0.98893   0.46659   0.06105   0.00000  Uiso   1.00
O479   O     0.68456   0.40614   0.01593   0.00000  Uiso   1.00
H480   H     0.98594   0.39408   0.03868   0.00000  Uiso   1.00
C481   C     0.16667   0.91318   0.24930   0.00000  Uiso   1.00
C482   C     0.13902   0.84222   0.49522   0.00000  Uiso   1.00
C483   C     0.14813   0.85178   0.44050   0.00000  Uiso   1.00
C484   C     0.17620   0.85009   0.01682   0.00000  Uiso   1.00
C485   C     0.21488   0.87717   0.48953   0.00000  Uiso   1.00
C486   C     0.21336   0.89772   0.44200   0.00000  Uiso   1.00
C487   C     0.18228   0.88270   0.41626   0.00000  Uiso   1.00
C488   C     0.17738   0.82897   0.06300   0.00000  Uiso   1.00
C489   C     0.24728   0.86627   0.06306   0.00000  Uiso   1.00
C490   C     0.12242   0.83094   0.41171   0.00000  Uiso   1.00
C491   C     0.17660   0.97756   0.28997   0.00000  Uiso   1.00
C492   C     0.14004   0.83287   0.35225   0.00000  Uiso   1.00
C493   C     0.17608   0.68730   0.29219   0.00000  Uiso   1.00
C494   C     0.16717   0.70928   0.24974   0.00000  Uiso   1.00
C495   C     0.15748   0.68905   0.20663   0.00000  Uiso   1.00
C496   C     0.15599   0.97889   0.20657   0.00000  Uiso   1.00
C497   C     0.16654   0.95732   0.24809   0.00000  Uiso   1.00
C498   C     0.31537   0.79958   0.23120   0.00000  Uiso   1.00
C499   C     0.02985   0.79957   0.23133   0.00000  Uiso   1.00
C500   C     0.01685   0.86661   0.27088   0.00000  Uiso   1.00
C501   C     0.30284   0.86673   0.26952   0.00000  Uiso   1.00
C502   C     0.16665   0.75350   0.25066   0.00000  Uiso   1.00
C503   C     0.19314   0.83369   0.14774   0.00000  Uiso   1.00
C504   C     0.25312   0.88184   0.01098   0.00000  Uiso   1.00
C505   C     0.20849   0.84088   0.08944   0.00000  Uiso   1.00
C506   C     0.08267   0.80561   0.43980   0.00000  Uiso   1.00
C507   C     0.06652   0.80467   0.49703   0.00000  Uiso   1.00
C508   C     0.09404   0.82417   0.02514   0.00000  Uiso   1.00
H509   H     0.27287   0.87374   0.08304   0.00000  Uiso   1.00
H510   H     0.30229   0.77261   0.21573   0.00000  Uiso   1.00
H511   H     0.05263   0.77259   0.21602   0.00000  Uiso   1.00
H512   H     0.27919   0.89308   0.28567   0.00000  Uiso   1.00
H513   H     0.15250   0.80427   0.08095   0.00000  Uiso   1.00
H514   H     0.18304   0.89698   0.37839   0.00000  Uiso   1.00
H515   H     0.18356   0.95941   0.32167   0.00000  Uiso   1.00
N516   N     0.04760   0.83334   0.25001   0.00000  Uiso   1.00
N517   N     0.28573   0.83331   0.25000   0.00000  Uiso   1.00
O518   O     0.12846   0.89442   0.25000   0.00000  Uiso   1.00
O519   O     0.20490   0.89441   0.25000   0.00000  Uiso   1.00
O520   O     0.10947   0.83333   0.32681   0.00000  Uiso   1.00
O521   O     0.18591   0.83332   0.32681   0.00000  Uiso   1.00
O522   O     0.12843   0.77226   0.24999   0.00000  Uiso   1.00
O523   O     0.20488   0.77225   0.24999   0.00000  Uiso   1.00
O524   O     0.14742   0.83335   0.17319   0.00000  Uiso   1.00
O525   O     0.22387   0.83334   0.17319   0.00000  Uiso   1.00
Zn526  Zn    0.11562   0.83334   0.25000   0.00000  Uiso   1.00
Zn527  Zn    0.21771   0.83333   0.25000   0.00000  Uiso   1.00
C528   C     0.18325   0.70862   0.33961   0.00000  Uiso   1.00
H529   H     0.17945   0.74226   0.34455   0.00000  Uiso   1.00
O530   O     0.19302   0.68866   0.37445   0.00000  Uiso   1.00
C531   C     0.15322   0.71322   0.15970   0.00000  Uiso   1.00
O532   O     0.18685   0.73429   0.13220   0.00000  Uiso   1.00
O533   O     0.11080   0.71229   0.14754   0.00000  Uiso   1.00
H534   H     0.11253   0.72989   0.11464   0.00000  Uiso   1.00
C535   C     0.14730   0.95613   0.16136   0.00000  Uiso   1.00
O536   O     0.17850   0.93334   0.13185   0.00000  Uiso   1.00
O537   O     0.10353   0.96084   0.15270   0.00000  Uiso   1.00
H538   H     0.10275   0.94525   0.11929   0.00000  Uiso   1.00
C539   C     0.03068   0.90219   0.29777   0.00000  Uiso   1.00
O540   O     0.04598   0.89615   0.33514   0.00000  Uiso   1.00
O541   O     0.02390   0.94299   0.28223   0.00000  Uiso   1.00
H542   H     0.03436   0.96486   0.30389   0.00000  Uiso   1.00
C543   C     0.23944   0.93700   0.42121   0.00000  Uiso   1.00
O544   O     0.25454   0.94401   0.37241   0.00000  Uiso   1.00
O545   O     0.24509   0.96681   0.45767   0.00000  Uiso   1.00
H546   H     0.26306   0.99238   0.43867   0.00000  Uiso   1.00
C547   C     0.30076   0.89862   0.47870   0.00000  Uiso   1.00
H548   H     0.31183   0.89973   0.43482   0.00000  Uiso   1.00
O549   O     0.32890   0.91024   0.00070   0.00000  Uiso   1.00
C550   C     0.05662   0.78094   0.41047   0.00000  Uiso   1.00
H551   H     0.01777   0.78144   0.42437   0.00000  Uiso   1.00
O552   O     0.07822   0.75837   0.37232   0.00000  Uiso   1.00
C553   C     0.07336   0.82996   0.08483   0.00000  Uiso   1.00
O554   O     0.05524   0.80049   0.11403   0.00000  Uiso   1.00
O555   O     0.07587   0.86906   0.10750   0.00000  Uiso   1.00
H556   H     0.06069   0.86933   0.14847   0.00000  Uiso   1.00
C557   C     0.02195   0.78179   0.02699   0.00000  Uiso   1.00
O558   O     0.32226   0.79993   0.06105   0.00000  Uiso   1.00
O559   O     0.01790   0.73947   0.01593   0.00000  Uiso   1.00
H560   H     0.31928   0.72741   0.03868   0.00000  Uiso   1.00
C561   C     0.50000   0.91318   0.24930   0.00000  Uiso   1.00
C562   C     0.47235   0.84222   0.49522   0.00000  Uiso   1.00
C563   C     0.48147   0.85178   0.44050   0.00000  Uiso   1.00
C564   C     0.50954   0.85009   0.01682   0.00000  Uiso   1.00
C565   C     0.54821   0.87717   0.48953   0.00000  Uiso   1.00
C566   C     0.54670   0.89772   0.44200   0.00000  Uiso   1.00
C567   C     0.51561   0.88270   0.41626   0.00000  Uiso   1.00
C568   C     0.51071   0.82897   0.06300   0.00000  Uiso   1.00
C569   C     0.58062   0.86627   0.06306   0.00000  Uiso   1.00
C570   C     0.45575   0.83094   0.41171   0.00000  Uiso   1.00
C571   C     0.50994   0.97756   0.28997   0.00000  Uiso   1.00
C572   C     0.47338   0.83287   0.35225   0.00000  Uiso   1.00
C573   C     0.50941   0.68730   0.29219   0.00000  Uiso   1.00
C574   C     0.50050   0.70928   0.24974   0.00000  Uiso   1.00
C575   C     0.49082   0.68905   0.20663   0.00000  Uiso   1.00
C576   C     0.48933   0.97889   0.20657   0.00000  Uiso   1.00
C577   C     0.49988   0.95732   0.24809   0.00000  Uiso   1.00
C578   C     0.64870   0.79958   0.23120   0.00000  Uiso   1.00
C579   C     0.36318   0.79957   0.23133   0.00000  Uiso   1.00
C580   C     0.35019   0.86661   0.27088   0.00000  Uiso   1.00
C581   C     0.63617   0.86673   0.26952   0.00000  Uiso   1.00
C582   C     0.49998   0.75350   0.25066   0.00000  Uiso   1.00
C583   C     0.52648   0.83369   0.14774   0.00000  Uiso   1.00
C584   C     0.58645   0.88184   0.01098   0.00000  Uiso   1.00
C585   C     0.54182   0.84088   0.08944   0.00000  Uiso   1.00
C586   C     0.41600   0.80561   0.43980   0.00000  Uiso   1.00
C587   C     0.39986   0.80467   0.49703   0.00000  Uiso   1.00
C588   C     0.42737   0.82417   0.02514   0.00000  Uiso   1.00
H589   H     0.60621   0.87374   0.08304   0.00000  Uiso   1.00
H590   H     0.63563   0.77261   0.21573   0.00000  Uiso   1.00
H591   H     0.38597   0.77259   0.21602   0.00000  Uiso   1.00
H592   H     0.61252   0.89308   0.28567   0.00000  Uiso   1.00
H593   H     0.48583   0.80427   0.08095   0.00000  Uiso   1.00
H594   H     0.51637   0.89698   0.37839   0.00000  Uiso   1.00
H595   H     0.51690   0.95941   0.32167   0.00000  Uiso   1.00
N596   N     0.38093   0.83334   0.25001   0.00000  Uiso   1.00
N597   N     0.61906   0.83331   0.25000   0.00000  Uiso   1.00
O598   O     0.46179   0.89442   0.25000   0.00000  Uiso   1.00
O599   O     0.53823   0.89441   0.25000   0.00000  Uiso   1.00
O600   O     0.44280   0.83333   0.32681   0.00000  Uiso   1.00
O601   O     0.51924   0.83332   0.32681   0.00000  Uiso   1.00
O602   O     0.46177   0.77226   0.24999   0.00000  Uiso   1.00
O603   O     0.53821   0.77225   0.24999   0.00000  Uiso   1.00
O604   O     0.48076   0.83335   0.17319   0.00000  Uiso   1.00
O605   O     0.55720   0.83334   0.17319   0.00000  Uiso   1.00
Zn606  Zn    0.44896   0.83334   0.25000   0.00000  Uiso   1.00
Zn607  Zn    0.55104   0.83333   0.25000   0.00000  Uiso   1.00
C608   C     0.51658   0.70862   0.33961   0.00000  Uiso   1.00
H609   H     0.51278   0.74226   0.34455   0.00000  Uiso   1.00
O610   O     0.52636   0.68866   0.37445   0.00000  Uiso   1.00
C611   C     0.48655   0.71322   0.15970   0.00000  Uiso   1.00
O612   O     0.52018   0.73429   0.13220   0.00000  Uiso   1.00
O613   O     0.44414   0.71229   0.14754   0.00000  Uiso   1.00
H614   H     0.44587   0.72989   0.11464   0.00000  Uiso   1.00
C615   C     0.48063   0.95613   0.16136   0.00000  Uiso   1.00
O616   O     0.51183   0.93334   0.13185   0.00000  Uiso   1.00
O617   O     0.43686   0.96084   0.15270   0.00000  Uiso   1.00
H618   H     0.43609   0.94525   0.11929   0.00000  Uiso   1.00
C619   C     0.36402   0.90219   0.29777   0.00000  Uiso   1.00
O620   O     0.37931   0.89615   0.33514   0.00000  Uiso   1.00
O621   O     0.35724   0.94299   0.28223   0.00000  Uiso   1.00
H622   H     0.36770   0.96486   0.30389   0.00000  Uiso   1.00
C623   C     0.57278   0.93700   0.42121   0.00000  Uiso   1.00
O624   O     0.58787   0.94401   0.37241   0.00000  Uiso   1.00
O625   O     0.57842   0.96681   0.45767   0.00000  Uiso   1.00
H626   H     0.59640   0.99238   0.43867   0.00000  Uiso   1.00
C627   C     0.63409   0.89862   0.47870   0.00000  Uiso   1.00
H628   H     0.64516   0.89973   0.43482   0.00000  Uiso   1.00
O629   O     0.66223   0.91024   0.00070   0.00000  Uiso   1.00
C630   C     0.38995   0.78094   0.41047   0.00000  Uiso   1.00
H631   H     0.35110   0.78144   0.42437   0.00000  Uiso   1.00
O632   O     0.41156   0.75837   0.37232   0.00000  Uiso   1.00
C633   C     0.40670   0.82996   0.08483   0.00000  Uiso   1.00
O634   O     0.38857   0.80049   0.11403   0.00000  Uiso   1.00
O635   O     0.40920   0.86906   0.10750   0.00000  Uiso   1.00
H636   H     0.39402   0.86933   0.14847   0.00000  Uiso   1.00
C637   C     0.35528   0.78179   0.02699   0.00000  Uiso   1.00
O638   O     0.65559   0.79993   0.06105   0.00000  Uiso   1.00
O639   O     0.35123   0.73947   0.01593   0.00000  Uiso   1.00
H640   H     0.65261   0.72741   0.03868   0.00000  Uiso   1.00
C641   C     0.83333   0.91318   0.24930   0.00000  Uiso   1.00
C642   C     0.80569   0.84222   0.49522   0.00000  Uiso   1.00
C643   C     0.81480   0.85178   0.44050   0.00000  Uiso   1.00
C644   C     0.84287   0.85009   0.01682   0.00000  Uiso   1.00
C645   C     0.88154   0.87717   0.48953   0.00000  Uiso   1.00
C646   C     0.88003   0.89772   0.44200   0.00000  Uiso   1.00
C647   C     0.84895   0.88270   0.41626   0.00000  Uiso   1.00
C648   C     0.84405   0.82897   0.06300   0.00000  Uiso   1.00
C649   C     0.91395   0.86627   0.06306   0.00000  Uiso   1.00
C650   C     0.78908   0.83094   0.41171   0.00000  Uiso   1.00
C651   C     0.84327   0.97756   0.28997   0.00000  Uiso   1.00
C652   C     0.80671   0.83287   0.35225   0.00000  Uiso   1.00
C653   C     0.84274   0.68730   0.29219   0.00000  Uiso   1.00
C654   C     0.83383   0.70928   0.24974   0.00000  Uiso   1.00
C655   C     0.82415   0.68905   0.20663   0.00000  Uiso   1.00
C656   C     0.82266   0.97889   0.20657   0.00000  Uiso   1.00
C657   C     0.83321   0.95732   0.24809   0.00000  Uiso   1.00
C658   C     0.98204   0.79958   0.23120   0.00000  Uiso   1.00
C659   C     0.69651   0.79957   0.23133   0.00000  Uiso   1.00
C660   C     0.68352   0.86661   0.27088   0.00000  Uiso   1.00
C661   C     0.96951   0.86673   0.26952   0.00000  Uiso   1.00
C662   C     0.83331   0.75350   0.25066   0.00000  Uiso   1.00
C663   C     0.85981   0.83369   0.14774   0.00000  Uiso   1.00
C664   C     0.91979   0.88184   0.01098   0.00000  Uiso   1.00
C665   C     0.87516   0.84088   0.08944   0.00000  Uiso   1.00
C666   C     0.74934   0.80561   0.43980   0.00000  Uiso   1.00
C667   C     0.73319   0.80467   0.49703   0.00000  Uiso   1.00
C668   C     0.76071   0.82417   0.02514   0.00000  Uiso   1.00
H669   H     0.93954   0.87374   0.08304   0.00000  Uiso   1.00
H670   H     0.96896   0.77261   0.21573   0.00000  Uiso   1.00
H671   H     0.71930   0.77259   0.21602   0.00000  Uiso   1.00
H672   H     0.94585   0.89308   0.28567   0.00000  Uiso   1.00
H673   H     0.81917   0.80427   0.08095   0.00000  Uiso   1.00
H674   H     0.84971   0.89698   0.37839   0.00000  Uiso   1.00
H675   H     0.85023   0.95941   0.32167   0.00000  Uiso   1.00
N676   N     0.71426   0.83334   0.25001   0.00000  Uiso   1.00
N677   N     0.95239   0.83331   0.25000   0.00000  Uiso   1.00
O678   O     0.79512   0.89442   0.25000   0.00000  Uiso   1.00
O679   O     0.87157   0.89441   0.25000   0.00000  Uiso   1.00
O680   O     0.77613   0.83333   0.32681   0.00000  Uiso   1.00
O681   O     0.85258   0.83332   0.32681   0.00000  Uiso   1.00
O682   O     0.79510   0.77226   0.24999   0.00000  Uiso   1.00
O683   O     0.87154   0.77225   0.24999   0.00000  Uiso   1.00
O684   O     0.81409   0.83335   0.17319   0.00000  Uiso   1.00
O685   O     0.89053   0.83334   0.17319   0.00000  Uiso   1.00
Zn686  Zn    0.78229   0.83334   0.25000   0.00000  Uiso   1.00
Zn687  Zn    0.88438   0.83333   0.25000   0.00000  Uiso   1.00
C688   C     0.84992   0.70862   0.33961   0.00000  Uiso   1.00
H689   H     0.84612   0.74226   0.34455   0.00000  Uiso   1.00
O690   O     0.85969   0.68866   0.37445   0.00000  Uiso   1.00
C691   C     0.81988   0.71322   0.15970   0.00000  Uiso   1.00
O692   O     0.85351   0.73429   0.13220   0.00000  Uiso   1.00
O693   O     0.77747   0.71229   0.14754   0.00000  Uiso   1.00
H694   H     0.77920   0.72989   0.11464   0.00000  Uiso   1.00
C695   C     0.81397   0.95613   0.16136   0.00000  Uiso   1.00
O696   O     0.84517   0.93334   0.13185   0.00000  Uiso   1.00
O697   O     0.77020   0.96084   0.15270   0.00000  Uiso   1.00
H698   H     0.76942   0.94525   0.11929   0.00000  Uiso   1.00
C699   C     0.69735   0.90219   0.29777   0.00000  Uiso   1.00
O700   O     0.71264   0.89615   0.33514   0.00000  Uiso   1.00
O701   O     0.69057   0.94299   0.28223   0.00000  Uiso   1.00
H702   H     0.70103   0.96486   0.30389   0.00000  Uiso   1.00
C703   C     0.90611   0.93700   0.42121   0.00000  Uiso   1.00
O704   O     0.92120   0.94401   0.37241   0.00000  Uiso   1.00
O705   O     0.91176   0.96681   0.45767   0.00000  Uiso   1.00
H706   H     0.92973   0.99238   0.43867   0.00000  Uiso   1.00
C707   C     0.96743   0.89862   0.47870   0.00000  Uiso   1.00
H708   H     0.97850   0.89973   0.43482   0.00000  Uiso   1.00
O709   O     0.99557   0.91024   0.00070   0.00000  Uiso   1.00
C710   C     0.72329   0.78094   0.41047   0.00000  Uiso   1.00
H711   H     0.68443   0.78144   0.42437   0.00000  Uiso   1.00
O712   O     0.74489   0.75837   0.37232   0.00000  Uiso   1.00
C713   C     0.74003   0.82996   0.08483   0.00000  Uiso   1.00
O714   O     0.72190   0.80049   0.11403   0.00000  Uiso   1.00
O715   O     0.74254   0.86906   0.10750   0.00000  Uiso   1.00
H716   H     0.72735   0.86933   0.14847   0.00000  Uiso   1.00
C717   C     0.68862   0.78179   0.02699   0.00000  Uiso   1.00
O718   O     0.98893   0.79993   0.06105   0.00000  Uiso   1.00
O719   O     0.68456   0.73947   0.01593   0.00000  Uiso   1.00
H720   H     0.98594   0.72741   0.03868   0.00000  Uiso   1.00
C721   C     0.16667   0.24652   0.74930   0.00000  Uiso   1.00
C722   C     0.13902   0.17555   0.99522   0.00000  Uiso   1.00
C723   C     0.14813   0.18512   0.94050   0.00000  Uiso   1.00
C724   C     0.17620   0.18342   0.51682   0.00000  Uiso   1.00
C725   C     0.21488   0.21051   0.98953   0.00000  Uiso   1.00
C726   C     0.21336   0.23105   0.94200   0.00000  Uiso   1.00
C727   C     0.18228   0.21604   0.91626   0.00000  Uiso   1.00
C728   C     0.17738   0.16230   0.56300   0.00000  Uiso   1.00
C729   C     0.24728   0.19960   0.56306   0.00000  Uiso   1.00
C730   C     0.12242   0.16427   0.91171   0.00000  Uiso   1.00
C731   C     0.17660   0.31089   0.78997   0.00000  Uiso   1.00
C732   C     0.14004   0.16620   0.85225   0.00000  Uiso   1.00
C733   C     0.17608   0.02064   0.79219   0.00000  Uiso   1.00
C734   C     0.16717   0.04261   0.74974   0.00000  Uiso   1.00
C735   C     0.15748   0.02238   0.70663   0.00000  Uiso   1.00
C736   C     0.15599   0.31222   0.70657   0.00000  Uiso   1.00
C737   C     0.16654   0.29065   0.74809   0.00000  Uiso   1.00
C738   C     0.31537   0.13291   0.73120   0.00000  Uiso   1.00
C739   C     0.02985   0.13290   0.73133   0.00000  Uiso   1.00
C740   C     0.01685   0.19994   0.77088   0.00000  Uiso   1.00
C741   C     0.30284   0.20007   0.76952   0.00000  Uiso   1.00
C742   C     0.16665   0.08684   0.75066   0.00000  Uiso   1.00
C743   C     0.19314   0.16703   0.64774   0.00000  Uiso   1.00
C744   C     0.25312   0.21517   0.51098   0.00000  Uiso   1.00
C745   C     0.20849   0.17421   0.58944   0.00000  Uiso   1.00
C746   C     0.08267   0.13894   0.93980   0.00000  Uiso   1.00
C747   C     0.06652   0.13800   0.99703   0.00000  Uiso   1.00
C748   C     0.09404   0.15750   0.52514   0.00000  Uiso   1.00
H749   H     0.27287   0.20707   0.58304   0.00000  Uiso   1.00
H750   H     0.30229   0.10594   0.71573   0.00000  Uiso   1.00
H751   H     0.05263   0.10593   0.71602   0.00000  Uiso   1.00
H752   H     0.27919   0.22641   0.78567   0.00000  Uiso   1.00
H753   H     0.15250   0.13760   0.58095   0.00000  Uiso   1.00
H754   H     0.18304   0.23031   0.87839   0.00000  Uiso   1.00
H755   H     0.18356   0.29274   0.82167   0.00000  Uiso   1.00
N756   N     0.04760   0.16668   0.75001   0.00000  Uiso   1.00
N757   N     0.28573   0.16665   0.75000   0.00000  Uiso   1.00
O758   O     0.12846   0.22775   0.75000   0.00000  Uiso   1.00
O759   O     0.20490   0.22774   0.75000   0.00000  Uiso   1.00
O760   O     0.10947   0.16666   0.82681   0.00000  Uiso   1.00
O761   O     0.18591   0.16665   0.82681   0.00000  Uiso   1.00
O762   O     0.12843   0.10559   0.74999   0.00000  Uiso   1.00
O763   O     0.20488   0.10558   0.74999   0.00000  Uiso   1.00
O764   O     0.14742   0.16668   0.67319   0.00000  Uiso   1.00
O765   O     0.22387   0.16667   0.67319   0.00000  Uiso   1.00
Zn766  Zn    0.11562   0.16667   0.75000   0.00000  Uiso   1.00
Zn767  Zn    0.21771   0.16666   0.75000   0.00000  Uiso   1.00
C768   C     0.18325   0.04196   0.83961   0.00000  Uiso   1.00
H769   H     0.17945   0.07560   0.84455   0.00000  Uiso   1.00
O770   O     0.19302   0.02200   0.87445   0.00000  Uiso   1.00
C771   C     0.15322   0.04656   0.65970   0.00000  Uiso   1.00
O772   O     0.18685   0.06763   0.63220   0.00000  Uiso   1.00
O773   O     0.11080   0.04562   0.64754   0.00000  Uiso   1.00
H774   H     0.11253   0.06322   0.61464   0.00000  Uiso   1.00
C775   C     0.14730   0.28947   0.66136   0.00000  Uiso   1.00
O776   O     0.17850   0.26668   0.63185   0.00000  Uiso   1.00
O777   O     0.10353   0.29418   0.65270   0.00000  Uiso   1.00
H778   H     0.10275   0.27858   0.61929   0.00000  Uiso   1.00
C779   C     0.03068   0.23552   0.79777   0.00000  Uiso   1.00
O780   O     0.04598   0.22948   0.83514   0.00000  Uiso   1.00
O781   O     0.02390   0.27632   0.78223   0.00000  Uiso   1.00
H782   H     0.03436   0.29820   0.80389   0.00000  Uiso   1.00
C783   C     0.23944   0.27033   0.92121   0.00000  Uiso   1.00
O784   O     0.25454   0.27735   0.87241   0.00000  Uiso   1.00
O785   O     0.24509   0.30014   0.95767   0.00000  Uiso   1.00
H786   H     0.26306   0.32571   0.93867   0.00000  Uiso   1.00
C787   C     0.30076   0.23195   0.97870   0.00000  Uiso   1.00
H788   H     0.31183   0.23306   0.93482   0.00000  Uiso   1.00
O789   O     0.32890   0.24357   0.50070   0.00000  Uiso   1.00
C790   C     0.05662   0.11428   0.91047   0.00000  Uiso   1.00
H791   H     0.01777   0.11478   0.92437   0.00000  Uiso   1.00
O792   O     0.07822   0.09170   0.87232   0.00000  Uiso   1.00
C793   C     0.07336   0.16329   0.58483   0.00000  Uiso   1.00
O794   O     0.05524   0.13383   0.61403   0.00000  Uiso   1.00
O795   O     0.07587   0.20239   0.60750   0.00000  Uiso   1.00
H796   H     0.06069   0.20266   0.64847   0.00000  Uiso   1.00
C797   C     0.02195   0.11513   0.52699   0.00000  Uiso   1.00
O798   O     0.32226   0.13326   0.56105   0.00000  Uiso   1.00
O799   O     0.01790   0.07280   0.51593   0.00000  Uiso   1.00
H800   H     0.31928   0.06075   0.53868   0.00000  Uiso   1.00
C801   C     0.50000   0.24652   0.74930   0.00000  Uiso   1.00
C802   C     0.47235   0.17555   0.99522   0.00000  Uiso   1.00
C803   C     0.48147   0.18512   0.94050   0.00000  Uiso   1.00
C804   C     0.50954   0.18342   0.51682   0.00000  Uiso   1.00
C805   C     0.54821   0.21051   0.98953   0.00000  Uiso   1.00
C806   C     0.54670   0.23105   0.94200   0.00000  Uiso   1.00
C807   C     0.51561   0.21604   0.91626   0.00000  Uiso   1.00
C808   C     0.51071   0.16230   0.56300   0.00000  Uiso   1.00
C809   C     0.58062   0.19960   0.56306   0.00000  Uiso   1.00
C810   C     0.45575   0.16427   0.91171   0.00000  Uiso   1.00
C811   C     0.50994   0.31089   0.78997   0.00000  Uiso   1.00
C812   C     0.47338   0.16620   0.85225   0.00000  Uiso   1.00
C813   C     0.50941   0.02064   0.79219   0.00000  Uiso   1.00
C814   C     0.50050   0.04261   0.74974   0.00000  Uiso   1.00
C815   C     0.49082   0.02238   0.70663   0.00000  Uiso   1.00
C816   C     0.48933   0.31222   0.70657   0.00000  Uiso   1.00
C817   C     0.49988   0.29065   0.74809   0.00000  Uiso   1.00
C818   C     0.64870   0.13291   0.73120   0.00000  Uiso   1.00
C819   C     0.36318   0.13290   0.73133   0.00000  Uiso   1.00
C820   C     0.35019   0.19994   0.77088   0.00000  Uiso   1.00
C821   C     0.63617   0.20007   0.76952   0.00000  Uiso   1.00
C822   C     0.49998   0.08684   0.75066   0.00000  Uiso   1.00
C823   C     0.52648   0.16703   0.64774   0.00000  Uiso   1.00
C824   C     0.58645   0.21517   0.51098   0.00000  Uiso   1.00
C825   C     0.54182   0.17421   0.58944   0.00000  Uiso   1.00
C826   C     0.41600   0.13894   0.93980   0.00000  Uiso   1.00
C827   C     0.39986   0.13800   0.99703   0.00000  Uiso   1.00
C828   C     0.42737   0.15750   0.52514   0.00000  Uiso   1.00
H829   H     0.60621   0.20707   0.58304   0.00000  Uiso   1.00
H830   H     0.63563   0.10594   0.71573   0.00000  Uiso   1.00
H831   H     0.38597   0.10593   0.71602   0.00000  Uiso   1.00
H832   H     0.61252   0.22641   0.78567   0.00000  Uiso   1.00
H833   H     0.48583   0.13760   0.58095   0.00000  Uiso   1.00
H834   H     0.51637   0.23031   0.87839   0.00000  Uiso   1.00
H835   H     0.51690   0.29274   0.82167   0.00000  Uiso   1.00
N836   N     0.38093   0.16668   0.75001   0.00000  Uiso   1.00
N837   N     0.61906   0.16665   0.75000   0.00000  Uiso   1.00
O838   O     0.46179   0.22775   0.75000   0.00000  Uiso   1.00
O839   O     0.53823   0.22774   0.75000   0.00000  Uiso   1.00
O840   O     0.44280   0.16666   0.82681   0.00000  Uiso   1.00
O841   O     0.51924   0.16665   0.82681   0.00000  Uiso   1.00
O842   O     0.46177   0.10559   0.74999   0.00000  Uiso   1.00
O843   O     0.53821   0.10558   0.74999   0.00000  Uiso   1.00
O844   O     0.48076   0.16668   0.67319   0.00000  Uiso   1.00
O845   O     0.55720   0.16667   0.67319   0.00000  Uiso   1.00
Zn846  Zn    0.44896   0.16667   0.75000   0.00000  Uiso   1.00
Zn847  Zn    0.55104   0.16666   0.75000   0.00000  Uiso   1.00
C848   C     0.51658   0.04196   0.83961   0.00000  Uiso   1.00
H849   H     0.51278   0.07560   0.84455   0.00000  Uiso   1.00
O850   O     0.52636   0.02200   0.87445   0.00000  Uiso   1.00
C851   C     0.48655   0.04656   0.65970   0.00000  Uiso   1.00
O852   O     0.52018   0.06763   0.63220   0.00000  Uiso   1.00
O853   O     0.44414   0.04562   0.64754   0.00000  Uiso   1.00
H854   H     0.44587   0.06322   0.61464   0.00000  Uiso   1.00
C855   C     0.48063   0.28947   0.66136   0.00000  Uiso   1.00
O856   O     0.51183   0.26668   0.63185   0.00000  Uiso   1.00
O857   O     0.43686   0.29418   0.65270   0.00000  Uiso   1.00
H858   H     0.43609   0.27858   0.61929   0.00000  Uiso   1.00
C859   C     0.36402   0.23552   0.79777   0.00000  Uiso   1.00
O860   O     0.37931   0.22948   0.83514   0.00000  Uiso   1.00
O861   O     0.35724   0.27632   0.78223   0.00000  Uiso   1.00
H862   H     0.36770   0.29820   0.80389   0.00000  Uiso   1.00
C863   C     0.57278   0.27033   0.92121   0.00000  Uiso   1.00
O864   O     0.58787   0.27735   0.87241   0.00000  Uiso   1.00
O865   O     0.57842   0.30014   0.95767   0.00000  Uiso   1.00
H866   H     0.59640   0.32571   0.93867   0.00000  Uiso   1.00
C867   C     0.63409   0.23195   0.97870   0.00000  Uiso   1.00
H868   H     0.64516   0.23306   0.93482   0.00000  Uiso   1.00
O869   O     0.66223   0.24357   0.50070   0.00000  Uiso   1.00
C870   C     0.38995   0.11428   0.91047   0.00000  Uiso   1.00
H871   H     0.35110   0.11478   0.92437   0.00000  Uiso   1.00
O872   O     0.41156   0.09170   0.87232   0.00000  Uiso   1.00
C873   C     0.40670   0.16329   0.58483   0.00000  Uiso   1.00
O874   O     0.38857   0.13383   0.61403   0.00000  Uiso   1.00
O875   O     0.40920   0.20239   0.60750   0.00000  Uiso   1.00
H876   H     0.39402   0.20266   0.64847   0.00000  Uiso   1.00
C877   C     0.35528   0.11513   0.52699   0.00000  Uiso   1.00
O878   O     0.65559   0.13326   0.56105   0.00000  Uiso   1.00
O879   O     0.35123   0.07280   0.51593   0.00000  Uiso   1.00
H880   H     0.65261   0.06075   0.53868   0.00000  Uiso   1.00
C881   C     0.83333   0.24652   0.74930   0.00000  Uiso   1.00
C882   C     0.80569   0.17555   0.99522   0.00000  Uiso   1.00
C883   C     0.81480   0.18512   0.94050   0.00000  Uiso   1.00
C884   C     0.84287   0.18342   0.51682   0.00000  Uiso   1.00
C885   C     0.88154   0.21051   0.98953   0.00000  Uiso   1.00
C886   C     0.88003   0.23105   0.94200   0.00000  Uiso   1.00
C887   C     0.84895   0.21604   0.91626   0.00000  Uiso   1.00
C888   C     0.84405   0.16230   0.56300   0.00000  Uiso   1.00
C889   C     0.91395   0.19960   0.56306   0.00000  Uiso   1.00
C890   C     0.78908   0.16427   0.91171   0.00000  Uiso   1.00
C891   C     0.84327   0.31089   0.78997   0.00000  Uiso   1.00
C892   C     0.80671   0.16620   0.85225   0.00000  Uiso   1.00
C893   C     0.84274   0.02064   0.79219   0.00000  Uiso   1.00
C894   C     0.83383   0.04261   0.74974   0.00000  Uiso   1.00
C895   C     0.82415   0.02238   0.70663   0.00000  Uiso   1.00
C896   C     0.82266   0.31222   0.70657   0.00000  Uiso   1.00
C897   C     0.83321   0.29065   0.74809   0.00000  Uiso   1.00
C898   C     0.98204   0.13291   0.73120   0.00000  Uiso   1.00
C899   C     0.69651   0.13290   0.73133   0.00000  Uiso   1.00
C900   C     0.68352   0.19994   0.77088   0.00000  Uiso   1.00
C901   C     0.96951   0.20007   0.76952   0.00000  Uiso   1.00
C902   C     0.83331   0.08684   0.75066   0.00000  Uiso   1.00
C903   C     0.85981   0.16703   0.64774   0.00000  Uiso   1.00
C904   C     0.91979   0.21517   0.51098   0.00000  Uiso   1.00
C905   C     0.87516   0.17421   0.58944   0.00000  Uiso   1.00
C906   C     0.74934   0.13894   0.93980   0.00000  Uiso   1.00
C907   C     0.73319   0.13800   0.99703   0.00000  Uiso   1.00
C908   C     0.76071   0.15750   0.52514   0.00000  Uiso   1.00
H909   H     0.93954   0.20707   0.58304   0.00000  Uiso   1.00
H910   H     0.96896   0.10594   0.71573   0.00000  Uiso   1.00
H911   H     0.71930   0.10593   0.71602   0.00000  Uiso   1.00
H912   H     0.94585   0.22641   0.78567   0.00000  Uiso   1.00
H913   H     0.81917   0.13760   0.58095   0.00000  Uiso   1.00
H914   H     0.84971   0.23031   0.87839   0.00000  Uiso   1.00
H915   H     0.85023   0.29274   0.82167   0.00000  Uiso   1.00
N916   N     0.71426   0.16668   0.75001   0.00000  Uiso   1.00
N917   N     0.95239   0.16665   0.75000   0.00000  Uiso   1.00
O918   O     0.79512   0.22775   0.75000   0.00000  Uiso   1.00
O919   O     0.87157   0.22774   0.75000   0.00000  Uiso   1.00
O920   O     0.77613   0.16666   0.82681   0.00000  Uiso   1.00
O921   O     0.85258   0.16665   0.82681   0.00000  Uiso   1.00
O922   O     0.79510   0.10559   0.74999   0.00000  Uiso   1.00
O923   O     0.87154   0.10558   0.74999   0.00000  Uiso   1.00
O924   O     0.81409   0.16668   0.67319   0.00000  Uiso   1.00
O925   O     0.89053   0.16667   0.67319   0.00000  Uiso   1.00
Zn926  Zn    0.78229   0.16667   0.75000   0.00000  Uiso   1.00
Zn927  Zn    0.88438   0.16666   0.75000   0.00000  Uiso   1.00
C928   C     0.84992   0.04196   0.83961   0.00000  Uiso   1.00
H929   H     0.84612   0.07560   0.84455   0.00000  Uiso   1.00
O930   O     0.85969   0.02200   0.87445   0.00000  Uiso   1.00
C931   C     0.81988   0.04656   0.65970   0.00000  Uiso   1.00
O932   O     0.85351   0.06763   0.63220   0.00000  Uiso   1.00
O933   O     0.77747   0.04562   0.64754   0.00000  Uiso   1.00
H934   H     0.77920   0.06322   0.61464   0.00000  Uiso   1.00
C935   C     0.81397   0.28947   0.66136   0.00000  Uiso   1.00
O936   O     0.84517   0.26668   0.63185   0.00000  Uiso   1.00
O937   O     0.77020   0.29418   0.65270   0.00000  Uiso   1.00
H938   H     0.76942   0.27858   0.61929   0.00000  Uiso   1.00
C939   C     0.69735   0.23552   0.79777   0.00000  Uiso   1.00
O940   O     0.71264   0.22948   0.83514   0.00000  Uiso   1.00
O941   O     0.69057   0.27632   0.78223   0.00000  Uiso   1.00
H942   H     0.70103   0.29820   0.80389   0.00000  Uiso   1.00
C943   C     0.90611   0.27033   0.92121   0.00000  Uiso   1.00
O944   O     0.92120   0.27735   0.87241   0.00000  Uiso   1.00
O945   O     0.91176   0.30014   0.95767   0.00000  Uiso   1.00
H946   H     0.92973   0.32571   0.93867   0.00000  Uiso   1.00
C947   C     0.96743   0.23195   0.97870   0.00000  Uiso   1.00
H948   H     0.97850   0.23306   0.93482   0.00000  Uiso   1.00
O949   O     0.99557   0.24357   0.50070   0.00000  Uiso   1.00
C950   C     0.72329   0.11428   0.91047   0.00000  Uiso   1.00
H951   H     0.68443   0.11478   0.92437   0.00000  Uiso   1.00
O952   O     0.74489   0.09170   0.87232   0.00000  Uiso   1.00
C953   C     0.74003   0.16329   0.58483   0.00000  Uiso   1.00
O954   O     0.72190   0.13383   0.61403   0.00000  Uiso   1.00
O955   O     0.74254   0.20239   0.60750   0.00000  Uiso   1.00
H956   H     0.72735   0.20266   0.64847   0.00000  Uiso   1.00
C957   C     0.68862   0.11513   0.52699   0.00000  Uiso   1.00
O958   O     0.98893   0.13326   0.56105   0.00000  Uiso   1.00
O959   O     0.68456   0.07280   0.51593   0.00000  Uiso   1.00
H960   H     0.98594   0.06075   0.53868   0.00000  Uiso   1.00
C961   C     0.16667   0.57985   0.74930   0.00000  Uiso   1.00
C962   C     0.13902   0.50888   0.99522   0.00000  Uiso   1.00
C963   C     0.14813   0.51845   0.94050   0.00000  Uiso   1.00
C964   C     0.17620   0.51676   0.51682   0.00000  Uiso   1.00
C965   C     0.21488   0.54384   0.98953   0.00000  Uiso   1.00
C966   C     0.21336   0.56439   0.94200   0.00000  Uiso   1.00
C967   C     0.18228   0.54937   0.91626   0.00000  Uiso   1.00
C968   C     0.17738   0.49564   0.56300   0.00000  Uiso   1.00
C969   C     0.24728   0.53294   0.56306   0.00000  Uiso   1.00
C970   C     0.12242   0.49761   0.91171   0.00000  Uiso   1.00
C971   C     0.17660   0.64422   0.78997   0.00000  Uiso   1.00
C972   C     0.14004   0.49953   0.85225   0.00000  Uiso   1.00
C973   C     0.17608   0.35397   0.79219   0.00000  Uiso   1.00
C974   C     0.16717   0.37595   0.74974   0.00000  Uiso   1.00
C975   C     0.15748   0.35571   0.70663   0.00000  Uiso   1.00
C976   C     0.15599   0.64556   0.70657   0.00000  Uiso   1.00
C977   C     0.16654   0.62399   0.74809   0.00000  Uiso   1.00
C978   C     0.31537   0.46625   0.73120   0.00000  Uiso   1.00
C979   C     0.02985   0.46623   0.73133   0.00000  Uiso   1.00
C980   C     0.01685   0.53328   0.77088   0.00000  Uiso   1.00
C981   C     0.30284   0.53340   0.76952   0.00000  Uiso   1.00
C982   C     0.16665   0.42017   0.75066   0.00000  Uiso   1.00
C983   C     0.19314   0.50036   0.64774   0.00000  Uiso   1.00
C984   C     0.25312   0.54850   0.51098   0.00000  Uiso   1.00
C985   C     0.20849   0.50755   0.58944   0.00000  Uiso   1.00
C986   C     0.08267   0.47227   0.93980   0.00000  Uiso   1.00
C987   C     0.06652   0.47134   0.99703   0.00000  Uiso   1.00
C988   C     0.09404   0.49083   0.52514   0.00000  Uiso   1.00
H989   H     0.27287   0.54041   0.58304   0.00000  Uiso   1.00
H990   H     0.30229   0.43927   0.71573   0.00000  Uiso   1.00
H991   H     0.05263   0.43926   0.71602   0.00000  Uiso   1.00
H992   H     0.27919   0.55974   0.78567   0.00000  Uiso   1.00
H993   H     0.15250   0.47093   0.58095   0.00000  Uiso   1.00
H994   H     0.18304   0.56365   0.87839   0.00000  Uiso   1.00
H995   H     0.18356   0.62607   0.82167   0.00000  Uiso   1.00
N996   N     0.04760   0.50001   0.75001   0.00000  Uiso   1.00
N997   N     0.28573   0.49998   0.75000   0.00000  Uiso   1.00
O998   O     0.12846   0.56108   0.75000   0.00000  Uiso   1.00
O999   O     0.20490   0.56107   0.75000   0.00000  Uiso   1.00
O1000  O     0.10947   0.50000   0.82681   0.00000  Uiso   1.00
O1001  O     0.18591   0.49999   0.82681   0.00000  Uiso   1.00
O1002  O     0.12843   0.43893   0.74999   0.00000  Uiso   1.00
O1003  O     0.20488   0.43892   0.74999   0.00000  Uiso   1.00
O1004  O     0.14742   0.50001   0.67319   0.00000  Uiso   1.00
O1005  O     0.22387   0.50000   0.67319   0.00000  Uiso   1.00
Zn1006 Zn    0.11562   0.50001   0.75000   0.00000  Uiso   1.00
Zn1007 Zn    0.21771   0.49999   0.75000   0.00000  Uiso   1.00
C1008  C     0.18325   0.37529   0.83961   0.00000  Uiso   1.00
H1009  H     0.17945   0.40893   0.84455   0.00000  Uiso   1.00
O1010  O     0.19302   0.35533   0.87445   0.00000  Uiso   1.00
C1011  C     0.15322   0.37989   0.65970   0.00000  Uiso   1.00
O1012  O     0.18685   0.40096   0.63220   0.00000  Uiso   1.00
O1013  O     0.11080   0.37896   0.64754   0.00000  Uiso   1.00
H1014  H     0.11253   0.39655   0.61464   0.00000  Uiso   1.00
C1015  C     0.14730   0.62280   0.66136   0.00000  Uiso   1.00
O1016  O     0.17850   0.60001   0.63185   0.00000  Uiso   1.00
O1017  O     0.10353   0.62751   0.65270   0.00000  Uiso   1.00
H1018  H     0.10275   0.61191   0.61929   0.00000  Uiso   1.00
C1019  C     0.03068   0.56885   0.79777   0.00000  Uiso   1.00
O1020  O     0.04598   0.56281   0.83514   0.00000  Uiso   1.00
O1021  O     0.02390   0.60966   0.78223   0.00000  Uiso   1.00
H1022  H     0.03436   0.63153   0.80389   0.00000  Uiso   1.00
C1023  C     0.23944   0.60366   0.92121   0.00000  Uiso   1.00
O1024  O     0.25454   0.61068   0.87241   0.00000  Uiso   1.00
O1025  O     0.24509   0.63348   0.95767   0.00000  Uiso   1.00
H1026  H     0.26306   0.65904   0.93867   0.00000  Uiso   1.00
C1027  C     0.30076   0.56528   0.97870   0.00000  Uiso   1.00
H1028  H     0.31183   0.56640   0.93482   0.00000  Uiso   1.00
O1029  O     0.32890   0.57690   0.50070   0.00000  Uiso   1.00
C1030  C     0.05662   0.44761   0.91047   0.00000  Uiso   1.00
H1031  H     0.01777   0.44811   0.92437   0.00000  Uiso   1.00
O1032  O     0.07822   0.42503   0.87232   0.00000  Uiso   1.00
C1033  C     0.07336   0.49663   0.58483   0.00000  Uiso   1.00
O1034  O     0.05524   0.46716   0.61403   0.00000  Uiso   1.00
O1035  O     0.07587   0.53572   0.60750   0.00000  Uiso   1.00
H1036  H     0.06069   0.53600   0.64847   0.00000  Uiso   1.00
C1037  C     0.02195   0.44846   0.52699   0.00000  Uiso   1.00
O1038  O     0.32226   0.46659   0.56105   0.00000  Uiso   1.00
O1039  O     0.01790   0.40614   0.51593   0.00000  Uiso   1.00
H1040  H     0.31928   0.39408   0.53868   0.00000  Uiso   1.00
C1041  C     0.50000   0.57985   0.74930   0.00000  Uiso   1.00
C1042  C     0.47235   0.50888   0.99522   0.00000  Uiso   1.00
C1043  C     0.48147   0.51845   0.94050   0.00000  Uiso   1.00
C1044  C     0.50954   0.51676   0.51682   0.00000  Uiso   1.00
C1045  C     0.54821   0.54384   0.98953   0.00000  Uiso   1.00
C1046  C     0.54670   0.56439   0.94200   0.00000  Uiso   1.00
C1047  C     0.51561   0.54937   0.91626   0.00000  Uiso   1.00
C1048  C     0.51071   0.49564   0.56300   0.00000  Uiso   1.00
C1049  C     0.58062   0.53294   0.56306   0.00000  Uiso   1.00
C1050  C     0.45575   0.49761   0.91171   0.00000  Uiso   1.00
C1051  C     0.50994   0.64422   0.78997   0.00000  Uiso   1.00
C1052  C     0.47338   0.49953   0.85225   0.00000  Uiso   1.00
C1053  C     0.50941   0.35397   0.79219   0.00000  Uiso   1.00
C1054  C     0.50050   0.37595   0.74974   0.00000  Uiso   1.00
C1055  C     0.49082   0.35571   0.70663   0.00000  Uiso   1.00
C1056  C     0.48933   0.64556   0.70657   0.00000  Uiso   1.00
C1057  C     0.49988   0.62399   0.74809   0.00000  Uiso   1.00
C1058  C     0.64870   0.46625   0.73120   0.00000  Uiso   1.00
C1059  C     0.36318   0.46623   0.73133   0.00000  Uiso   1.00
C1060  C     0.35019   0.53328   0.77088   0.00000  Uiso   1.00
C1061  C     0.63617   0.53340   0.76952   0.00000  Uiso   1.00
C1062  C     0.49998   0.42017   0.75066   0.00000  Uiso   1.00
C1063  C     0.52648   0.50036   0.64774   0.00000  Uiso   1.00
C1064  C     0.58645   0.54850   0.51098   0.00000  Uiso   1.00
C1065  C     0.54182   0.50755   0.58944   0.00000  Uiso   1.00
C1066  C     0.41600   0.47227   0.93980   0.00000  Uiso   1.00
C1067  C     0.39986   0.47134   0.99703   0.00000  Uiso   1.00
C1068  C     0.42737   0.49083   0.52514   0.00000  Uiso   1.00
H1069  H     0.60621   0.54041   0.58304   0.00000  Uiso   1.00
H1070  H     0.63563   0.43927   0.71573   0.00000  Uiso   1.00
H1071  H     0.38597   0.43926   0.71602   0.00000  Uiso   1.00
H1072  H     0.61252   0.55974   0.78567   0.00000  Uiso   1.00
H1073  H     0.48583   0.47093   0.58095   0.00000  Uiso   1.00
H1074  H     0.51637   0.56365   0.87839   0.00000  Uiso   1.00
H1075  H     0.51690   0.62607   0.82167   0.00000  Uiso   1.00
N1076  N     0.38093   0.50001   0.75001   0.00000  Uiso   1.00
N1077  N     0.61906   0.49998   0.75000   0.00000  Uiso   1.00
O1078  O     0.46179   0.56108   0.75000   0.00000  Uiso   1.00
O1079  O     0.53823   0.56107   0.75000   0.00000  Uiso   1.00
O1080  O     0.44280   0.50000   0.82681   0.00000  Uiso   1.00
O1081  O     0.51924   0.49999   0.82681   0.00000  Uiso   1.00
O1082  O     0.46177   0.43893   0.74999   0.00000  Uiso   1.00
O1083  O     0.53821   0.43892   0.74999   0.00000  Uiso   1.00
O1084  O     0.48076   0.50001   0.67319   0.00000  Uiso   1.00
O1085  O     0.55720   0.50000   0.67319   0.00000  Uiso   1.00
Zn1086 Zn    0.44896   0.50001   0.75000   0.00000  Uiso   1.00
Zn1087 Zn    0.55104   0.49999   0.75000   0.00000  Uiso   1.00
C1088  C     0.51658   0.37529   0.83961   0.00000  Uiso   1.00
H1089  H     0.51278   0.40893   0.84455   0.00000  Uiso   1.00
O1090  O     0.52636   0.35533   0.87445   0.00000  Uiso   1.00
C1091  C     0.48655   0.37989   0.65970   0.00000  Uiso   1.00
O1092  O     0.52018   0.40096   0.63220   0.00000  Uiso   1.00
O1093  O     0.44414   0.37896   0.64754   0.00000  Uiso   1.00
H1094  H     0.44587   0.39655   0.61464   0.00000  Uiso   1.00
C1095  C     0.48063   0.62280   0.66136   0.00000  Uiso   1.00
O1096  O     0.51183   0.60001   0.63185   0.00000  Uiso   1.00
O1097  O     0.43686   0.62751   0.65270   0.00000  Uiso   1.00
H1098  H     0.43609   0.61191   0.61929   0.00000  Uiso   1.00
C1099  C     0.36402   0.56885   0.79777   0.00000  Uiso   1.00
O1100  O     0.37931   0.56281   0.83514   0.00000  Uiso   1.00
O1101  O     0.35724   0.60966   0.78223   0.00000  Uiso   1.00
H1102  H     0.36770   0.63153   0.80389   0.00000  Uiso   1.00
C1103  C     0.57278   0.60366   0.92121   0.00000  Uiso   1.00
O1104  O     0.58787   0.61068   0.87241   0.00000  Uiso   1.00
O1105  O     0.57842   0.63348   0.95767   0.00000  Uiso   1.00
H1106  H     0.59640   0.65904   0.93867   0.00000  Uiso   1.00
C1107  C     0.63409   0.56528   0.97870   0.00000  Uiso   1.00
H1108  H     0.64516   0.56640   0.93482   0.00000  Uiso   1.00
O1109  O     0.66223   0.57690   0.50070   0.00000  Uiso   1.00
C1110  C     0.38995   0.44761   0.91047   0.00000  Uiso   1.00
H1111  H     0.35110   0.44811   0.92437   0.00000  Uiso   1.00
O1112  O     0.41156   0.42503   0.87232   0.00000  Uiso   1.00
C1113  C     0.40670   0.49663   0.58483   0.00000  Uiso   1.00
O1114  O     0.38857   0.46716   0.61403   0.00000  Uiso   1.00
O1115  O     0.40920   0.53572   0.60750   0.00000  Uiso   1.00
H1116  H     0.39402   0.53600   0.64847   0.00000  Uiso   1.00
C1117  C     0.35528   0.44846   0.52699   0.00000  Uiso   1.00
O1118  O     0.65559   0.46659   0.56105   0.00000  Uiso   1.00
O1119  O     0.35123   0.40614   0.51593   0.00000  Uiso   1.00
H1120  H     0.65261   0.39408   0.53868   0.00000  Uiso   1.00
C1121  C     0.83333   0.57985   0.74930   0.00000  Uiso   1.00
C1122  C     0.80569   0.50888   0.99522   0.00000  Uiso   1.00
C1123  C     0.81480   0.51845   0.94050   0.00000  Uiso   1.00
C1124  C     0.84287   0.51676   0.51682   0.00000  Uiso   1.00
C1125  C     0.88154   0.54384   0.98953   0.00000  Uiso   1.00
C1126  C     0.88003   0.56439   0.94200   0.00000  Uiso   1.00
C1127  C     0.84895   0.54937   0.91626   0.00000  Uiso   1.00
C1128  C     0.84405   0.49564   0.56300   0.00000  Uiso   1.00
C1129  C     0.91395   0.53294   0.56306   0.00000  Uiso   1.00
C1130  C     0.78908   0.49761   0.91171   0.00000  Uiso   1.00
C1131  C     0.84327   0.64422   0.78997   0.00000  Uiso   1.00
C1132  C     0.80671   0.49953   0.85225   0.00000  Uiso   1.00
C1133  C     0.84274   0.35397   0.79219   0.00000  Uiso   1.00
C1134  C     0.83383   0.37595   0.74974   0.00000  Uiso   1.00
C1135  C     0.82415   0.35571   0.70663   0.00000  Uiso   1.00
C1136  C     0.82266   0.64556   0.70657   0.00000  Uiso   1.00
C1137  C     0.83321   0.62399   0.74809   0.00000  Uiso   1.00
C1138  C     0.98204   0.46625   0.73120   0.00000  Uiso   1.00
C1139  C     0.69651   0.46623   0.73133   0.00000  Uiso   1.00
C1140  C     0.68352   0.53328   0.77088   0.00000  Uiso   1.00
C1141  C     0.96951   0.53340   0.76952   0.00000  Uiso   1.00
C1142  C     0.83331   0.42017   0.75066   0.00000  Uiso   1.00
C1143  C     0.85981   0.50036   0.64774   0.00000  Uiso   1.00
C1144  C     0.91979   0.54850   0.51098   0.00000  Uiso   1.00
C1145  C     0.87516   0.50755   0.58944   0.00000  Uiso   1.00
C1146  C     0.74934   0.47227   0.93980   0.00000  Uiso   1.00
C1147  C     0.73319   0.47134   0.99703   0.00000  Uiso   1.00
C1148  C     0.76071   0.49083   0.52514   0.00000  Uiso   1.00
H1149  H     0.93954   0.54041   0.58304   0.00000  Uiso   1.00
H1150  H     0.96896   0.43927   0.71573   0.00000  Uiso   1.00
H1151  H     0.71930   0.43926   0.71602   0.00000  Uiso   1.00
H1152  H     0.94585   0.55974   0.78567   0.00000  Uiso   1.00
H1153  H     0.81917   0.47093   0.58095   0.00000  Uiso   1.00
H1154  H     0.84971   0.56365   0.87839   0.00000  Uiso   1.00
H1155  H     0.85023   0.62607   0.82167   0.00000  Uiso   1.00
N1156  N     0.71426   0.50001   0.75001   0.00000  Uiso   1.00
N1157  N     0.95239   0.49998   0.75000   0.00000  Uiso   1.00
O1158  O     0.79512   0.56108   0.75000   0.00000  Uiso   1.00
O1159  O     0.87157   0.56107   0.75000   0.00000  Uiso   1.00
O1160  O     0.77613   0.50000   0.82681   0.00000  Uiso   1.00
O1161  O     0.85258   0.49999   0.82681   0.00000  Uiso   1.00
O1162  O     0.79510   0.43893   0.74999   0.00000  Uiso   1.00
O1163  O     0.87154   0.43892   0.74999   0.00000  Uiso   1.00
O1164  O     0.81409   0.50001   0.67319   0.00000  Uiso   1.00
O1165  O     0.89053   0.50000   0.67319   0.00000  Uiso   1.00
Zn1166 Zn    0.78229   0.50001   0.75000   0.00000  Uiso   1.00
Zn1167 Zn    0.88438   0.49999   0.75000   0.00000  Uiso   1.00
C1168  C     0.84992   0.37529   0.83961   0.00000  Uiso   1.00
H1169  H     0.84612   0.40893   0.84455   0.00000  Uiso   1.00
O1170  O     0.85969   0.35533   0.87445   0.00000  Uiso   1.00
C1171  C     0.81988   0.37989   0.65970   0.00000  Uiso   1.00
O1172  O     0.85351   0.40096   0.63220   0.00000  Uiso   1.00
O1173  O     0.77747   0.37896   0.64754   0.00000  Uiso   1.00
H1174  H     0.77920   0.39655   0.61464   0.00000  Uiso   1.00
C1175  C     0.81397   0.62280   0.66136   0.00000  Uiso   1.00
O1176  O     0.84517   0.60001   0.63185   0.00000  Uiso   1.00
O1177  O     0.77020   0.62751   0.65270   0.00000  Uiso   1.00
H1178  H     0.76942   0.61191   0.61929   0.00000  Uiso   1.00
C1179  C     0.69735   0.56885   0.79777   0.00000  Uiso   1.00
O1180  O     0.71264   0.56281   0.83514   0.00000  Uiso   1.00
O1181  O     0.69057   0.60966   0.78223   0.00000  Uiso   1.00
H1182  H     0.70103   0.63153   0.80389   0.00000  Uiso   1.00
C1183  C     0.90611   0.60366   0.92121   0.00000  Uiso   1.00
O1184  O     0.92120   0.61068   0.87241   0.00000  Uiso   1.00
O1185  O     0.91176   0.63348   0.95767   0.00000  Uiso   1.00
H1186  H     0.92973   0.65904   0.93867   0.00000  Uiso   1.00
C1187  C     0.96743   0.56528   0.97870   0.00000  Uiso   1.00
H1188  H     0.97850   0.56640   0.93482   0.00000  Uiso   1.00
O1189  O     0.99557   0.57690   0.50070   0.00000  Uiso   1.00
C1190  C     0.72329   0.44761   0.91047   0.00000  Uiso   1.00
H1191  H     0.68443   0.44811   0.92437   0.00000  Uiso   1.00
O1192  O     0.74489   0.42503   0.87232   0.00000  Uiso   1.00
C1193  C     0.74003   0.49663   0.58483   0.00000  Uiso   1.00
O1194  O     0.72190   0.46716   0.61403   0.00000  Uiso   1.00
O1195  O     0.74254   0.53572   0.60750   0.00000  Uiso   1.00
H1196  H     0.72735   0.53600   0.64847   0.00000  Uiso   1.00
C1197  C     0.68862   0.44846   0.52699   0.00000  Uiso   1.00
O1198  O     0.98893   0.46659   0.56105   0.00000  Uiso   1.00
O1199  O     0.68456   0.40614   0.51593   0.00000  Uiso   1.00
H1200  H     0.98594   0.39408   0.53868   0.00000  Uiso   1.00
C1201  C     0.16667   0.91318   0.74930   0.00000  Uiso   1.00
C1202  C     0.13902   0.84222   0.99522   0.00000  Uiso   1.00
C1203  C     0.14813   0.85178   0.94050   0.00000  Uiso   1.00
C1204  C     0.17620   0.85009   0.51682   0.00000  Uiso   1.00
C1205  C     0.21488   0.87717   0.98953   0.00000  Uiso   1.00
C1206  C     0.21336   0.89772   0.94200   0.00000  Uiso   1.00
C1207  C     0.18228   0.88270   0.91626   0.00000  Uiso   1.00
C1208  C     0.17738   0.82897   0.56300   0.00000  Uiso   1.00
C1209  C     0.24728   0.86627   0.56306   0.00000  Uiso   1.00
C1210  C     0.12242   0.83094   0.91171   0.00000  Uiso   1.00
C1211  C     0.17660   0.97756   0.78997   0.00000  Uiso   1.00
C1212  C     0.14004   0.83287   0.85225   0.00000  Uiso   1.00
C1213  C     0.17608   0.68730   0.79219   0.00000  Uiso   1.00
C1214  C     0.16717   0.70928   0.74974   0.00000  Uiso   1.00
C1215  C     0.15748   0.68905   0.70663   0.00000  Uiso   1.00
C1216  C     0.15599   0.97889   0.70657   0.00000  Uiso   1.00
C1217  C     0.16654   0.95732   0.74809   0.00000  Uiso   1.00
C1218  C     0.31537   0.79958   0.73120   0.00000  Uiso   1.00
C1219  C     0.02985   0.79957   0.73133   0.00000  Uiso   1.00
C1220  C     0.01685   0.86661   0.77088   0.00000  Uiso   1.00
C1221  C     0.30284   0.86673   0.76952   0.00000  Uiso   1.00
C1222  C     0.16665   0.75350   0.75066   0.00000  Uiso   1.00
C1223  C     0.19314   0.83369   0.64774   0.00000  Uiso   1.00
C1224  C     0.25312   0.88184   0.51098   0.00000  Uiso   1.00
C1225  C     0.20849   0.84088   0.58944   0.00000  Uiso   1.00
C1226  C     0.08267   0.80561   0.93980   0.00000  Uiso   1.00
C1227  C     0.06652   0.80467   0.99703   0.00000  Uiso   1.00
C1228  C     0.09404   0.82417   0.52514   0.00000  Uiso   1.00
H1229  H     0.27287   0.87374   0.58304   0.00000  Uiso   1.00
H1230  H     0.30229   0.77261   0.71573   0.00000  Uiso   1.00
H1231  H     0.05263   0.77259   0.71602   0.00000  Uiso   1.00
H1232  H     0.27919   0.89308   0.78567   0.00000  Uiso   1.00
H1233  H     0.15250   0.80427   0.58095   0.00000  Uiso   1.00
H1234  H     0.18304   0.89698   0.87839   0.00000  Uiso   1.00
H1235  H     0.18356   0.95941   0.82167   0.00000  Uiso   1.00
N1236  N     0.04760   0.83334   0.75001   0.00000  Uiso   1.00
N1237  N     0.28573   0.83331   0.75000   0.00000  Uiso   1.00
O1238  O     0.12846   0.89442   0.75000   0.00000  Uiso   1.00
O1239  O     0.20490   0.89441   0.75000   0.00000  Uiso   1.00
O1240  O     0.10947   0.83333   0.82681   0.00000  Uiso   1.00
O1241  O     0.18591   0.83332   0.82681   0.00000  Uiso   1.00
O1242  O     0.12843   0.77226   0.74999   0.00000  Uiso   1.00
O1243  O     0.20488   0.77225   0.74999   0.00000  Uiso   1.00
O1244  O     0.14742   0.83335   0.67319   0.00000  Uiso   1.00
O1245  O     0.22387   0.83334   0.67319   0.00000  Uiso   1.00
Zn1246 Zn    0.11562   0.83334   0.75000   0.00000  Uiso   1.00
Zn1247 Zn    0.21771   0.83333   0.75000   0.00000  Uiso   1.00
C1248  C     0.18325   0.70862   0.83961   0.00000  Uiso   1.00
H1249  H     0.17945   0.74226   0.84455   0.00000  Uiso   1.00
O1250  O     0.19302   0.68866   0.87445   0.00000  Uiso   1.00
C1251  C     0.15322   0.71322   0.65970   0.00000  Uiso   1.00
O1252  O     0.18685   0.73429   0.63220   0.00000  Uiso   1.00
O1253  O     0.11080   0.71229   0.64754   0.00000  Uiso   1.00
H1254  H     0.11253   0.72989   0.61464   0.00000  Uiso   1.00
C1255  C     0.14730   0.95613   0.66136   0.00000  Uiso   1.00
O1256  O     0.17850   0.93334   0.63185   0.00000  Uiso   1.00
O1257  O     0.10353   0.96084   0.65270   0.00000  Uiso   1.00
H1258  H     0.10275   0.94525   0.61929   0.00000  Uiso   1.00
C1259  C     0.03068   0.90219   0.79777   0.00000  Uiso   1.00
O1260  O     0.04598   0.89615   0.83514   0.00000  Uiso   1.00
O1261  O     0.02390   0.94299   0.78223   0.00000  Uiso   1.00
H1262  H     0.03436   0.96486   0.80389   0.00000  Uiso   1.00
C1263  C     0.23944   0.93700   0.92121   0.00000  Uiso   1.00
O1264  O     0.25454   0.94401   0.87241   0.00000  Uiso   1.00
O1265  O     0.24509   0.96681   0.95767   0.00000  Uiso   1.00
H1266  H     0.26306   0.99238   0.93867   0.00000  Uiso   1.00
C1267  C     0.30076   0.89862   0.97870   0.00000  Uiso   1.00
H1268  H     0.31183   0.89973   0.93482   0.00000  Uiso   1.00
O1269  O     0.32890   0.91024   0.50070   0.00000  Uiso   1.00
C1270  C     0.05662   0.78094   0.91047   0.00000  Uiso   1.00
H1271  H     0.01777   0.78144   0.92437   0.00000  Uiso   1.00
O1272  O     0.07822   0.75837   0.87232   0.00000  Uiso   1.00
C1273  C     0.07336   0.82996   0.58483   0.00000  Uiso   1.00
O1274  O     0.05524   0.80049   0.61403   0.00000  Uiso   1.00
O1275  O     0.07587   0.86906   0.60750   0.00000  Uiso   1.00
H1276  H     0.06069   0.86933   0.64847   0.00000  Uiso   1.00
C1277  C     0.02195   0.78179   0.52699   0.00000  Uiso   1.00
O1278  O     0.32226   0.79993   0.56105   0.00000  Uiso   1.00
O1279  O     0.01790   0.73947   0.51593   0.00000  Uiso   1.00
H1280  H     0.31928   0.72741   0.53868   0.00000  Uiso   1.00
C1281  C     0.50000   0.91318   0.74930   0.00000  Uiso   1.00
C1282  C     0.47235   0.84222   0.99522   0.00000  Uiso   1.00
C1283  C     0.48147   0.85178   0.94050   0.00000  Uiso   1.00
C1284  C     0.50954   0.85009   0.51682   0.00000  Uiso   1.00
C1285  C     0.54821   0.87717   0.98953   0.00000  Uiso   1.00
C1286  C     0.54670   0.89772   0.94200   0.00000  Uiso   1.00
C1287  C     0.51561   0.88270   0.91626   0.00000  Uiso   1.00
C1288  C     0.51071   0.82897   0.56300   0.00000  Uiso   1.00
C1289  C     0.58062   0.86627   0.56306   0.00000  Uiso   1.00
C1290  C     0.45575   0.83094   0.91171   0.00000  Uiso   1.00
C1291  C     0.50994   0.97756   0.78997   0.00000  Uiso   1.00
C1292  C     0.47338   0.83287   0.85225   0.00000  Uiso   1.00
C1293  C     0.50941   0.68730   0.79219   0.00000  Uiso   1.00
C1294  C     0.50050   0.70928   0.74974   0.00000  Uiso   1.00
C1295  C     0.49082   0.68905   0.70663   0.00000  Uiso   1.00
C1296  C     0.48933   0.97889   0.70657   0.00000  Uiso   1.00
C1297  C     0.49988   0.95732   0.74809   0.00000  Uiso   1.00
C1298  C     0.64870   0.79958   0.73120   0.00000  Uiso   1.00
C1299  C     0.36318   0.79957   0.73133   0.00000  Uiso   1.00
C1300  C     0.35019   0.86661   0.77088   0.00000  Uiso   1.00
C1301  C     0.63617   0.86673   0.76952   0.00000  Uiso   1.00
C1302  C     0.49998   0.75350   0.75066   0.00000  Uiso   1.00
C1303  C     0.52648   0.83369   0.64774   0.00000  Uiso   1.00
C1304  C     0.58645   0.88184   0.51098   0.00000  Uiso   1.00
C1305  C     0.54182   0.84088   0.58944   0.00000  Uiso   1.00
C1306  C     0.41600   0.80561   0.93980   0.00000  Uiso   1.00
C1307  C     0.39986   0.80467   0.99703   0.00000  Uiso   1.00
C1308  C     0.42737   0.82417   0.52514   0.00000  Uiso   1.00
H1309  H     0.60621   0.87374   0.58304   0.00000  Uiso   1.00
H1310  H     0.63563   0.77261   0.71573   0.00000  Uiso   1.00
H1311  H     0.38597   0.77259   0.71602   0.00000  Uiso   1.00
H1312  H     0.61252   0.89308   0.78567   0.00000  Uiso   1.00
H1313  H     0.48583   0.80427   0.58095   0.00000  Uiso   1.00
H1314  H     0.51637   0.89698   0.87839   0.00000  Uiso   1.00
H1315  H     0.51690   0.95941   0.82167   0.00000  Uiso   1.00
N1316  N     0.38093   0.83334   0.75001   0.00000  Uiso   1.00
N1317  N     0.61906   0.83331   0.75000   0.00000  Uiso   1.00
O1318  O     0.46179   0.89442   0.75000   0.00000  Uiso   1.00
O1319  O     0.53823   0.89441   0.75000   0.00000  Uiso   1.00
O1320  O     0.44280   0.83333   0.82681   0.00000  Uiso   1.00
O1321  O     0.51924   0.83332   0.82681   0.00000  Uiso   1.00
O1322  O     0.46177   0.77226   0.74999   0.00000  Uiso   1.00
O1323  O     0.53821   0.77225   0.74999   0.00000  Uiso   1.00
O1324  O     0.48076   0.83335   0.67319   0.00000  Uiso   1.00
O1325  O     0.55720   0.83334   0.67319   0.00000  Uiso   1.00
Zn1326 Zn    0.44896   0.83334   0.75000   0.00000  Uiso   1.00
Zn1327 Zn    0.55104   0.83333   0.75000   0.00000  Uiso   1.00
C1328  C     0.51658   0.70862   0.83961   0.00000  Uiso   1.00
H1329  H     0.51278   0.74226   0.84455   0.00000  Uiso   1.00
O1330  O     0.52636   0.68866   0.87445   0.00000  Uiso   1.00
C1331  C     0.48655   0.71322   0.65970   0.00000  Uiso   1.00
O1332  O     0.52018   0.73429   0.63220   0.00000  Uiso   1.00
O1333  O     0.44414   0.71229   0.64754   0.00000  Uiso   1.00
H1334  H     0.44587   0.72989   0.61464   0.00000  Uiso   1.00
C1335  C     0.48063   0.95613   0.66136   0.00000  Uiso   1.00
O1336  O     0.51183   0.93334   0.63185   0.00000  Uiso   1.00
O1337  O     0.43686   0.96084   0.65270   0.00000  Uiso   1.00
H1338  H     0.43609   0.94525   0.61929   0.00000  Uiso   1.00
C1339  C     0.36402   0.90219   0.79777   0.00000  Uiso   1.00
O1340  O     0.37931   0.89615   0.83514   0.00000  Uiso   1.00
O1341  O     0.35724   0.94299   0.78223   0.00000  Uiso   1.00
H1342  H     0.36770   0.96486   0.80389   0.00000  Uiso   1.00
C1343  C     0.57278   0.93700   0.92121   0.00000  Uiso   1.00
O1344  O     0.58787   0.94401   0.87241   0.00000  Uiso   1.00
O1345  O     0.57842   0.96681   0.95767   0.00000  Uiso   1.00
H1346  H     0.59640   0.99238   0.93867   0.00000  Uiso   1.00
C1347  C     0.63409   0.89862   0.97870   0.00000  Uiso   1.00
H1348  H     0.64516   0.89973   0.93482   0.00000  Uiso   1.00
O1349  O     0.66223   0.91024   0.50070   0.00000  Uiso   1.00
C1350  C     0.38995   0.78094   0.91047   0.00000  Uiso   1.00
H1351  H     0.35110   0.78144   0.92437   0.00000  Uiso   1.00
O1352  O     0.41156   0.75837   0.87232   0.00000  Uiso   1.00
C1353  C     0.40670   0.82996   0.58483   0.00000  Uiso   1.00
O1354  O     0.38857   0.80049   0.61403   0.00000  Uiso   1.00
O1355  O     0.40920   0.86906   0.60750   0.00000  Uiso   1.00
H1356  H     0.39402   0.86933   0.64847   0.00000  Uiso   1.00
C1357  C     0.35528   0.78179   0.52699   0.00000  Uiso   1.00
O1358  O     0.65559   0.79993   0.56105   0.00000  Uiso   1.00
O1359  O     0.35123   0.73947   0.51593   0.00000  Uiso   1.00
H1360  H     0.65261   0.72741   0.53868   0.00000  Uiso   1.00
C1361  C     0.83333   0.91318   0.74930   0.00000  Uiso   1.00
C1362  C     0.80569   0.84222   0.99522   0.00000  Uiso   1.00
C1363  C     0.81480   0.85178   0.94050   0.00000  Uiso   1.00
C1364  C     0.84287   0.85009   0.51682   0.00000  Uiso   1.00
C1365  C     0.88154   0.87717   0.98953   0.00000  Uiso   1.00
C1366  C     0.88003   0.89772   0.94200   0.00000  Uiso   1.00
C1367  C     0.84895   0.88270   0.91626   0.00000  Uiso   1.00
C1368  C     0.84405   0.82897   0.56300   0.00000  Uiso   1.00
C1369  C     0.91395   0.86627   0.56306   0.00000  Uiso   1.00
C1370  C     0.78908   0.83094   0.91171   0.00000  Uiso   1.00
C1371  C     0.84327   0.97756   0.78997   0.00000  Uiso   1.00
C1372  C     0.80671   0.83287   0.85225   0.00000  Uiso   1.00
C1373  C     0.84274   0.68730   0.79219   0.00000  Uiso   1.00
C1374  C     0.83383   0.70928   0.74974   0.00000  Uiso   1.00
C1375  C     0.82415   0.68905   0.70663   0.00000  Uiso   1.00
C1376  C     0.82266   0.97889   0.70657   0.00000  Uiso   1.00
C1377  C     0.83321   0.95732   0.74809   0.00000  Uiso   1.00
C1378  C     0.98204   0.79958   0.73120   0.00000  Uiso   1.00
C1379  C     0.69651   0.79957   0.73133   0.00000  Uiso   1.00
C1380  C     0.68352   0.86661   0.77088   0.00000  Uiso   1.00
C1381  C     0.96951   0.86673   0.76952   0.00000  Uiso   1.00
C1382  C     0.83331   0.75350   0.75066   0.00000  Uiso   1.00
C1383  C     0.85981   0.83369   0.64774   0.00000  Uiso   1.00
C1384  C     0.91979   0.88184   0.51098   0.00000  Uiso   1.00
C1385  C     0.87516   0.84088   0.58944   0.00000  Uiso   1.00
C1386  C     0.74934   0.80561   0.93980   0.00000  Uiso   1.00
C1387  C     0.73319   0.80467   0.99703   0.00000  Uiso   1.00
C1388  C     0.76071   0.82417   0.52514   0.00000  Uiso   1.00
H1389  H     0.93954   0.87374   0.58304   0.00000  Uiso   1.00
H1390  H     0.96896   0.77261   0.71573   0.00000  Uiso   1.00
H1391  H     0.71930   0.77259   0.71602   0.00000  Uiso   1.00
H1392  H     0.94585   0.89308   0.78567   0.00000  Uiso   1.00
H1393  H     0.81917   0.80427   0.58095   0.00000  Uiso   1.00
H1394  H     0.84971   0.89698   0.87839   0.00000  Uiso   1.00
H1395  H     0.85023   0.95941   0.82167   0.00000  Uiso   1.00
N1396  N     0.71426   0.83334   0.75001   0.00000  Uiso   1.00
N1397  N     0.95239   0.83331   0.75000   0.00000  Uiso   1.00
O1398  O     0.79512   0.89442   0.75000   0.00000  Uiso   1.00
O1399  O     0.87157   0.89441   0.75000   0.00000  Uiso   1.00
O1400  O     0.77613   0.83333   0.82681   0.00000  Uiso   1.00
O1401  O     0.85258   0.83332   0.82681   0.00000  Uiso   1.00
O1402  O     0.79510   0.77226   0.74999   0.00000  Uiso   1.00
O1403  O     0.87154   0.77225   0.74999   0.00000  Uiso   1.00
O1404  O     0.81409   0.83335   0.67319   0.00000  Uiso   1.00
O1405  O     0.89053   0.83334   0.67319   0.00000  Uiso   1.00
Zn1406 Zn    0.78229   0.83334   0.75000   0.00000  Uiso   1.00
Zn1407 Zn    0.88438   0.83333   0.75000   0.00000  Uiso   1.00
C1408  C     0.84992   0.70862   0.83961   0.00000  Uiso   1.00
H1409  H     0.84612   0.74226   0.84455   0.00000  Uiso   1.00
O1410  O     0.85969   0.68866   0.87445   0.00000  Uiso   1.00
C1411  C     0.81988   0.71322   0.65970   0.00000  Uiso   1.00
O1412  O     0.85351   0.73429   0.63220   0.00000  Uiso   1.00
O1413  O     0.77747   0.71229   0.64754   0.00000  Uiso   1.00
H1414  H     0.77920   0.72989   0.61464   0.00000  Uiso   1.00
C1415  C     0.81397   0.95613   0.66136   0.00000  Uiso   1.00
O1416  O     0.84517   0.93334   0.63185   0.00000  Uiso   1.00
O1417  O     0.77020   0.96084   0.65270   0.00000  Uiso   1.00
H1418  H     0.76942   0.94525   0.61929   0.00000  Uiso   1.00
C1419  C     0.69735   0.90219   0.79777   0.00000  Uiso   1.00
O1420  O     0.71264   0.89615   0.83514   0.00000  Uiso   1.00
O1421  O     0.69057   0.94299   0.78223   0.00000  Uiso   1.00
H1422  H     0.70103   0.96486   0.80389   0.00000  Uiso   1.00
C1423  C     0.90611   0.93700   0.92121   0.00000  Uiso   1.00
O1424  O     0.92120   0.94401   0.87241   0.00000  Uiso   1.00
O1425  O     0.91176   0.96681   0.95767   0.00000  Uiso   1.00
H1426  H     0.92973   0.99238   0.93867   0.00000  Uiso   1.00
C1427  C     0.96743   0.89862   0.97870   0.00000  Uiso   1.00
H1428  H     0.97850   0.89973   0.93482   0.00000  Uiso   1.00
O1429  O     0.99557   0.91024   0.50070   0.00000  Uiso   1.00
C1430  C     0.72329   0.78094   0.91047   0.00000  Uiso   1.00
H1431  H     0.68443   0.78144   0.92437   0.00000  Uiso   1.00
O1432  O     0.74489   0.75837   0.87232   0.00000  Uiso   1.00
C1433  C     0.74003   0.82996   0.58483   0.00000  Uiso   1.00
O1434  O     0.72190   0.80049   0.61403   0.00000  Uiso   1.00
O1435  O     0.74254   0.86906   0.60750   0.00000  Uiso   1.00
H1436  H     0.72735   0.86933   0.64847   0.00000  Uiso   1.00
C1437  C     0.68862   0.78179   0.52699   0.00000  Uiso   1.00
O1438  O     0.98893   0.79993   0.56105   0.00000  Uiso   1.00
O1439  O     0.68456   0.73947   0.51593   0.00000  Uiso   1.00
H1440  H     0.98594   0.72741   0.53868   0.00000  Uiso   1.00
loop_
_geom_bond_atom_site_label_1
_geom_bond_atom_site_label_2
_geom_bond_distance
_geom_bond_site_symmetry_2
_ccdc_geom_bond_type
C1     O38     1.282   .     A
C1     C17     1.411   .     S
C1     O39     1.283   .     A
C2     C3      1.397   .     A
C2     C724    1.421   .     S
C2     C748    1.427   .     S
C3     C7      1.411   .     A
C3     C10     1.409   .     A
C4     C8      1.392   .     A
C4     C722    1.421   1_554 S
C4     C725    1.429   1_554 S
C5     C6      1.418   .     A
C5     C724    1.429   .     S
C5     C744    1.432   .     S
C6     C63     1.485   .     S
C6     C7      1.399   .     A
C7     H34     1.082   .     S
C8     C25     1.381   .     A
C8     H33     1.080   .     S
C9     C25     1.393   .     A
C9     H29     1.084   .     S
C9     C24     1.404   .     A
C10    C26     1.421   .     A
C10    C12     1.465   .     S
C11    C17     1.389   .     A
C11    H35     1.084   .     S
C11    C253    1.378   .     S
C12    O40     1.291   .     A
C12    O41     1.298   .     A
C13    C14     1.408   .     A
C13    C48     1.492   .     S
C13    C491    1.378   1_545 S
C14    C22     1.413   .     S
C14    C15     1.411   .     A
C15    C51     1.489   .     S
C15    C496    1.391   1_545 S
C16    C17     1.404   .     A
C16    C55     1.483   .     S
C16    C255    1.391   .     S
C18    N37     1.367   .     A
C18    H30     1.081   .     S
C18    C99     1.418   .     S
C19    H31     1.081   .     S
C19    N36     1.366   .     A
C19    C178    1.418   1_455 S
C20    C59     1.469   .     S
C20    N36     1.381   .     A
C20    C181    1.416   1_455 S
C21    H32     1.082   .     S
C21    N37     1.358   .     A
C21    C100    1.416   .     S
C22    O43     1.282   .     A
C22    O42     1.282   .     A
C23    O45     1.295   .     A
C23    O44     1.294   .     A
C23    C25     1.455   .     S
C24    C725    1.432   1_554 S
C24    C787    1.486   1_554 S
C26    C27     1.409   .     A
C26    C70     1.488   .     S
C27    C748    1.416   .     S
C27    C797    1.489   .     S
C28    C73     1.483   .     S
C28    C747    1.416   1_554 S
C28    C722    1.427   1_554 S
N36    Zn46    2.016   .     S
N37    Zn47    2.016   .     S
O38    Zn46    1.992   .     S
O39    Zn47    1.985   .     S
O40    Zn46    1.953   .     S
O41    Zn47    1.910   .     S
O42    Zn46    1.985   .     S
O43    Zn47    1.992   .     S
O44    Zn46    1.910   .     S
O45    Zn47    1.953   .     S
C48    O50     1.221   .     D
C48    H49     1.083   .     S
C51    O53     1.397   .     S
C51    O52     1.223   .     D
O53    H54     1.014   .     S
C55    O56     1.221   .     D
C55    O57     1.397   .     S
O57    H58     1.013   .     S
C59    O60     1.221   .     D
C59    O61     1.398   .     S
O61    H62     1.014   .     S
C63    O65     1.399   .     S
C63    O64     1.223   .     D
O65    H66     1.014   .     S
C67    H68     1.082   .     S
C67    C744    1.486   .     S
C67    O789    1.222   .     S
O69    C787    1.222   1_554 S
C70    H71     1.085   .     S
C70    O72     1.221   .     D
C73    O74     1.221   .     D
C73    O75     1.397   .     S
O75    H76     1.013   .     S
C77    O79     1.398   .     S
C77    C747    1.489   1_554 S
C77    O238    1.222   1_455 S
O78    C157    1.222   .     S
O79    H240    1.014   1_455 S
H80    O159    1.014   .     S
C81    O118    1.282   .     A
C81    C97     1.411   .     S
C81    O119    1.283   .     A
C82    C83     1.397   .     A
C82    C804    1.421   .     S
C82    C828    1.427   .     S
C83    C87     1.411   .     A
C83    C90     1.409   .     A
C84    C88     1.392   .     A
C84    C802    1.421   1_554 S
C84    C805    1.429   1_554 S
C85    C86     1.418   .     A
C85    C804    1.429   .     S
C85    C824    1.432   .     S
C86    C143    1.485   .     S
C86    C87     1.399   .     A
C87    H114    1.082   .     S
C88    C105    1.381   .     A
C88    H113    1.080   .     S
C89    C105    1.393   .     A
C89    H109    1.084   .     S
C89    C104    1.404   .     A
C90    C106    1.421   .     A
C90    C92     1.465   .     S
C91    C97     1.389   .     A
C91    H115    1.084   .     S
C91    C333    1.378   .     S
C92    O120    1.291   .     A
C92    O121    1.298   .     A
C93    C94     1.408   .     A
C93    C128    1.492   .     S
C93    C571    1.378   1_545 S
C94    C102    1.413   .     S
C94    C95     1.411   .     A
C95    C131    1.489   .     S
C95    C576    1.391   1_545 S
C96    C97     1.404   .     A
C96    C135    1.483   .     S
C96    C335    1.391   .     S
C98    N117    1.367   .     A
C98    H110    1.081   .     S
C98    C179    1.418   .     S
C99    H111    1.081   .     S
C99    N116    1.366   .     A
C100   C139    1.469   .     S
C100   N116    1.381   .     A
C101   H112    1.082   .     S
C101   N117    1.358   .     A
C101   C180    1.416   .     S
C102   O123    1.282   .     A
C102   O122    1.282   .     A
C103   O125    1.295   .     A
C103   O124    1.294   .     A
C103   C105    1.455   .     S
C104   C805    1.432   1_554 S
C104   C867    1.486   1_554 S
C106   C107    1.409   .     A
C106   C150    1.488   .     S
C107   C828    1.416   .     S
C107   C877    1.489   .     S
C108   C153    1.483   .     S
C108   C827    1.416   1_554 S
C108   C802    1.427   1_554 S
N116   Zn126   2.016   .     S
N117   Zn127   2.016   .     S
O118   Zn126   1.992   .     S
O119   Zn127   1.985   .     S
O120   Zn126   1.953   .     S
O121   Zn127   1.910   .     S
O122   Zn126   1.985   .     S
O123   Zn127   1.992   .     S
O124   Zn126   1.910   .     S
O125   Zn127   1.953   .     S
C128   O130    1.221   .     D
C128   H129    1.083   .     S
C131   O133    1.397   .     S
C131   O132    1.223   .     D
O133   H134    1.014   .     S
C135   O136    1.221   .     D
C135   O137    1.397   .     S
O137   H138    1.013   .     S
C139   O140    1.221   .     D
C139   O141    1.398   .     S
O141   H142    1.014   .     S
C143   O145    1.399   .     S
C143   O144    1.223   .     D
O145   H146    1.014   .     S
C147   H148    1.082   .     S
C147   C824    1.486   .     S
C147   O869    1.222   .     S
O149   C867    1.222   1_554 S
C150   H151    1.085   .     S
C150   O152    1.221   .     D
C153   O154    1.221   .     D
C153   O155    1.397   .     S
O155   H156    1.013   .     S
C157   O159    1.398   .     S
C157   C827    1.489   1_554 S
O158   C237    1.222   .     S
H160   O239    1.014   .     S
C161   O198    1.282   .     A
C161   C177    1.411   .     S
C161   O199    1.283   .     A
C162   C163    1.397   .     A
C162   C884    1.421   .     S
C162   C908    1.427   .     S
C163   C167    1.411   .     A
C163   C170    1.409   .     A
C164   C168    1.392   .     A
C164   C882    1.421   1_554 S
C164   C885    1.429   1_554 S
C165   C166    1.418   .     A
C165   C884    1.429   .     S
C165   C904    1.432   .     S
C166   C223    1.485   .     S
C166   C167    1.399   .     A
C167   H194    1.082   .     S
C168   C185    1.381   .     A
C168   H193    1.080   .     S
C169   C185    1.393   .     A
C169   H189    1.084   .     S
C169   C184    1.404   .     A
C170   C186    1.421   .     A
C170   C172    1.465   .     S
C171   C177    1.389   .     A
C171   H195    1.084   .     S
C171   C413    1.378   .     S
C172   O200    1.291   .     A
C172   O201    1.298   .     A
C173   C174    1.408   .     A
C173   C208    1.492   .     S
C173   C651    1.378   1_545 S
C174   C182    1.413   .     S
C174   C175    1.411   .     A
C175   C211    1.489   .     S
C175   C656    1.391   1_545 S
C176   C177    1.404   .     A
C176   C215    1.483   .     S
C176   C415    1.391   .     S
C178   N197    1.367   .     A
C178   H190    1.081   .     S
C178   C19     1.418   1_655 S
C179   H191    1.081   .     S
C179   N196    1.366   .     A
C180   C219    1.469   .     S
C180   N196    1.381   .     A
C181   H192    1.082   .     S
C181   N197    1.358   .     A
C181   C20     1.416   1_655 S
C182   O203    1.282   .     A
C182   O202    1.282   .     A
C183   O205    1.295   .     A
C183   O204    1.294   .     A
C183   C185    1.455   .     S
C184   C885    1.432   1_554 S
C184   C947    1.486   1_554 S
C186   C187    1.409   .     A
C186   C230    1.488   .     S
C187   C908    1.416   .     S
C187   C957    1.489   .     S
C188   C233    1.483   .     S
C188   C907    1.416   1_554 S
C188   C882    1.427   1_554 S
N196   Zn206   2.016   .     S
N197   Zn207   2.016   .     S
O198   Zn206   1.992   .     S
O199   Zn207   1.985   .     S
O200   Zn206   1.953   .     S
O201   Zn207   1.910   .     S
O202   Zn206   1.985   .     S
O203   Zn207   1.992   .     S
O204   Zn206   1.910   .     S
O205   Zn207   1.953   .     S
C208   O210    1.221   .     D
C208   H209    1.083   .     S
C211   O213    1.397   .     S
C211   O212    1.223   .     D
O213   H214    1.014   .     S
C215   O216    1.221   .     D
C215   O217    1.397   .     S
O217   H218    1.013   .     S
C219   O220    1.221   .     D
C219   O221    1.398   .     S
O221   H222    1.014   .     S
C223   O225    1.399   .     S
C223   O224    1.223   .     D
O225   H226    1.014   .     S
C227   H228    1.082   .     S
C227   C904    1.486   .     S
C227   O949    1.222   .     S
O229   C947    1.222   1_554 S
C230   H231    1.085   .     S
C230   O232    1.221   .     D
C233   O234    1.221   .     D
C233   O235    1.397   .     S
O235   H236    1.013   .     S
C237   O239    1.398   .     S
C237   C907    1.489   1_554 S
O238   C77     1.222   1_655 S
H240   O79     1.014   1_655 S
C241   O278    1.282   .     A
C241   C257    1.411   .     S
C241   O279    1.283   .     A
C242   C243    1.397   .     A
C242   C964    1.421   .     S
C242   C988    1.427   .     S
C243   C247    1.411   .     A
C243   C250    1.409   .     A
C244   C248    1.392   .     A
C244   C962    1.421   1_554 S
C244   C965    1.429   1_554 S
C245   C246    1.418   .     A
C245   C964    1.429   .     S
C245   C984    1.432   .     S
C246   C303    1.485   .     S
C246   C247    1.399   .     A
C247   H274    1.082   .     S
C248   C265    1.381   .     A
C248   H273    1.080   .     S
C249   C265    1.393   .     A
C249   H269    1.084   .     S
C249   C264    1.404   .     A
C250   C266    1.421   .     A
C250   C252    1.465   .     S
C251   C257    1.389   .     A
C251   H275    1.084   .     S
C251   C493    1.378   .     S
C252   O280    1.291   .     A
C252   O281    1.298   .     A
C253   C254    1.408   .     A
C253   C288    1.492   .     S
C254   C262    1.413   .     S
C254   C255    1.411   .     A
C255   C291    1.489   .     S
C256   C257    1.404   .     A
C256   C295    1.483   .     S
C256   C495    1.391   .     S
C258   N277    1.367   .     A
C258   H270    1.081   .     S
C258   C339    1.418   .     S
C259   H271    1.081   .     S
C259   N276    1.366   .     A
C259   C418    1.418   1_455 S
C260   C299    1.469   .     S
C260   N276    1.381   .     A
C260   C421    1.416   1_455 S
C261   H272    1.082   .     S
C261   N277    1.358   .     A
C261   C340    1.416   .     S
C262   O283    1.282   .     A
C262   O282    1.282   .     A
C263   O285    1.295   .     A
C263   O284    1.294   .     A
C263   C265    1.455   .     S
C264   C965    1.432   1_554 S
C264   C1027   1.486   1_554 S
C266   C267    1.409   .     A
C266   C310    1.488   .     S
C267   C988    1.416   .     S
C267   C1037   1.489   .     S
C268   C313    1.483   .     S
C268   C987    1.416   1_554 S
C268   C962    1.427   1_554 S
N276   Zn286   2.016   .     S
N277   Zn287   2.016   .     S
O278   Zn286   1.992   .     S
O279   Zn287   1.985   .     S
O280   Zn286   1.953   .     S
O281   Zn287   1.910   .     S
O282   Zn286   1.985   .     S
O283   Zn287   1.992   .     S
O284   Zn286   1.910   .     S
O285   Zn287   1.953   .     S
C288   O290    1.221   .     D
C288   H289    1.083   .     S
C291   O293    1.397   .     S
C291   O292    1.223   .     D
O293   H294    1.014   .     S
C295   O296    1.221   .     D
C295   O297    1.397   .     S
O297   H298    1.013   .     S
C299   O300    1.221   .     D
C299   O301    1.398   .     S
O301   H302    1.014   .     S
C303   O305    1.399   .     S
C303   O304    1.223   .     D
O305   H306    1.014   .     S
C307   H308    1.082   .     S
C307   C984    1.486   .     S
C307   O1029   1.222   .     S
O309   C1027   1.222   1_554 S
C310   H311    1.085   .     S
C310   O312    1.221   .     D
C313   O314    1.221   .     D
C313   O315    1.397   .     S
O315   H316    1.013   .     S
C317   O319    1.398   .     S
C317   C987    1.489   1_554 S
C317   O478    1.222   1_455 S
O318   C397    1.222   .     S
O319   H480    1.014   1_455 S
H320   O399    1.014   .     S
C321   O358    1.282   .     A
C321   C337    1.411   .     S
C321   O359    1.283   .     A
C322   C323    1.397   .     A
C322   C1044   1.421   .     S
C322   C1068   1.427   .     S
C323   C327    1.411   .     A
C323   C330    1.409   .     A
C324   C328    1.392   .     A
C324   C1042   1.421   1_554 S
C324   C1045   1.429   1_554 S
C325   C326    1.418   .     A
C325   C1044   1.429   .     S
C325   C1064   1.432   .     S
C326   C383    1.485   .     S
C326   C327    1.399   .     A
C327   H354    1.082   .     S
C328   C345    1.381   .     A
C328   H353    1.080   .     S
C329   C345    1.393   .     A
C329   H349    1.084   .     S
C329   C344    1.404   .     A
C330   C346    1.421   .     A
C330   C332    1.465   .     S
C331   C337    1.389   .     A
C331   H355    1.084   .     S
C331   C573    1.378   .     S
C332   O360    1.291   .     A
C332   O361    1.298   .     A
C333   C334    1.408   .     A
C333   C368    1.492   .     S
C334   C342    1.413   .     S
C334   C335    1.411   .     A
C335   C371    1.489   .     S
C336   C337    1.404   .     A
C336   C375    1.483   .     S
C336   C575    1.391   .     S
C338   N357    1.367   .     A
C338   H350    1.081   .     S
C338   C419    1.418   .     S
C339   H351    1.081   .     S
C339   N356    1.366   .     A
C340   C379    1.469   .     S
C340   N356    1.381   .     A
C341   H352    1.082   .     S
C341   N357    1.358   .     A
C341   C420    1.416   .     S
C342   O363    1.282   .     A
C342   O362    1.282   .     A
C343   O365    1.295   .     A
C343   O364    1.294   .     A
C343   C345    1.455   .     S
C344   C1045   1.432   1_554 S
C344   C1107   1.486   1_554 S
C346   C347    1.409   .     A
C346   C390    1.488   .     S
C347   C1068   1.416   .     S
C347   C1117   1.489   .     S
C348   C393    1.483   .     S
C348   C1067   1.416   1_554 S
C348   C1042   1.427   1_554 S
N356   Zn366   2.016   .     S
N357   Zn367   2.016   .     S
O358   Zn366   1.992   .     S
O359   Zn367   1.985   .     S
O360   Zn366   1.953   .     S
O361   Zn367   1.910   .     S
O362   Zn366   1.985   .     S
O363   Zn367   1.992   .     S
O364   Zn366   1.910   .     S
O365   Zn367   1.953   .     S
C368   O370    1.221   .     D
C368   H369    1.083   .     S
C371   O373    1.397   .     S
C371   O372    1.223   .     D
O373   H374    1.014   .     S
C375   O376    1.221   .     D
C375   O377    1.397   .     S
O377   H378    1.013   .     S
C379   O380    1.221   .     D
C379   O381    1.398   .     S
O381   H382    1.014   .     S
C383   O385    1.399   .     S
C383   O384    1.223   .     D
O385   H386    1.014   .     S
C387   H388    1.082   .     S
C387   C1064   1.486   .     S
C387   O1109   1.222   .     S
O389   C1107   1.222   1_554 S
C390   H391    1.085   .     S
C390   O392    1.221   .     D
C393   O394    1.221   .     D
C393   O395    1.397   .     S
O395   H396    1.013   .     S
C397   O399    1.398   .     S
C397   C1067   1.489   1_554 S
O398   C477    1.222   .     S
H400   O479    1.014   .     S
C401   O438    1.282   .     A
C401   C417    1.411   .     S
C401   O439    1.283   .     A
C402   C403    1.397   .     A
C402   C1124   1.421   .     S
C402   C1148   1.427   .     S
C403   C407    1.411   .     A
C403   C410    1.409   .     A
C404   C408    1.392   .     A
C404   C1122   1.421   1_554 S
C404   C1125   1.429   1_554 S
C405   C406    1.418   .     A
C405   C1124   1.429   .     S
C405   C1144   1.432   .     S
C406   C463    1.485   .     S
C406   C407    1.399   .     A
C407   H434    1.082   .     S
C408   C425    1.381   .     A
C408   H433    1.080   .     S
C409   C425    1.393   .     A
C409   H429    1.084   .     S
C409   C424    1.404   .     A
C410   C426    1.421   .     A
C410   C412    1.465   .     S
C411   C417    1.389   .     A
C411   H435    1.084   .     S
C411   C653    1.378   .     S
C412   O440    1.291   .     A
C412   O441    1.298   .     A
C413   C414    1.408   .     A
C413   C448    1.492   .     S
C414   C422    1.413   .     S
C414   C415    1.411   .     A
C415   C451    1.489   .     S
C416   C417    1.404   .     A
C416   C455    1.483   .     S
C416   C655    1.391   .     S
C418   N437    1.367   .     A
C418   H430    1.081   .     S
C418   C259    1.418   1_655 S
C419   H431    1.081   .     S
C419   N436    1.366   .     A
C420   C459    1.469   .     S
C420   N436    1.381   .     A
C421   H432    1.082   .     S
C421   N437    1.358   .     A
C421   C260    1.416   1_655 S
C422   O443    1.282   .     A
C422   O442    1.282   .     A
C423   O445    1.295   .     A
C423   O444    1.294   .     A
C423   C425    1.455   .     S
C424   C1125   1.432   1_554 S
C424   C1187   1.486   1_554 S
C426   C427    1.409   .     A
C426   C470    1.488   .     S
C427   C1148   1.416   .     S
C427   C1197   1.489   .     S
C428   C473    1.483   .     S
C428   C1147   1.416   1_554 S
C428   C1122   1.427   1_554 S
N436   Zn446   2.016   .     S
N437   Zn447   2.016   .     S
O438   Zn446   1.992   .     S
O439   Zn447   1.985   .     S
O440   Zn446   1.953   .     S
O441   Zn447   1.910   .     S
O442   Zn446   1.985   .     S
O443   Zn447   1.992   .     S
O444   Zn446   1.910   .     S
O445   Zn447   1.953   .     S
C448   O450    1.221   .     D
C448   H449    1.083   .     S
C451   O453    1.397   .     S
C451   O452    1.223   .     D
O453   H454    1.014   .     S
C455   O456    1.221   .     D
C455   O457    1.397   .     S
O457   H458    1.013   .     S
C459   O460    1.221   .     D
C459   O461    1.398   .     S
O461   H462    1.014   .     S
C463   O465    1.399   .     S
C463   O464    1.223   .     D
O465   H466    1.014   .     S
C467   H468    1.082   .     S
C467   C1144   1.486   .     S
C467   O1189   1.222   .     S
O469   C1187   1.222   1_554 S
C470   H471    1.085   .     S
C470   O472    1.221   .     D
C473   O474    1.221   .     D
C473   O475    1.397   .     S
O475   H476    1.013   .     S
C477   O479    1.398   .     S
C477   C1147   1.489   1_554 S
O478   C317    1.222   1_655 S
H480   O319    1.014   1_655 S
C481   O518    1.282   .     A
C481   C497    1.411   .     S
C481   O519    1.283   .     A
C482   C483    1.397   .     A
C482   C1204   1.421   .     S
C482   C1228   1.427   .     S
C483   C487    1.411   .     A
C483   C490    1.409   .     A
C484   C488    1.392   .     A
C484   C1202   1.421   1_554 S
C484   C1205   1.429   1_554 S
C485   C486    1.418   .     A
C485   C1204   1.429   .     S
C485   C1224   1.432   .     S
C486   C543    1.485   .     S
C486   C487    1.399   .     A
C487   H514    1.082   .     S
C488   C505    1.381   .     A
C488   H513    1.080   .     S
C489   C505    1.393   .     A
C489   H509    1.084   .     S
C489   C504    1.404   .     A
C490   C506    1.421   .     A
C490   C492    1.465   .     S
C491   C497    1.389   .     A
C491   H515    1.084   .     S
C491   C13     1.378   1_565 S
C492   O520    1.291   .     A
C492   O521    1.298   .     A
C493   C494    1.408   .     A
C493   C528    1.492   .     S
C494   C502    1.413   .     S
C494   C495    1.411   .     A
C495   C531    1.489   .     S
C496   C497    1.404   .     A
C496   C535    1.483   .     S
C496   C15     1.391   1_565 S
C498   N517    1.367   .     A
C498   H510    1.081   .     S
C498   C579    1.418   .     S
C499   H511    1.081   .     S
C499   N516    1.366   .     A
C499   C658    1.418   1_455 S
C500   C539    1.469   .     S
C500   N516    1.381   .     A
C500   C661    1.416   1_455 S
C501   H512    1.082   .     S
C501   N517    1.358   .     A
C501   C580    1.416   .     S
C502   O523    1.282   .     A
C502   O522    1.282   .     A
C503   O525    1.295   .     A
C503   O524    1.294   .     A
C503   C505    1.455   .     S
C504   C1205   1.432   1_554 S
C504   C1267   1.486   1_554 S
C506   C507    1.409   .     A
C506   C550    1.488   .     S
C507   C1228   1.416   .     S
C507   C1277   1.489   .     S
C508   C553    1.483   .     S
C508   C1227   1.416   1_554 S
C508   C1202   1.427   1_554 S
N516   Zn526   2.016   .     S
N517   Zn527   2.016   .     S
O518   Zn526   1.992   .     S
O519   Zn527   1.985   .     S
O520   Zn526   1.953   .     S
O521   Zn527   1.910   .     S
O522   Zn526   1.985   .     S
O523   Zn527   1.992   .     S
O524   Zn526   1.910   .     S
O525   Zn527   1.953   .     S
C528   O530    1.221   .     D
C528   H529    1.083   .     S
C531   O533    1.397   .     S
C531   O532    1.223   .     D
O533   H534    1.014   .     S
C535   O536    1.221   .     D
C535   O537    1.397   .     S
O537   H538    1.013   .     S
C539   O540    1.221   .     D
C539   O541    1.398   .     S
O541   H542    1.014   .     S
C543   O545    1.399   .     S
C543   O544    1.223   .     D
O545   H546    1.014   .     S
C547   H548    1.082   .     S
C547   C1224   1.486   .     S
C547   O1269   1.222   .     S
O549   C1267   1.222   1_554 S
C550   H551    1.085   .     S
C550   O552    1.221   .     D
C553   O554    1.221   .     D
C553   O555    1.397   .     S
O555   H556    1.013   .     S
C557   O559    1.398   .     S
C557   C1227   1.489   1_554 S
C557   O718    1.222   1_455 S
O558   C637    1.222   .     S
O559   H720    1.014   1_455 S
H560   O639    1.014   .     S
C561   O598    1.282   .     A
C561   C577    1.411   .     S
C561   O599    1.283   .     A
C562   C563    1.397   .     A
C562   C1284   1.421   .     S
C562   C1308   1.427   .     S
C563   C567    1.411   .     A
C563   C570    1.409   .     A
C564   C568    1.392   .     A
C564   C1282   1.421   1_554 S
C564   C1285   1.429   1_554 S
C565   C566    1.418   .     A
C565   C1284   1.429   .     S
C565   C1304   1.432   .     S
C566   C623    1.485   .     S
C566   C567    1.399   .     A
C567   H594    1.082   .     S
C568   C585    1.381   .     A
C568   H593    1.080   .     S
C569   C585    1.393   .     A
C569   H589    1.084   .     S
C569   C584    1.404   .     A
C570   C586    1.421   .     A
C570   C572    1.465   .     S
C571   C577    1.389   .     A
C571   H595    1.084   .     S
C571   C93     1.378   1_565 S
C572   O600    1.291   .     A
C572   O601    1.298   .     A
C573   C574    1.408   .     A
C573   C608    1.492   .     S
C574   C582    1.413   .     S
C574   C575    1.411   .     A
C575   C611    1.489   .     S
C576   C577    1.404   .     A
C576   C615    1.483   .     S
C576   C95     1.391   1_565 S
C578   N597    1.367   .     A
C578   H590    1.081   .     S
C578   C659    1.418   .     S
C579   H591    1.081   .     S
C579   N596    1.366   .     A
C580   C619    1.469   .     S
C580   N596    1.381   .     A
C581   H592    1.082   .     S
C581   N597    1.358   .     A
C581   C660    1.416   .     S
C582   O603    1.282   .     A
C582   O602    1.282   .     A
C583   O605    1.295   .     A
C583   O604    1.294   .     A
C583   C585    1.455   .     S
C584   C1285   1.432   1_554 S
C584   C1347   1.486   1_554 S
C586   C587    1.409   .     A
C586   C630    1.488   .     S
C587   C1308   1.416   .     S
C587   C1357   1.489   .     S
C588   C633    1.483   .     S
C588   C1307   1.416   1_554 S
C588   C1282   1.427   1_554 S
N596   Zn606   2.016   .     S
N597   Zn607   2.016   .     S
O598   Zn606   1.992   .     S
O599   Zn607   1.985   .     S
O600   Zn606   1.953   .     S
O601   Zn607   1.910   .     S
O602   Zn606   1.985   .     S
O603   Zn607   1.992   .     S
O604   Zn606   1.910   .     S
O605   Zn607   1.953   .     S
C608   O610    1.221   .     D
C608   H609    1.083   .     S
C611   O613    1.397   .     S
C611   O612    1.223   .     D
O613   H614    1.014   .     S
C615   O616    1.221   .     D
C615   O617    1.397   .     S
O617   H618    1.013   .     S
C619   O620    1.221   .     D
C619   O621    1.398   .     S
O621   H622    1.014   .     S
C623   O625    1.399   .     S
C623   O624    1.223   .     D
O625   H626    1.014   .     S
C627   H628    1.082   .     S
C627   C1304   1.486   .     S
C627   O1349   1.222   .     S
O629   C1347   1.222   1_554 S
C630   H631    1.085   .     S
C630   O632    1.221   .     D
C633   O634    1.221   .     D
C633   O635    1.397   .     S
O635   H636    1.013   .     S
C637   O639    1.398   .     S
C637   C1307   1.489   1_554 S
O638   C717    1.222   .     S
H640   O719    1.014   .     S
C641   O678    1.282   .     A
C641   C657    1.411   .     S
C641   O679    1.283   .     A
C642   C643    1.397   .     A
C642   C1364   1.421   .     S
C642   C1388   1.427   .     S
C643   C647    1.411   .     A
C643   C650    1.409   .     A
C644   C648    1.392   .     A
C644   C1362   1.421   1_554 S
C644   C1365   1.429   1_554 S
C645   C646    1.418   .     A
C645   C1364   1.429   .     S
C645   C1384   1.432   .     S
C646   C703    1.485   .     S
C646   C647    1.399   .     A
C647   H674    1.082   .     S
C648   C665    1.381   .     A
C648   H673    1.080   .     S
C649   C665    1.393   .     A
C649   H669    1.084   .     S
C649   C664    1.404   .     A
C650   C666    1.421   .     A
C650   C652    1.465   .     S
C651   C657    1.389   .     A
C651   H675    1.084   .     S
C651   C173    1.378   1_565 S
C652   O680    1.291   .     A
C652   O681    1.298   .     A
C653   C654    1.408   .     A
C653   C688    1.492   .     S
C654   C662    1.413   .     S
C654   C655    1.411   .     A
C655   C691    1.489   .     S
C656   C657    1.404   .     A
C656   C695    1.483   .     S
C656   C175    1.391   1_565 S
C658   N677    1.367   .     A
C658   H670    1.081   .     S
C658   C499    1.418   1_655 S
C659   H671    1.081   .     S
C659   N676    1.366   .     A
C660   C699    1.469   .     S
C660   N676    1.381   .     A
C661   H672    1.082   .     S
C661   N677    1.358   .     A
C661   C500    1.416   1_655 S
C662   O683    1.282   .     A
C662   O682    1.282   .     A
C663   O685    1.295   .     A
C663   O684    1.294   .     A
C663   C665    1.455   .     S
C664   C1365   1.432   1_554 S
C664   C1427   1.486   1_554 S
C666   C667    1.409   .     A
C666   C710    1.488   .     S
C667   C1388   1.416   .     S
C667   C1437   1.489   .     S
C668   C713    1.483   .     S
C668   C1387   1.416   1_554 S
C668   C1362   1.427   1_554 S
N676   Zn686   2.016   .     S
N677   Zn687   2.016   .     S
O678   Zn686   1.992   .     S
O679   Zn687   1.985   .     S
O680   Zn686   1.953   .     S
O681   Zn687   1.910   .     S
O682   Zn686   1.985   .     S
O683   Zn687   1.992   .     S
O684   Zn686   1.910   .     S
O685   Zn687   1.953   .     S
C688   O690    1.221   .     D
C688   H689    1.083   .     S
C691   O693    1.397   .     S
C691   O692    1.223   .     D
O693   H694    1.014   .     S
C695   O696    1.221   .     D
C695   O697    1.397   .     S
O697   H698    1.013   .     S
C699   O700    1.221   .     D
C699   O701    1.398   .     S
O701   H702    1.014   .     S
C703   O705    1.399   .     S
C703   O704    1.223   .     D
O705   H706    1.014   .     S
C707   H708    1.082   .     S
C707   C1384   1.486   .     S
C707   O1429   1.222   .     S
O709   C1427   1.222   1_554 S
C710   H711    1.085   .     S
C710   O712    1.221   .     D
C713   O714    1.221   .     D
C713   O715    1.397   .     S
O715   H716    1.013   .     S
C717   O719    1.398   .     S
C717   C1387   1.489   1_554 S
O718   C557    1.222   1_655 S
H720   O559    1.014   1_655 S
C721   O758    1.282   .     A
C721   C737    1.411   .     S
C721   O759    1.283   .     A
C722   C723    1.397   .     A
C722   C4      1.421   1_556 S
C722   C28     1.427   1_556 S
C723   C727    1.411   .     A
C723   C730    1.409   .     A
C724   C728    1.392   .     A
C725   C726    1.418   .     A
C725   C4      1.429   1_556 S
C725   C24     1.432   1_556 S
C726   C783    1.485   .     S
C726   C727    1.399   .     A
C727   H754    1.082   .     S
C728   C745    1.381   .     A
C728   H753    1.080   .     S
C729   C745    1.393   .     A
C729   H749    1.084   .     S
C729   C744    1.404   .     A
C730   C746    1.421   .     A
C730   C732    1.465   .     S
C731   C737    1.389   .     A
C731   H755    1.084   .     S
C731   C973    1.378   .     S
C732   O760    1.291   .     A
C732   O761    1.298   .     A
C733   C734    1.408   .     A
C733   C768    1.492   .     S
C733   C1211   1.378   1_545 S
C734   C742    1.413   .     S
C734   C735    1.411   .     A
C735   C771    1.489   .     S
C735   C1216   1.391   1_545 S
C736   C737    1.404   .     A
C736   C775    1.483   .     S
C736   C975    1.391   .     S
C738   N757    1.367   .     A
C738   H750    1.081   .     S
C738   C819    1.418   .     S
C739   H751    1.081   .     S
C739   N756    1.366   .     A
C739   C898    1.418   1_455 S
C740   C779    1.469   .     S
C740   N756    1.381   .     A
C740   C901    1.416   1_455 S
C741   H752    1.082   .     S
C741   N757    1.358   .     A
C741   C820    1.416   .     S
C742   O763    1.282   .     A
C742   O762    1.282   .     A
C743   O765    1.295   .     A
C743   O764    1.294   .     A
C743   C745    1.455   .     S
C746   C747    1.409   .     A
C746   C790    1.488   .     S
C747   C28     1.416   1_556 S
C747   C77     1.489   1_556 S
C748   C793    1.483   .     S
N756   Zn766   2.016   .     S
N757   Zn767   2.016   .     S
O758   Zn766   1.992   .     S
O759   Zn767   1.985   .     S
O760   Zn766   1.953   .     S
O761   Zn767   1.910   .     S
O762   Zn766   1.985   .     S
O763   Zn767   1.992   .     S
O764   Zn766   1.910   .     S
O765   Zn767   1.953   .     S
C768   O770    1.221   .     D
C768   H769    1.083   .     S
C771   O773    1.397   .     S
C771   O772    1.223   .     D
O773   H774    1.014   .     S
C775   O776    1.221   .     D
C775   O777    1.397   .     S
O777   H778    1.013   .     S
C779   O780    1.221   .     D
C779   O781    1.398   .     S
O781   H782    1.014   .     S
C783   O785    1.399   .     S
C783   O784    1.223   .     D
O785   H786    1.014   .     S
C787   H788    1.082   .     S
C787   C24     1.486   1_556 S
C787   O69     1.222   1_556 S
C790   H791    1.085   .     S
C790   O792    1.221   .     D
C793   O794    1.221   .     D
C793   O795    1.397   .     S
O795   H796    1.013   .     S
C797   O799    1.398   .     S
C797   O958    1.222   1_455 S
O798   C877    1.222   .     S
O799   H960    1.014   1_455 S
H800   O879    1.014   .     S
C801   O838    1.282   .     A
C801   C817    1.411   .     S
C801   O839    1.283   .     A
C802   C803    1.397   .     A
C802   C84     1.421   1_556 S
C802   C108    1.427   1_556 S
C803   C807    1.411   .     A
C803   C810    1.409   .     A
C804   C808    1.392   .     A
C805   C806    1.418   .     A
C805   C84     1.429   1_556 S
C805   C104    1.432   1_556 S
C806   C863    1.485   .     S
C806   C807    1.399   .     A
C807   H834    1.082   .     S
C808   C825    1.381   .     A
C808   H833    1.080   .     S
C809   C825    1.393   .     A
C809   H829    1.084   .     S
C809   C824    1.404   .     A
C810   C826    1.421   .     A
C810   C812    1.465   .     S
C811   C817    1.389   .     A
C811   H835    1.084   .     S
C811   C1053   1.378   .     S
C812   O840    1.291   .     A
C812   O841    1.298   .     A
C813   C814    1.408   .     A
C813   C848    1.492   .     S
C813   C1291   1.378   1_545 S
C814   C822    1.413   .     S
C814   C815    1.411   .     A
C815   C851    1.489   .     S
C815   C1296   1.391   1_545 S
C816   C817    1.404   .     A
C816   C855    1.483   .     S
C816   C1055   1.391   .     S
C818   N837    1.367   .     A
C818   H830    1.081   .     S
C818   C899    1.418   .     S
C819   H831    1.081   .     S
C819   N836    1.366   .     A
C820   C859    1.469   .     S
C820   N836    1.381   .     A
C821   H832    1.082   .     S
C821   N837    1.358   .     A
C821   C900    1.416   .     S
C822   O843    1.282   .     A
C822   O842    1.282   .     A
C823   O845    1.295   .     A
C823   O844    1.294   .     A
C823   C825    1.455   .     S
C826   C827    1.409   .     A
C826   C870    1.488   .     S
C827   C108    1.416   1_556 S
C827   C157    1.489   1_556 S
C828   C873    1.483   .     S
N836   Zn846   2.016   .     S
N837   Zn847   2.016   .     S
O838   Zn846   1.992   .     S
O839   Zn847   1.985   .     S
O840   Zn846   1.953   .     S
O841   Zn847   1.910   .     S
O842   Zn846   1.985   .     S
O843   Zn847   1.992   .     S
O844   Zn846   1.910   .     S
O845   Zn847   1.953   .     S
C848   O850    1.221   .     D
C848   H849    1.083   .     S
C851   O853    1.397   .     S
C851   O852    1.223   .     D
O853   H854    1.014   .     S
C855   O856    1.221   .     D
C855   O857    1.397   .     S
O857   H858    1.013   .     S
C859   O860    1.221   .     D
C859   O861    1.398   .     S
O861   H862    1.014   .     S
C863   O865    1.399   .     S
C863   O864    1.223   .     D
O865   H866    1.014   .     S
C867   H868    1.082   .     S
C867   C104    1.486   1_556 S
C867   O149    1.222   1_556 S
C870   H871    1.085   .     S
C870   O872    1.221   .     D
C873   O874    1.221   .     D
C873   O875    1.397   .     S
O875   H876    1.013   .     S
C877   O879    1.398   .     S
O878   C957    1.222   .     S
H880   O959    1.014   .     S
C881   O918    1.282   .     A
C881   C897    1.411   .     S
C881   O919    1.283   .     A
C882   C883    1.397   .     A
C882   C164    1.421   1_556 S
C882   C188    1.427   1_556 S
C883   C887    1.411   .     A
C883   C890    1.409   .     A
C884   C888    1.392   .     A
C885   C886    1.418   .     A
C885   C164    1.429   1_556 S
C885   C184    1.432   1_556 S
C886   C943    1.485   .     S
C886   C887    1.399   .     A
C887   H914    1.082   .     S
C888   C905    1.381   .     A
C888   H913    1.080   .     S
C889   C905    1.393   .     A
C889   H909    1.084   .     S
C889   C904    1.404   .     A
C890   C906    1.421   .     A
C890   C892    1.465   .     S
C891   C897    1.389   .     A
C891   H915    1.084   .     S
C891   C1133   1.378   .     S
C892   O920    1.291   .     A
C892   O921    1.298   .     A
C893   C894    1.408   .     A
C893   C928    1.492   .     S
C893   C1371   1.378   1_545 S
C894   C902    1.413   .     S
C894   C895    1.411   .     A
C895   C931    1.489   .     S
C895   C1376   1.391   1_545 S
C896   C897    1.404   .     A
C896   C935    1.483   .     S
C896   C1135   1.391   .     S
C898   N917    1.367   .     A
C898   H910    1.081   .     S
C898   C739    1.418   1_655 S
C899   H911    1.081   .     S
C899   N916    1.366   .     A
C900   C939    1.469   .     S
C900   N916    1.381   .     A
C901   H912    1.082   .     S
C901   N917    1.358   .     A
C901   C740    1.416   1_655 S
C902   O923    1.282   .     A
C902   O922    1.282   .     A
C903   O925    1.295   .     A
C903   O924    1.294   .     A
C903   C905    1.455   .     S
C906   C907    1.409   .     A
C906   C950    1.488   .     S
C907   C188    1.416   1_556 S
C907   C237    1.489   1_556 S
C908   C953    1.483   .     S
N916   Zn926   2.016   .     S
N917   Zn927   2.016   .     S
O918   Zn926   1.992   .     S
O919   Zn927   1.985   .     S
O920   Zn926   1.953   .     S
O921   Zn927   1.910   .     S
O922   Zn926   1.985   .     S
O923   Zn927   1.992   .     S
O924   Zn926   1.910   .     S
O925   Zn927   1.953   .     S
C928   O930    1.221   .     D
C928   H929    1.083   .     S
C931   O933    1.397   .     S
C931   O932    1.223   .     D
O933   H934    1.014   .     S
C935   O936    1.221   .     D
C935   O937    1.397   .     S
O937   H938    1.013   .     S
C939   O940    1.221   .     D
C939   O941    1.398   .     S
O941   H942    1.014   .     S
C943   O945    1.399   .     S
C943   O944    1.223   .     D
O945   H946    1.014   .     S
C947   H948    1.082   .     S
C947   C184    1.486   1_556 S
C947   O229    1.222   1_556 S
C950   H951    1.085   .     S
C950   O952    1.221   .     D
C953   O954    1.221   .     D
C953   O955    1.397   .     S
O955   H956    1.013   .     S
C957   O959    1.398   .     S
O958   C797    1.222   1_655 S
H960   O799    1.014   1_655 S
C961   O998    1.282   .     A
C961   C977    1.411   .     S
C961   O999    1.283   .     A
C962   C963    1.397   .     A
C962   C244    1.421   1_556 S
C962   C268    1.427   1_556 S
C963   C967    1.411   .     A
C963   C970    1.409   .     A
C964   C968    1.392   .     A
C965   C966    1.418   .     A
C965   C244    1.429   1_556 S
C965   C264    1.432   1_556 S
C966   C1023   1.485   .     S
C966   C967    1.399   .     A
C967   H994    1.082   .     S
C968   C985    1.381   .     A
C968   H993    1.080   .     S
C969   C985    1.393   .     A
C969   H989    1.084   .     S
C969   C984    1.404   .     A
C970   C986    1.421   .     A
C970   C972    1.465   .     S
C971   C977    1.389   .     A
C971   H995    1.084   .     S
C971   C1213   1.378   .     S
C972   O1000   1.291   .     A
C972   O1001   1.298   .     A
C973   C974    1.408   .     A
C973   C1008   1.492   .     S
C974   C982    1.413   .     S
C974   C975    1.411   .     A
C975   C1011   1.489   .     S
C976   C977    1.404   .     A
C976   C1015   1.483   .     S
C976   C1215   1.391   .     S
C978   N997    1.367   .     A
C978   H990    1.081   .     S
C978   C1059   1.418   .     S
C979   H991    1.081   .     S
C979   N996    1.366   .     A
C979   C1138   1.418   1_455 S
C980   C1019   1.469   .     S
C980   N996    1.381   .     A
C980   C1141   1.416   1_455 S
C981   H992    1.082   .     S
C981   N997    1.358   .     A
C981   C1060   1.416   .     S
C982   O1003   1.282   .     A
C982   O1002   1.282   .     A
C983   O1005   1.295   .     A
C983   O1004   1.294   .     A
C983   C985    1.455   .     S
C986   C987    1.409   .     A
C986   C1030   1.488   .     S
C987   C268    1.416   1_556 S
C987   C317    1.489   1_556 S
C988   C1033   1.483   .     S
N996   Zn1006  2.016   .     S
N997   Zn1007  2.016   .     S
O998   Zn1006  1.992   .     S
O999   Zn1007  1.985   .     S
O1000  Zn1006  1.953   .     S
O1001  Zn1007  1.910   .     S
O1002  Zn1006  1.985   .     S
O1003  Zn1007  1.992   .     S
O1004  Zn1006  1.910   .     S
O1005  Zn1007  1.953   .     S
C1008  O1010   1.221   .     D
C1008  H1009   1.083   .     S
C1011  O1013   1.397   .     S
C1011  O1012   1.223   .     D
O1013  H1014   1.014   .     S
C1015  O1016   1.221   .     D
C1015  O1017   1.397   .     S
O1017  H1018   1.013   .     S
C1019  O1020   1.221   .     D
C1019  O1021   1.398   .     S
O1021  H1022   1.014   .     S
C1023  O1025   1.399   .     S
C1023  O1024   1.223   .     D
O1025  H1026   1.014   .     S
C1027  H1028   1.082   .     S
C1027  C264    1.486   1_556 S
C1027  O309    1.222   1_556 S
C1030  H1031   1.085   .     S
C1030  O1032   1.221   .     D
C1033  O1034   1.221   .     D
C1033  O1035   1.397   .     S
O1035  H1036   1.013   .     S
C1037  O1039   1.398   .     S
C1037  O1198   1.222   1_455 S
O1038  C1117   1.222   .     S
O1039  H1200   1.014   1_455 S
H1040  O1119   1.014   .     S
C1041  O1078   1.282   .     A
C1041  C1057   1.411   .     S
C1041  O1079   1.283   .     A
C1042  C1043   1.397   .     A
C1042  C324    1.421   1_556 S
C1042  C348    1.427   1_556 S
C1043  C1047   1.411   .     A
C1043  C1050   1.409   .     A
C1044  C1048   1.392   .     A
C1045  C1046   1.418   .     A
C1045  C324    1.429   1_556 S
C1045  C344    1.432   1_556 S
C1046  C1103   1.485   .     S
C1046  C1047   1.399   .     A
C1047  H1074   1.082   .     S
C1048  C1065   1.381   .     A
C1048  H1073   1.080   .     S
C1049  C1065   1.393   .     A
C1049  H1069   1.084   .     S
C1049  C1064   1.404   .     A
C1050  C1066   1.421   .     A
C1050  C1052   1.465   .     S
C1051  C1057   1.389   .     A
C1051  H1075   1.084   .     S
C1051  C1293   1.378   .     S
C1052  O1080   1.291   .     A
C1052  O1081   1.298   .     A
C1053  C1054   1.408   .     A
C1053  C1088   1.492   .     S
C1054  C1062   1.413   .     S
C1054  C1055   1.411   .     A
C1055  C1091   1.489   .     S
C1056  C1057   1.404   .     A
C1056  C1095   1.483   .     S
C1056  C1295   1.391   .     S
C1058  N1077   1.367   .     A
C1058  H1070   1.081   .     S
C1058  C1139   1.418   .     S
C1059  H1071   1.081   .     S
C1059  N1076   1.366   .     A
C1060  C1099   1.469   .     S
C1060  N1076   1.381   .     A
C1061  H1072   1.082   .     S
C1061  N1077   1.358   .     A
C1061  C1140   1.416   .     S
C1062  O1083   1.282   .     A
C1062  O1082   1.282   .     A
C1063  O1085   1.295   .     A
C1063  O1084   1.294   .     A
C1063  C1065   1.455   .     S
C1066  C1067   1.409   .     A
C1066  C1110   1.488   .     S
C1067  C348    1.416   1_556 S
C1067  C397    1.489   1_556 S
C1068  C1113   1.483   .     S
N1076  Zn1086  2.016   .     S
N1077  Zn1087  2.016   .     S
O1078  Zn1086  1.992   .     S
O1079  Zn1087  1.985   .     S
O1080  Zn1086  1.953   .     S
O1081  Zn1087  1.910   .     S
O1082  Zn1086  1.985   .     S
O1083  Zn1087  1.992   .     S
O1084  Zn1086  1.910   .     S
O1085  Zn1087  1.953   .     S
C1088  O1090   1.221   .     D
C1088  H1089   1.083   .     S
C1091  O1093   1.397   .     S
C1091  O1092   1.223   .     D
O1093  H1094   1.014   .     S
C1095  O1096   1.221   .     D
C1095  O1097   1.397   .     S
O1097  H1098   1.013   .     S
C1099  O1100   1.221   .     D
C1099  O1101   1.398   .     S
O1101  H1102   1.014   .     S
C1103  O1105   1.399   .     S
C1103  O1104   1.223   .     D
O1105  H1106   1.014   .     S
C1107  H1108   1.082   .     S
C1107  C344    1.486   1_556 S
C1107  O389    1.222   1_556 S
C1110  H1111   1.085   .     S
C1110  O1112   1.221   .     D
C1113  O1114   1.221   .     D
C1113  O1115   1.397   .     S
O1115  H1116   1.013   .     S
C1117  O1119   1.398   .     S
O1118  C1197   1.222   .     S
H1120  O1199   1.014   .     S
C1121  O1158   1.282   .     A
C1121  C1137   1.411   .     S
C1121  O1159   1.283   .     A
C1122  C1123   1.397   .     A
C1122  C404    1.421   1_556 S
C1122  C428    1.427   1_556 S
C1123  C1127   1.411   .     A
C1123  C1130   1.409   .     A
C1124  C1128   1.392   .     A
C1125  C1126   1.418   .     A
C1125  C404    1.429   1_556 S
C1125  C424    1.432   1_556 S
C1126  C1183   1.485   .     S
C1126  C1127   1.399   .     A
C1127  H1154   1.082   .     S
C1128  C1145   1.381   .     A
C1128  H1153   1.080   .     S
C1129  C1145   1.393   .     A
C1129  H1149   1.084   .     S
C1129  C1144   1.404   .     A
C1130  C1146   1.421   .     A
C1130  C1132   1.465   .     S
C1131  C1137   1.389   .     A
C1131  H1155   1.084   .     S
C1131  C1373   1.378   .     S
C1132  O1160   1.291   .     A
C1132  O1161   1.298   .     A
C1133  C1134   1.408   .     A
C1133  C1168   1.492   .     S
C1134  C1142   1.413   .     S
C1134  C1135   1.411   .     A
C1135  C1171   1.489   .     S
C1136  C1137   1.404   .     A
C1136  C1175   1.483   .     S
C1136  C1375   1.391   .     S
C1138  N1157   1.367   .     A
C1138  H1150   1.081   .     S
C1138  C979    1.418   1_655 S
C1139  H1151   1.081   .     S
C1139  N1156   1.366   .     A
C1140  C1179   1.469   .     S
C1140  N1156   1.381   .     A
C1141  H1152   1.082   .     S
C1141  N1157   1.358   .     A
C1141  C980    1.416   1_655 S
C1142  O1163   1.282   .     A
C1142  O1162   1.282   .     A
C1143  O1165   1.295   .     A
C1143  O1164   1.294   .     A
C1143  C1145   1.455   .     S
C1146  C1147   1.409   .     A
C1146  C1190   1.488   .     S
C1147  C428    1.416   1_556 S
C1147  C477    1.489   1_556 S
C1148  C1193   1.483   .     S
N1156  Zn1166  2.016   .     S
N1157  Zn1167  2.016   .     S
O1158  Zn1166  1.992   .     S
O1159  Zn1167  1.985   .     S
O1160  Zn1166  1.953   .     S
O1161  Zn1167  1.910   .     S
O1162  Zn1166  1.985   .     S
O1163  Zn1167  1.992   .     S
O1164  Zn1166  1.910   .     S
O1165  Zn1167  1.953   .     S
C1168  O1170   1.221   .     D
C1168  H1169   1.083   .     S
C1171  O1173   1.397   .     S
C1171  O1172   1.223   .     D
O1173  H1174   1.014   .     S
C1175  O1176   1.221   .     D
C1175  O1177   1.397   .     S
O1177  H1178   1.013   .     S
C1179  O1180   1.221   .     D
C1179  O1181   1.398   .     S
O1181  H1182   1.014   .     S
C1183  O1185   1.399   .     S
C1183  O1184   1.223   .     D
O1185  H1186   1.014   .     S
C1187  H1188   1.082   .     S
C1187  C424    1.486   1_556 S
C1187  O469    1.222   1_556 S
C1190  H1191   1.085   .     S
C1190  O1192   1.221   .     D
C1193  O1194   1.221   .     D
C1193  O1195   1.397   .     S
O1195  H1196   1.013   .     S
C1197  O1199   1.398   .     S
O1198  C1037   1.222   1_655 S
H1200  O1039   1.014   1_655 S
C1201  O1238   1.282   .     A
C1201  C1217   1.411   .     S
C1201  O1239   1.283   .     A
C1202  C1203   1.397   .     A
C1202  C484    1.421   1_556 S
C1202  C508    1.427   1_556 S
C1203  C1207   1.411   .     A
C1203  C1210   1.409   .     A
C1204  C1208   1.392   .     A
C1205  C1206   1.418   .     A
C1205  C484    1.429   1_556 S
C1205  C504    1.432   1_556 S
C1206  C1263   1.485   .     S
C1206  C1207   1.399   .     A
C1207  H1234   1.082   .     S
C1208  C1225   1.381   .     A
C1208  H1233   1.080   .     S
C1209  C1225   1.393   .     A
C1209  H1229   1.084   .     S
C1209  C1224   1.404   .     A
C1210  C1226   1.421   .     A
C1210  C1212   1.465   .     S
C1211  C1217   1.389   .     A
C1211  H1235   1.084   .     S
C1211  C733    1.378   1_565 S
C1212  O1240   1.291   .     A
C1212  O1241   1.298   .     A
C1213  C1214   1.408   .     A
C1213  C1248   1.492   .     S
C1214  C1222   1.413   .     S
C1214  C1215   1.411   .     A
C1215  C1251   1.489   .     S
C1216  C1217   1.404   .     A
C1216  C1255   1.483   .     S
C1216  C735    1.391   1_565 S
C1218  N1237   1.367   .     A
C1218  H1230   1.081   .     S
C1218  C1299   1.418   .     S
C1219  H1231   1.081   .     S
C1219  N1236   1.366   .     A
C1219  C1378   1.418   1_455 S
C1220  C1259   1.469   .     S
C1220  N1236   1.381   .     A
C1220  C1381   1.416   1_455 S
C1221  H1232   1.082   .     S
C1221  N1237   1.358   .     A
C1221  C1300   1.416   .     S
C1222  O1243   1.282   .     A
C1222  O1242   1.282   .     A
C1223  O1245   1.295   .     A
C1223  O1244   1.294   .     A
C1223  C1225   1.455   .     S
C1226  C1227   1.409   .     A
C1226  C1270   1.488   .     S
C1227  C508    1.416   1_556 S
C1227  C557    1.489   1_556 S
C1228  C1273   1.483   .     S
N1236  Zn1246  2.016   .     S
N1237  Zn1247  2.016   .     S
O1238  Zn1246  1.992   .     S
O1239  Zn1247  1.985   .     S
O1240  Zn1246  1.953   .     S
O1241  Zn1247  1.910   .     S
O1242  Zn1246  1.985   .     S
O1243  Zn1247  1.992   .     S
O1244  Zn1246  1.910   .     S
O1245  Zn1247  1.953   .     S
C1248  O1250   1.221   .     D
C1248  H1249   1.083   .     S
C1251  O1253   1.397   .     S
C1251  O1252   1.223   .     D
O1253  H1254   1.014   .     S
C1255  O1256   1.221   .     D
C1255  O1257   1.397   .     S
O1257  H1258   1.013   .     S
C1259  O1260   1.221   .     D
C1259  O1261   1.398   .     S
O1261  H1262   1.014   .     S
C1263  O1265   1.399   .     S
C1263  O1264   1.223   .     D
O1265  H1266   1.014   .     S
C1267  H1268   1.082   .     S
C1267  C504    1.486   1_556 S
C1267  O549    1.222   1_556 S
C1270  H1271   1.085   .     S
C1270  O1272   1.221   .     D
C1273  O1274   1.221   .     D
C1273  O1275   1.397   .     S
O1275  H1276   1.013   .     S
C1277  O1279   1.398   .     S
C1277  O1438   1.222   1_455 S
O1278  C1357   1.222   .     S
O1279  H1440   1.014   1_455 S
H1280  O1359   1.014   .     S
C1281  O1318   1.282   .     A
C1281  C1297   1.411   .     S
C1281  O1319   1.283   .     A
C1282  C1283   1.397   .     A
C1282  C564    1.421   1_556 S
C1282  C588    1.427   1_556 S
C1283  C1287   1.411   .     A
C1283  C1290   1.409   .     A
C1284  C1288   1.392   .     A
C1285  C1286   1.418   .     A
C1285  C564    1.429   1_556 S
C1285  C584    1.432   1_556 S
C1286  C1343   1.485   .     S
C1286  C1287   1.399   .     A
C1287  H1314   1.082   .     S
C1288  C1305   1.381   .     A
C1288  H1313   1.080   .     S
C1289  C1305   1.393   .     A
C1289  H1309   1.084   .     S
C1289  C1304   1.404   .     A
C1290  C1306   1.421   .     A
C1290  C1292   1.465   .     S
C1291  C1297   1.389   .     A
C1291  H1315   1.084   .     S
C1291  C813    1.378   1_565 S
C1292  O1320   1.291   .     A
C1292  O1321   1.298   .     A
C1293  C1294   1.408   .     A
C1293  C1328   1.492   .     S
C1294  C1302   1.413   .     S
C1294  C1295   1.411   .     A
C1295  C1331   1.489   .     S
C1296  C1297   1.404   .     A
C1296  C1335   1.483   .     S
C1296  C815    1.391   1_565 S
C1298  N1317   1.367   .     A
C1298  H1310   1.081   .     S
C1298  C1379   1.418   .     S
C1299  H1311   1.081   .     S
C1299  N1316   1.366   .     A
C1300  C1339   1.469   .     S
C1300  N1316   1.381   .     A
C1301  H1312   1.082   .     S
C1301  N1317   1.358   .     A
C1301  C1380   1.416   .     S
C1302  O1323   1.282   .     A
C1302  O1322   1.282   .     A
C1303  O1325   1.295   .     A
C1303  O1324   1.294   .     A
C1303  C1305   1.455   .     S
C1306  C1307   1.409   .     A
C1306  C1350   1.488   .     S
C1307  C588    1.416   1_556 S
C1307  C637    1.489   1_556 S
C1308  C1353   1.483   .     S
N1316  Zn1326  2.016   .     S
N1317  Zn1327  2.016   .     S
O1318  Zn1326  1.992   .     S
O1319  Zn1327  1.985   .     S
O1320  Zn1326  1.953   .     S
O1321  Zn1327  1.910   .     S
O1322  Zn1326  1.985   .     S
O1323  Zn1327  1.992   .     S
O1324  Zn1326  1.910   .     S
O1325  Zn1327  1.953   .     S
C1328  O1330   1.221   .     D
C1328  H1329   1.083   .     S
C1331  O1333   1.397   .     S
C1331  O1332   1.223   .     D
O1333  H1334   1.014   .     S
C1335  O1336   1.221   .     D
C1335  O1337   1.397   .     S
O1337  H1338   1.013   .     S
C1339  O1340   1.221   .     D
C1339  O1341   1.398   .     S
O1341  H1342   1.014   .     S
C1343  O1345   1.399   .     S
C1343  O1344   1.223   .     D
O1345  H1346   1.014   .     S
C1347  H1348   1.082   .     S
C1347  C584    1.486   1_556 S
C1347  O629    1.222   1_556 S
C1350  H1351   1.085   .     S
C1350  O1352   1.221   .     D
C1353  O1354   1.221   .     D
C1353  O1355   1.397   .     S
O1355  H1356   1.013   .     S
C1357  O1359   1.398   .     S
O1358  C1437   1.222   .     S
H1360  O1439   1.014   .     S
C1361  O1398   1.282   .     A
C1361  C1377   1.411   .     S
C1361  O1399   1.283   .     A
C1362  C1363   1.397   .     A
C1362  C644    1.421   1_556 S
C1362  C668    1.427   1_556 S
C1363  C1367   1.411   .     A
C1363  C1370   1.409   .     A
C1364  C1368   1.392   .     A
C1365  C1366   1.418   .     A
C1365  C644    1.429   1_556 S
C1365  C664    1.432   1_556 S
C1366  C1423   1.485   .     S
C1366  C1367   1.399   .     A
C1367  H1394   1.082   .     S
C1368  C1385   1.381   .     A
C1368  H1393   1.080   .     S
C1369  C1385   1.393   .     A
C1369  H1389   1.084   .     S
C1369  C1384   1.404   .     A
C1370  C1386   1.421   .     A
C1370  C1372   1.465   .     S
C1371  C1377   1.389   .     A
C1371  H1395   1.084   .     S
C1371  C893    1.378   1_565 S
C1372  O1400   1.291   .     A
C1372  O1401   1.298   .     A
C1373  C1374   1.408   .     A
C1373  C1408   1.492   .     S
C1374  C1382   1.413   .     S
C1374  C1375   1.411   .     A
C1375  C1411   1.489   .     S
C1376  C1377   1.404   .     A
C1376  C1415   1.483   .     S
C1376  C895    1.391   1_565 S
C1378  N1397   1.367   .     A
C1378  H1390   1.081   .     S
C1378  C1219   1.418   1_655 S
C1379  H1391   1.081   .     S
C1379  N1396   1.366   .     A
C1380  C1419   1.469   .     S
C1380  N1396   1.381   .     A
C1381  H1392   1.082   .     S
C1381  N1397   1.358   .     A
C1381  C1220   1.416   1_655 S
C1382  O1403   1.282   .     A
C1382  O1402   1.282   .     A
C1383  O1405   1.295   .     A
C1383  O1404   1.294   .     A
C1383  C1385   1.455   .     S
C1386  C1387   1.409   .     A
C1386  C1430   1.488   .     S
C1387  C668    1.416   1_556 S
C1387  C717    1.489   1_556 S
C1388  C1433   1.483   .     S
N1396  Zn1406  2.016   .     S
N1397  Zn1407  2.016   .     S
O1398  Zn1406  1.992   .     S
O1399  Zn1407  1.985   .     S
O1400  Zn1406  1.953   .     S
O1401  Zn1407  1.910   .     S
O1402  Zn1406  1.985   .     S
O1403  Zn1407  1.992   .     S
O1404  Zn1406  1.910   .     S
O1405  Zn1407  1.953   .     S
C1408  O1410   1.221   .     D
C1408  H1409   1.083   .     S
C1411  O1413   1.397   .     S
C1411  O1412   1.223   .     D
O1413  H1414   1.014   .     S
C1415  O1416   1.221   .     D
C1415  O1417   1.397   .     S
O1417  H1418   1.013   .     S
C1419  O1420   1.221   .     D
C1419  O1421   1.398   .     S
O1421  H1422   1.014   .     S
C1423  O1425   1.399   .     S
C1423  O1424   1.223   .     D
O1425  H1426   1.014   .     S
C1427  H1428   1.082   .     S
C1427  C664    1.486   1_556 S
C1427  O709    1.222   1_556 S
C1430  H1431   1.085   .     S
C1430  O1432   1.221   .     D
C1433  O1434   1.221   .     D
C1433  O1435   1.397   .     S
O1435  H1436   1.013   .     S
C1437  O1439   1.398   .     S
O1438  C1277   1.222   1_655 S
H1440  O1279   1.014   1_655 S
