data_str_m3_o1_o18_pcu_sym.99
_audit_creation_date              2020-01-03
_audit_creation_method            'Materials Studio'
_symmetry_space_group_name_H-M    'P1'
_symmetry_Int_Tables_number       1
_symmetry_cell_setting            triclinic
loop_
_symmetry_equiv_pos_as_xyz
  x,y,z
_cell_length_a                    29.8396
_cell_length_b                    32.1245
_cell_length_c                    30.7048
_cell_angle_alpha                 92.6193
_cell_angle_beta                  68.3988
_cell_angle_gamma                 91.6513
loop_
_atom_site_label
_atom_site_type_symbol
_atom_site_fract_x
_atom_site_fract_y
_atom_site_fract_z
_atom_site_U_iso_or_equiv
_atom_site_adp_type
_atom_site_occupancy
O1     O     0.12846   0.22775   0.25000   0.00000  Uiso   1.00
O2     O     0.20488   0.10558   0.24999   0.00000  Uiso   1.00
O3     O     0.20490   0.22774   0.25000   0.00000  Uiso   1.00
O4     O     0.12843   0.10559   0.25000   0.00000  Uiso   1.00
C5     C     0.16969   0.24630   0.24413   0.00000  Uiso   1.00
C6     C     0.16441   0.08663   0.25403   0.00000  Uiso   1.00
O7     O     0.10661   0.16667   0.31612   0.00000  Uiso   1.00
O8     O     0.22672   0.16666   0.18387   0.00000  Uiso   1.00
O9     O     0.18305   0.16666   0.31612   0.00000  Uiso   1.00
O10    O     0.15028   0.16667   0.18388   0.00000  Uiso   1.00
C11    C     0.13641   0.16447   0.33831   0.00000  Uiso   1.00
C12    C     0.19721   0.16793   0.16170   0.00000  Uiso   1.00
Zn13   Zn    0.11562   0.16667   0.25000   0.00000  Uiso   1.00
Zn14   Zn    0.21771   0.16666   0.25000   0.00000  Uiso   1.00
C15    C     0.11940   0.15308   0.38837   0.00000  Uiso   1.00
C16    C     0.21789   0.17011   0.10999   0.00000  Uiso   1.00
C17    C     0.07668   0.10600   0.45160   0.00000  Uiso   1.00
C18    C     0.27915   0.19268   0.03665   0.00000  Uiso   1.00
C19    C     0.08089   0.12503   0.40948   0.00000  Uiso   1.00
C20    C     0.26201   0.19089   0.08582   0.00000  Uiso   1.00
C21    C     0.14973   0.16408   0.41229   0.00000  Uiso   1.00
C22    C     0.19326   0.14986   0.08427   0.00000  Uiso   1.00
C23    C     0.15184   0.13993   0.44833   0.00000  Uiso   1.00
C24    C     0.20941   0.15149   0.03543   0.00000  Uiso   1.00
C25    C     0.11528   0.10982   0.46814   0.00000  Uiso   1.00
C26    C     0.24965   0.17756   0.01219   0.00000  Uiso   1.00
C27    C     0.18926   0.14635   0.46583   0.00000  Uiso   1.00
C28    C     0.18243   0.13206   0.01028   0.00000  Uiso   1.00
C29    C     0.15172   0.09670   0.02565   0.00000  Uiso   1.00
C30    C     0.23311   0.16691   0.44070   0.00000  Uiso   1.00
C31    C     0.12004   0.08420   0.00256   0.00000  Uiso   1.00
C32    C     0.25874   0.18759   0.46546   0.00000  Uiso   1.00
H33    H     0.15944   0.13499   0.10297   0.00000  Uiso   1.00
H34    H     0.17494   0.18947   0.39959   0.00000  Uiso   1.00
C35    C     0.21139   0.31423   0.24364   0.00000  Uiso   1.00
C36    C     0.12629   0.01823   0.24688   0.00000  Uiso   1.00
C37    C     0.20229   0.02186   0.25977   0.00000  Uiso   1.00
C38    C     0.13624   0.31076   0.22928   0.00000  Uiso   1.00
C39    C     0.16217   0.04158   0.25697   0.00000  Uiso   1.00
C40    C     0.17476   0.29067   0.23523   0.00000  Uiso   1.00
C41    C     0.31893   0.13946   0.22117   0.00000  Uiso   1.00
C42    C     0.01385   0.19376   0.27910   0.00000  Uiso   1.00
C43    C     0.03362   0.13968   0.22088   0.00000  Uiso   1.00
C44    C     0.29951   0.19415   0.27863   0.00000  Uiso   1.00
N45    N     0.04759   0.16668   0.25001   0.00000  Uiso   1.00
N46    N     0.28574   0.16666   0.24999   0.00000  Uiso   1.00
I47    I     0.09624   0.02023   0.00726   0.00000  Uiso   1.00
I48    I     0.28869   0.24675   0.43889   0.00000  Uiso   1.00
I49    I     0.30140   0.22448   0.12172   0.00000  Uiso   1.00
I50    I     0.02967   0.10988   0.37862   0.00000  Uiso   1.00
I51    I     0.00724   0.08251   0.49539   0.00000  Uiso   1.00
I52    I     0.02102   0.20740   0.00029   0.00000  Uiso   1.00
N53    N     0.15781   0.07035   0.05917   0.00000  Uiso   1.00
H54    H     0.12804   0.05343   0.07904   0.00000  Uiso   1.00
C55    C     0.20285   0.04812   0.04491   0.00000  Uiso   1.00
H56    H     0.21876   0.05318   0.07223   0.00000  Uiso   1.00
H57    H     0.22929   0.05879   0.01101   0.00000  Uiso   1.00
H58    H     0.19616   0.01421   0.04100   0.00000  Uiso   1.00
N59    N     0.25448   0.16322   0.39067   0.00000  Uiso   1.00
H60    H     0.28798   0.17710   0.37685   0.00000  Uiso   1.00
C61    C     0.25366   0.12213   0.36922   0.00000  Uiso   1.00
H62    H     0.28411   0.11907   0.33495   0.00000  Uiso   1.00
H63    H     0.22028   0.11720   0.36192   0.00000  Uiso   1.00
H64    H     0.25662   0.09742   0.39216   0.00000  Uiso   1.00
I65    I     0.28453   0.29492   0.22152   0.00000  Uiso   1.00
I66    I     0.05224   0.03612   0.27601   0.00000  Uiso   1.00
N67    N     0.22864   0.04126   0.28577   0.00000  Uiso   1.00
H68    H     0.26553   0.03846   0.27094   0.00000  Uiso   1.00
C69    C     0.20931   0.03117   0.33481   0.00000  Uiso   1.00
H70    H     0.23508   0.04101   0.35171   0.00000  Uiso   1.00
H71    H     0.20354   0.33033   0.33880   0.00000  Uiso   1.00
H72    H     0.17451   0.04735   0.35298   0.00000  Uiso   1.00
N73    N     0.10784   0.28979   0.20599   0.00000  Uiso   1.00
H74    H     0.07718   0.30485   0.20792   0.00000  Uiso   1.00
C75    C     0.13465   0.27512   0.15833   0.00000  Uiso   1.00
H76    H     0.15024   0.30202   0.13580   0.00000  Uiso   1.00
H77    H     0.11010   0.25737   0.14429   0.00000  Uiso   1.00
H78    H     0.16407   0.25410   0.15681   0.00000  Uiso   1.00
N79    N     0.30380   0.10902   0.19409   0.00000  Uiso   1.00
H80    H     0.30618   0.07879   0.20284   0.00000  Uiso   1.00
C81    C     0.32049   0.11433   0.14390   0.00000  Uiso   1.00
H82    H     0.00995   0.08768   0.12475   0.00000  Uiso   1.00
H83    H     0.00871   0.14345   0.13349   0.00000  Uiso   1.00
H84    H     0.28916   0.11474   0.13278   0.00000  Uiso   1.00
N85    N     0.02501   0.21931   0.31286   0.00000  Uiso   1.00
H86    H     0.03737   0.20620   0.33608   0.00000  Uiso   1.00
C87    C     0.02972   0.26386   0.30783   0.00000  Uiso   1.00
H88    H     0.06583   0.27449   0.30642   0.00000  Uiso   1.00
H89    H     0.00282   0.27979   0.33879   0.00000  Uiso   1.00
H90    H     0.02379   0.27301   0.27600   0.00000  Uiso   1.00
I91    I     0.08263   0.09688   0.17386   0.00000  Uiso   1.00
I92    I     0.24884   0.23667   0.32617   0.00000  Uiso   1.00
O93    O     0.46179   0.22775   0.25000   0.00000  Uiso   1.00
O94    O     0.53821   0.10558   0.24999   0.00000  Uiso   1.00
O95    O     0.53823   0.22774   0.25000   0.00000  Uiso   1.00
O96    O     0.46177   0.10559   0.25000   0.00000  Uiso   1.00
C97    C     0.50303   0.24630   0.24413   0.00000  Uiso   1.00
C98    C     0.49774   0.08663   0.25403   0.00000  Uiso   1.00
O99    O     0.43994   0.16667   0.31612   0.00000  Uiso   1.00
O100   O     0.56006   0.16666   0.18387   0.00000  Uiso   1.00
O101   O     0.51639   0.16666   0.31612   0.00000  Uiso   1.00
O102   O     0.48361   0.16667   0.18388   0.00000  Uiso   1.00
C103   C     0.46974   0.16447   0.33831   0.00000  Uiso   1.00
C104   C     0.53054   0.16793   0.16170   0.00000  Uiso   1.00
Zn105  Zn    0.44896   0.16667   0.25000   0.00000  Uiso   1.00
Zn106  Zn    0.55104   0.16666   0.25000   0.00000  Uiso   1.00
C107   C     0.45273   0.15308   0.38837   0.00000  Uiso   1.00
C108   C     0.55122   0.17011   0.10999   0.00000  Uiso   1.00
C109   C     0.41002   0.10600   0.45160   0.00000  Uiso   1.00
C110   C     0.61249   0.19268   0.03665   0.00000  Uiso   1.00
C111   C     0.41422   0.12503   0.40948   0.00000  Uiso   1.00
C112   C     0.59534   0.19089   0.08582   0.00000  Uiso   1.00
C113   C     0.48307   0.16408   0.41229   0.00000  Uiso   1.00
C114   C     0.52660   0.14986   0.08427   0.00000  Uiso   1.00
C115   C     0.48518   0.13993   0.44833   0.00000  Uiso   1.00
C116   C     0.54275   0.15149   0.03543   0.00000  Uiso   1.00
C117   C     0.44861   0.10982   0.46814   0.00000  Uiso   1.00
C118   C     0.58299   0.17756   0.01219   0.00000  Uiso   1.00
C119   C     0.52260   0.14635   0.46583   0.00000  Uiso   1.00
C120   C     0.51576   0.13206   0.01028   0.00000  Uiso   1.00
C121   C     0.48505   0.09670   0.02565   0.00000  Uiso   1.00
C122   C     0.56644   0.16691   0.44070   0.00000  Uiso   1.00
C123   C     0.45337   0.08420   0.00256   0.00000  Uiso   1.00
C124   C     0.59208   0.18759   0.46546   0.00000  Uiso   1.00
H125   H     0.49277   0.13499   0.10297   0.00000  Uiso   1.00
H126   H     0.50828   0.18947   0.39959   0.00000  Uiso   1.00
C127   C     0.54472   0.31423   0.24364   0.00000  Uiso   1.00
C128   C     0.45962   0.01823   0.24688   0.00000  Uiso   1.00
C129   C     0.53562   0.02186   0.25977   0.00000  Uiso   1.00
C130   C     0.46957   0.31076   0.22928   0.00000  Uiso   1.00
C131   C     0.49551   0.04158   0.25697   0.00000  Uiso   1.00
C132   C     0.50809   0.29067   0.23523   0.00000  Uiso   1.00
C133   C     0.65227   0.13946   0.22117   0.00000  Uiso   1.00
C134   C     0.34718   0.19376   0.27910   0.00000  Uiso   1.00
C135   C     0.36696   0.13968   0.22088   0.00000  Uiso   1.00
C136   C     0.63285   0.19415   0.27863   0.00000  Uiso   1.00
N137   N     0.38093   0.16668   0.25001   0.00000  Uiso   1.00
N138   N     0.61907   0.16666   0.24999   0.00000  Uiso   1.00
I139   I     0.42957   0.02023   0.00726   0.00000  Uiso   1.00
I140   I     0.62203   0.24675   0.43889   0.00000  Uiso   1.00
I141   I     0.63473   0.22448   0.12172   0.00000  Uiso   1.00
I142   I     0.36300   0.10988   0.37862   0.00000  Uiso   1.00
I143   I     0.34057   0.08251   0.49539   0.00000  Uiso   1.00
I144   I     0.35435   0.20740   0.00029   0.00000  Uiso   1.00
N145   N     0.49115   0.07035   0.05917   0.00000  Uiso   1.00
H146   H     0.46137   0.05343   0.07904   0.00000  Uiso   1.00
C147   C     0.53618   0.04812   0.04491   0.00000  Uiso   1.00
H148   H     0.55209   0.05318   0.07223   0.00000  Uiso   1.00
H149   H     0.56263   0.05879   0.01101   0.00000  Uiso   1.00
H150   H     0.52949   0.01421   0.04100   0.00000  Uiso   1.00
N151   N     0.58782   0.16322   0.39067   0.00000  Uiso   1.00
H152   H     0.62131   0.17710   0.37685   0.00000  Uiso   1.00
C153   C     0.58699   0.12213   0.36922   0.00000  Uiso   1.00
H154   H     0.61745   0.11907   0.33495   0.00000  Uiso   1.00
H155   H     0.55362   0.11720   0.36192   0.00000  Uiso   1.00
H156   H     0.58996   0.09742   0.39216   0.00000  Uiso   1.00
I157   I     0.61787   0.29492   0.22152   0.00000  Uiso   1.00
I158   I     0.38557   0.03612   0.27601   0.00000  Uiso   1.00
N159   N     0.56197   0.04126   0.28577   0.00000  Uiso   1.00
H160   H     0.59886   0.03846   0.27094   0.00000  Uiso   1.00
C161   C     0.54265   0.03117   0.33481   0.00000  Uiso   1.00
H162   H     0.56841   0.04101   0.35171   0.00000  Uiso   1.00
H163   H     0.53687   0.33033   0.33880   0.00000  Uiso   1.00
H164   H     0.50785   0.04735   0.35298   0.00000  Uiso   1.00
N165   N     0.44118   0.28979   0.20599   0.00000  Uiso   1.00
H166   H     0.41051   0.30485   0.20792   0.00000  Uiso   1.00
C167   C     0.46798   0.27512   0.15833   0.00000  Uiso   1.00
H168   H     0.48357   0.30202   0.13580   0.00000  Uiso   1.00
H169   H     0.44343   0.25737   0.14429   0.00000  Uiso   1.00
H170   H     0.49741   0.25410   0.15681   0.00000  Uiso   1.00
N171   N     0.63713   0.10902   0.19409   0.00000  Uiso   1.00
H172   H     0.63951   0.07879   0.20284   0.00000  Uiso   1.00
C173   C     0.65382   0.11433   0.14390   0.00000  Uiso   1.00
H174   H     0.34328   0.08768   0.12475   0.00000  Uiso   1.00
H175   H     0.34204   0.14345   0.13349   0.00000  Uiso   1.00
H176   H     0.62249   0.11474   0.13278   0.00000  Uiso   1.00
N177   N     0.35834   0.21931   0.31286   0.00000  Uiso   1.00
H178   H     0.37071   0.20620   0.33608   0.00000  Uiso   1.00
C179   C     0.36305   0.26386   0.30783   0.00000  Uiso   1.00
H180   H     0.39916   0.27449   0.30642   0.00000  Uiso   1.00
H181   H     0.33615   0.27979   0.33879   0.00000  Uiso   1.00
H182   H     0.35713   0.27301   0.27600   0.00000  Uiso   1.00
I183   I     0.41597   0.09688   0.17386   0.00000  Uiso   1.00
I184   I     0.58218   0.23667   0.32617   0.00000  Uiso   1.00
O185   O     0.79512   0.22775   0.25000   0.00000  Uiso   1.00
O186   O     0.87154   0.10558   0.24999   0.00000  Uiso   1.00
O187   O     0.87157   0.22774   0.25000   0.00000  Uiso   1.00
O188   O     0.79510   0.10559   0.25000   0.00000  Uiso   1.00
C189   C     0.83636   0.24630   0.24413   0.00000  Uiso   1.00
C190   C     0.83107   0.08663   0.25403   0.00000  Uiso   1.00
O191   O     0.77328   0.16667   0.31612   0.00000  Uiso   1.00
O192   O     0.89339   0.16666   0.18387   0.00000  Uiso   1.00
O193   O     0.84972   0.16666   0.31612   0.00000  Uiso   1.00
O194   O     0.81695   0.16667   0.18388   0.00000  Uiso   1.00
C195   C     0.80308   0.16447   0.33831   0.00000  Uiso   1.00
C196   C     0.86388   0.16793   0.16170   0.00000  Uiso   1.00
Zn197  Zn    0.78229   0.16667   0.25000   0.00000  Uiso   1.00
Zn198  Zn    0.88438   0.16666   0.25000   0.00000  Uiso   1.00
C199   C     0.78607   0.15308   0.38837   0.00000  Uiso   1.00
C200   C     0.88456   0.17011   0.10999   0.00000  Uiso   1.00
C201   C     0.74335   0.10600   0.45160   0.00000  Uiso   1.00
C202   C     0.94582   0.19268   0.03665   0.00000  Uiso   1.00
C203   C     0.74755   0.12503   0.40948   0.00000  Uiso   1.00
C204   C     0.92868   0.19089   0.08582   0.00000  Uiso   1.00
C205   C     0.81640   0.16408   0.41229   0.00000  Uiso   1.00
C206   C     0.85993   0.14986   0.08427   0.00000  Uiso   1.00
C207   C     0.81851   0.13993   0.44833   0.00000  Uiso   1.00
C208   C     0.87608   0.15149   0.03543   0.00000  Uiso   1.00
C209   C     0.78195   0.10982   0.46814   0.00000  Uiso   1.00
C210   C     0.91632   0.17756   0.01219   0.00000  Uiso   1.00
C211   C     0.85593   0.14635   0.46583   0.00000  Uiso   1.00
C212   C     0.84910   0.13206   0.01028   0.00000  Uiso   1.00
C213   C     0.81839   0.09670   0.02565   0.00000  Uiso   1.00
C214   C     0.89977   0.16691   0.44070   0.00000  Uiso   1.00
C215   C     0.78671   0.08420   0.00256   0.00000  Uiso   1.00
C216   C     0.92541   0.18759   0.46546   0.00000  Uiso   1.00
H217   H     0.82610   0.13499   0.10297   0.00000  Uiso   1.00
H218   H     0.84161   0.18947   0.39959   0.00000  Uiso   1.00
C219   C     0.87806   0.31423   0.24364   0.00000  Uiso   1.00
C220   C     0.79296   0.01823   0.24688   0.00000  Uiso   1.00
C221   C     0.86896   0.02186   0.25977   0.00000  Uiso   1.00
C222   C     0.80290   0.31076   0.22928   0.00000  Uiso   1.00
C223   C     0.82884   0.04158   0.25697   0.00000  Uiso   1.00
C224   C     0.84143   0.29067   0.23523   0.00000  Uiso   1.00
C225   C     0.98560   0.13946   0.22117   0.00000  Uiso   1.00
C226   C     0.68052   0.19376   0.27910   0.00000  Uiso   1.00
C227   C     0.70029   0.13968   0.22088   0.00000  Uiso   1.00
C228   C     0.96618   0.19415   0.27863   0.00000  Uiso   1.00
N229   N     0.71426   0.16668   0.25001   0.00000  Uiso   1.00
N230   N     0.95241   0.16666   0.24999   0.00000  Uiso   1.00
I231   I     0.76290   0.02023   0.00726   0.00000  Uiso   1.00
I232   I     0.95536   0.24675   0.43889   0.00000  Uiso   1.00
I233   I     0.96807   0.22448   0.12172   0.00000  Uiso   1.00
I234   I     0.69633   0.10988   0.37862   0.00000  Uiso   1.00
I235   I     0.67390   0.08251   0.49539   0.00000  Uiso   1.00
I236   I     0.68768   0.20740   0.00029   0.00000  Uiso   1.00
N237   N     0.82448   0.07035   0.05917   0.00000  Uiso   1.00
H238   H     0.79471   0.05343   0.07904   0.00000  Uiso   1.00
C239   C     0.86952   0.04812   0.04491   0.00000  Uiso   1.00
H240   H     0.88542   0.05318   0.07223   0.00000  Uiso   1.00
H241   H     0.89596   0.05879   0.01101   0.00000  Uiso   1.00
H242   H     0.86282   0.01421   0.04100   0.00000  Uiso   1.00
N243   N     0.92115   0.16322   0.39067   0.00000  Uiso   1.00
H244   H     0.95465   0.17710   0.37685   0.00000  Uiso   1.00
C245   C     0.92032   0.12213   0.36922   0.00000  Uiso   1.00
H246   H     0.95078   0.11907   0.33495   0.00000  Uiso   1.00
H247   H     0.88695   0.11720   0.36192   0.00000  Uiso   1.00
H248   H     0.92329   0.09742   0.39216   0.00000  Uiso   1.00
I249   I     0.95120   0.29492   0.22152   0.00000  Uiso   1.00
I250   I     0.71891   0.03612   0.27601   0.00000  Uiso   1.00
N251   N     0.89530   0.04126   0.28577   0.00000  Uiso   1.00
H252   H     0.93220   0.03846   0.27094   0.00000  Uiso   1.00
C253   C     0.87598   0.03117   0.33481   0.00000  Uiso   1.00
H254   H     0.90175   0.04101   0.35171   0.00000  Uiso   1.00
H255   H     0.87020   0.33033   0.33880   0.00000  Uiso   1.00
H256   H     0.84118   0.04735   0.35298   0.00000  Uiso   1.00
N257   N     0.77451   0.28979   0.20599   0.00000  Uiso   1.00
H258   H     0.74384   0.30485   0.20792   0.00000  Uiso   1.00
C259   C     0.80131   0.27512   0.15833   0.00000  Uiso   1.00
H260   H     0.81690   0.30202   0.13580   0.00000  Uiso   1.00
H261   H     0.77676   0.25737   0.14429   0.00000  Uiso   1.00
H262   H     0.83074   0.25410   0.15681   0.00000  Uiso   1.00
N263   N     0.97047   0.10902   0.19409   0.00000  Uiso   1.00
H264   H     0.97285   0.07879   0.20284   0.00000  Uiso   1.00
C265   C     0.98716   0.11433   0.14390   0.00000  Uiso   1.00
H266   H     0.67661   0.08768   0.12475   0.00000  Uiso   1.00
H267   H     0.67538   0.14345   0.13349   0.00000  Uiso   1.00
H268   H     0.95582   0.11474   0.13278   0.00000  Uiso   1.00
N269   N     0.69168   0.21931   0.31286   0.00000  Uiso   1.00
H270   H     0.70404   0.20620   0.33608   0.00000  Uiso   1.00
C271   C     0.69638   0.26386   0.30783   0.00000  Uiso   1.00
H272   H     0.73249   0.27449   0.30642   0.00000  Uiso   1.00
H273   H     0.66948   0.27979   0.33879   0.00000  Uiso   1.00
H274   H     0.69046   0.27301   0.27600   0.00000  Uiso   1.00
I275   I     0.74930   0.09688   0.17386   0.00000  Uiso   1.00
I276   I     0.91551   0.23667   0.32617   0.00000  Uiso   1.00
O277   O     0.12846   0.56108   0.25000   0.00000  Uiso   1.00
O278   O     0.20488   0.43892   0.24999   0.00000  Uiso   1.00
O279   O     0.20490   0.56107   0.25000   0.00000  Uiso   1.00
O280   O     0.12843   0.43893   0.25000   0.00000  Uiso   1.00
C281   C     0.16969   0.57963   0.24413   0.00000  Uiso   1.00
C282   C     0.16441   0.41996   0.25403   0.00000  Uiso   1.00
O283   O     0.10661   0.50001   0.31612   0.00000  Uiso   1.00
O284   O     0.22672   0.49999   0.18387   0.00000  Uiso   1.00
O285   O     0.18305   0.50000   0.31612   0.00000  Uiso   1.00
O286   O     0.15028   0.50000   0.18388   0.00000  Uiso   1.00
C287   C     0.13641   0.49780   0.33831   0.00000  Uiso   1.00
C288   C     0.19721   0.50126   0.16170   0.00000  Uiso   1.00
Zn289  Zn    0.11562   0.50001   0.25000   0.00000  Uiso   1.00
Zn290  Zn    0.21771   0.49999   0.25000   0.00000  Uiso   1.00
C291   C     0.11940   0.48642   0.38837   0.00000  Uiso   1.00
C292   C     0.21789   0.50344   0.10999   0.00000  Uiso   1.00
C293   C     0.07668   0.43934   0.45160   0.00000  Uiso   1.00
C294   C     0.27915   0.52602   0.03665   0.00000  Uiso   1.00
C295   C     0.08089   0.45836   0.40948   0.00000  Uiso   1.00
C296   C     0.26201   0.52423   0.08582   0.00000  Uiso   1.00
C297   C     0.14973   0.49741   0.41229   0.00000  Uiso   1.00
C298   C     0.19326   0.48319   0.08427   0.00000  Uiso   1.00
C299   C     0.15184   0.47326   0.44833   0.00000  Uiso   1.00
C300   C     0.20941   0.48483   0.03543   0.00000  Uiso   1.00
C301   C     0.11528   0.44316   0.46814   0.00000  Uiso   1.00
C302   C     0.24965   0.51089   0.01219   0.00000  Uiso   1.00
C303   C     0.18926   0.47968   0.46583   0.00000  Uiso   1.00
C304   C     0.18243   0.46539   0.01028   0.00000  Uiso   1.00
C305   C     0.15172   0.43004   0.02565   0.00000  Uiso   1.00
C306   C     0.23311   0.50025   0.44070   0.00000  Uiso   1.00
C307   C     0.12004   0.41754   0.00256   0.00000  Uiso   1.00
C308   C     0.25874   0.52092   0.46546   0.00000  Uiso   1.00
H309   H     0.15944   0.46833   0.10297   0.00000  Uiso   1.00
H310   H     0.17494   0.52281   0.39959   0.00000  Uiso   1.00
C311   C     0.21139   0.64757   0.24364   0.00000  Uiso   1.00
C312   C     0.12629   0.35157   0.24688   0.00000  Uiso   1.00
C313   C     0.20229   0.35520   0.25977   0.00000  Uiso   1.00
C314   C     0.13624   0.64410   0.22928   0.00000  Uiso   1.00
C315   C     0.16217   0.37492   0.25697   0.00000  Uiso   1.00
C316   C     0.17476   0.62400   0.23523   0.00000  Uiso   1.00
C317   C     0.31893   0.47279   0.22117   0.00000  Uiso   1.00
C318   C     0.01385   0.52709   0.27910   0.00000  Uiso   1.00
C319   C     0.03362   0.47301   0.22088   0.00000  Uiso   1.00
C320   C     0.29951   0.52748   0.27863   0.00000  Uiso   1.00
N321   N     0.04759   0.50001   0.25001   0.00000  Uiso   1.00
N322   N     0.28574   0.49999   0.24999   0.00000  Uiso   1.00
I323   I     0.09624   0.35357   0.00726   0.00000  Uiso   1.00
I324   I     0.28869   0.58008   0.43889   0.00000  Uiso   1.00
I325   I     0.30140   0.55782   0.12172   0.00000  Uiso   1.00
I326   I     0.02967   0.44321   0.37862   0.00000  Uiso   1.00
I327   I     0.00724   0.41585   0.49539   0.00000  Uiso   1.00
I328   I     0.02102   0.54073   0.00029   0.00000  Uiso   1.00
N329   N     0.15781   0.40369   0.05917   0.00000  Uiso   1.00
H330   H     0.12804   0.38676   0.07904   0.00000  Uiso   1.00
C331   C     0.20285   0.38145   0.04491   0.00000  Uiso   1.00
H332   H     0.21876   0.38651   0.07223   0.00000  Uiso   1.00
H333   H     0.22929   0.39212   0.01101   0.00000  Uiso   1.00
H334   H     0.19616   0.34754   0.04100   0.00000  Uiso   1.00
N335   N     0.25448   0.49655   0.39067   0.00000  Uiso   1.00
H336   H     0.28798   0.51043   0.37685   0.00000  Uiso   1.00
C337   C     0.25366   0.45546   0.36922   0.00000  Uiso   1.00
H338   H     0.28411   0.45240   0.33495   0.00000  Uiso   1.00
H339   H     0.22028   0.45053   0.36192   0.00000  Uiso   1.00
H340   H     0.25662   0.43076   0.39216   0.00000  Uiso   1.00
I341   I     0.28453   0.62826   0.22152   0.00000  Uiso   1.00
I342   I     0.05224   0.36946   0.27601   0.00000  Uiso   1.00
N343   N     0.22864   0.37460   0.28577   0.00000  Uiso   1.00
H344   H     0.26553   0.37179   0.27094   0.00000  Uiso   1.00
C345   C     0.20931   0.36450   0.33481   0.00000  Uiso   1.00
H346   H     0.23508   0.37434   0.35171   0.00000  Uiso   1.00
H347   H     0.20354   0.66366   0.33880   0.00000  Uiso   1.00
H348   H     0.17451   0.38068   0.35298   0.00000  Uiso   1.00
N349   N     0.10784   0.62312   0.20599   0.00000  Uiso   1.00
H350   H     0.07718   0.63818   0.20792   0.00000  Uiso   1.00
C351   C     0.13465   0.60846   0.15833   0.00000  Uiso   1.00
H352   H     0.15024   0.63535   0.13580   0.00000  Uiso   1.00
H353   H     0.11010   0.59071   0.14429   0.00000  Uiso   1.00
H354   H     0.16407   0.58743   0.15681   0.00000  Uiso   1.00
N355   N     0.30380   0.44235   0.19409   0.00000  Uiso   1.00
H356   H     0.30618   0.41212   0.20284   0.00000  Uiso   1.00
C357   C     0.32049   0.44767   0.14390   0.00000  Uiso   1.00
H358   H     0.00995   0.42101   0.12475   0.00000  Uiso   1.00
H359   H     0.00871   0.47679   0.13349   0.00000  Uiso   1.00
H360   H     0.28916   0.44808   0.13278   0.00000  Uiso   1.00
N361   N     0.02501   0.55264   0.31286   0.00000  Uiso   1.00
H362   H     0.03737   0.53953   0.33608   0.00000  Uiso   1.00
C363   C     0.02972   0.59720   0.30783   0.00000  Uiso   1.00
H364   H     0.06583   0.60782   0.30642   0.00000  Uiso   1.00
H365   H     0.00282   0.61312   0.33879   0.00000  Uiso   1.00
H366   H     0.02379   0.60634   0.27600   0.00000  Uiso   1.00
I367   I     0.08263   0.43021   0.17386   0.00000  Uiso   1.00
I368   I     0.24884   0.57000   0.32617   0.00000  Uiso   1.00
O369   O     0.46179   0.56108   0.25000   0.00000  Uiso   1.00
O370   O     0.53821   0.43892   0.24999   0.00000  Uiso   1.00
O371   O     0.53823   0.56107   0.25000   0.00000  Uiso   1.00
O372   O     0.46177   0.43893   0.25000   0.00000  Uiso   1.00
C373   C     0.50303   0.57963   0.24413   0.00000  Uiso   1.00
C374   C     0.49774   0.41996   0.25403   0.00000  Uiso   1.00
O375   O     0.43994   0.50001   0.31612   0.00000  Uiso   1.00
O376   O     0.56006   0.49999   0.18387   0.00000  Uiso   1.00
O377   O     0.51639   0.50000   0.31612   0.00000  Uiso   1.00
O378   O     0.48361   0.50000   0.18388   0.00000  Uiso   1.00
C379   C     0.46974   0.49780   0.33831   0.00000  Uiso   1.00
C380   C     0.53054   0.50126   0.16170   0.00000  Uiso   1.00
Zn381  Zn    0.44896   0.50001   0.25000   0.00000  Uiso   1.00
Zn382  Zn    0.55104   0.49999   0.25000   0.00000  Uiso   1.00
C383   C     0.45273   0.48642   0.38837   0.00000  Uiso   1.00
C384   C     0.55122   0.50344   0.10999   0.00000  Uiso   1.00
C385   C     0.41002   0.43934   0.45160   0.00000  Uiso   1.00
C386   C     0.61249   0.52602   0.03665   0.00000  Uiso   1.00
C387   C     0.41422   0.45836   0.40948   0.00000  Uiso   1.00
C388   C     0.59534   0.52423   0.08582   0.00000  Uiso   1.00
C389   C     0.48307   0.49741   0.41229   0.00000  Uiso   1.00
C390   C     0.52660   0.48319   0.08427   0.00000  Uiso   1.00
C391   C     0.48518   0.47326   0.44833   0.00000  Uiso   1.00
C392   C     0.54275   0.48483   0.03543   0.00000  Uiso   1.00
C393   C     0.44861   0.44316   0.46814   0.00000  Uiso   1.00
C394   C     0.58299   0.51089   0.01219   0.00000  Uiso   1.00
C395   C     0.52260   0.47968   0.46583   0.00000  Uiso   1.00
C396   C     0.51576   0.46539   0.01028   0.00000  Uiso   1.00
C397   C     0.48505   0.43004   0.02565   0.00000  Uiso   1.00
C398   C     0.56644   0.50025   0.44070   0.00000  Uiso   1.00
C399   C     0.45337   0.41754   0.00256   0.00000  Uiso   1.00
C400   C     0.59208   0.52092   0.46546   0.00000  Uiso   1.00
H401   H     0.49277   0.46833   0.10297   0.00000  Uiso   1.00
H402   H     0.50828   0.52281   0.39959   0.00000  Uiso   1.00
C403   C     0.54472   0.64757   0.24364   0.00000  Uiso   1.00
C404   C     0.45962   0.35157   0.24688   0.00000  Uiso   1.00
C405   C     0.53562   0.35520   0.25977   0.00000  Uiso   1.00
C406   C     0.46957   0.64410   0.22928   0.00000  Uiso   1.00
C407   C     0.49551   0.37492   0.25697   0.00000  Uiso   1.00
C408   C     0.50809   0.62400   0.23523   0.00000  Uiso   1.00
C409   C     0.65227   0.47279   0.22117   0.00000  Uiso   1.00
C410   C     0.34718   0.52709   0.27910   0.00000  Uiso   1.00
C411   C     0.36696   0.47301   0.22088   0.00000  Uiso   1.00
C412   C     0.63285   0.52748   0.27863   0.00000  Uiso   1.00
N413   N     0.38093   0.50001   0.25001   0.00000  Uiso   1.00
N414   N     0.61907   0.49999   0.24999   0.00000  Uiso   1.00
I415   I     0.42957   0.35357   0.00726   0.00000  Uiso   1.00
I416   I     0.62203   0.58008   0.43889   0.00000  Uiso   1.00
I417   I     0.63473   0.55782   0.12172   0.00000  Uiso   1.00
I418   I     0.36300   0.44321   0.37862   0.00000  Uiso   1.00
I419   I     0.34057   0.41585   0.49539   0.00000  Uiso   1.00
I420   I     0.35435   0.54073   0.00029   0.00000  Uiso   1.00
N421   N     0.49115   0.40369   0.05917   0.00000  Uiso   1.00
H422   H     0.46137   0.38676   0.07904   0.00000  Uiso   1.00
C423   C     0.53618   0.38145   0.04491   0.00000  Uiso   1.00
H424   H     0.55209   0.38651   0.07223   0.00000  Uiso   1.00
H425   H     0.56263   0.39212   0.01101   0.00000  Uiso   1.00
H426   H     0.52949   0.34754   0.04100   0.00000  Uiso   1.00
N427   N     0.58782   0.49655   0.39067   0.00000  Uiso   1.00
H428   H     0.62131   0.51043   0.37685   0.00000  Uiso   1.00
C429   C     0.58699   0.45546   0.36922   0.00000  Uiso   1.00
H430   H     0.61745   0.45240   0.33495   0.00000  Uiso   1.00
H431   H     0.55362   0.45053   0.36192   0.00000  Uiso   1.00
H432   H     0.58996   0.43076   0.39216   0.00000  Uiso   1.00
I433   I     0.61787   0.62826   0.22152   0.00000  Uiso   1.00
I434   I     0.38557   0.36946   0.27601   0.00000  Uiso   1.00
N435   N     0.56197   0.37460   0.28577   0.00000  Uiso   1.00
H436   H     0.59886   0.37179   0.27094   0.00000  Uiso   1.00
C437   C     0.54265   0.36450   0.33481   0.00000  Uiso   1.00
H438   H     0.56841   0.37434   0.35171   0.00000  Uiso   1.00
H439   H     0.53687   0.66366   0.33880   0.00000  Uiso   1.00
H440   H     0.50785   0.38068   0.35298   0.00000  Uiso   1.00
N441   N     0.44118   0.62312   0.20599   0.00000  Uiso   1.00
H442   H     0.41051   0.63818   0.20792   0.00000  Uiso   1.00
C443   C     0.46798   0.60846   0.15833   0.00000  Uiso   1.00
H444   H     0.48357   0.63535   0.13580   0.00000  Uiso   1.00
H445   H     0.44343   0.59071   0.14429   0.00000  Uiso   1.00
H446   H     0.49741   0.58743   0.15681   0.00000  Uiso   1.00
N447   N     0.63713   0.44235   0.19409   0.00000  Uiso   1.00
H448   H     0.63951   0.41212   0.20284   0.00000  Uiso   1.00
C449   C     0.65382   0.44767   0.14390   0.00000  Uiso   1.00
H450   H     0.34328   0.42101   0.12475   0.00000  Uiso   1.00
H451   H     0.34204   0.47679   0.13349   0.00000  Uiso   1.00
H452   H     0.62249   0.44808   0.13278   0.00000  Uiso   1.00
N453   N     0.35834   0.55264   0.31286   0.00000  Uiso   1.00
H454   H     0.37071   0.53953   0.33608   0.00000  Uiso   1.00
C455   C     0.36305   0.59720   0.30783   0.00000  Uiso   1.00
H456   H     0.39916   0.60782   0.30642   0.00000  Uiso   1.00
H457   H     0.33615   0.61312   0.33879   0.00000  Uiso   1.00
H458   H     0.35713   0.60634   0.27600   0.00000  Uiso   1.00
I459   I     0.41597   0.43021   0.17386   0.00000  Uiso   1.00
I460   I     0.58218   0.57000   0.32617   0.00000  Uiso   1.00
O461   O     0.79512   0.56108   0.25000   0.00000  Uiso   1.00
O462   O     0.87154   0.43892   0.24999   0.00000  Uiso   1.00
O463   O     0.87157   0.56107   0.25000   0.00000  Uiso   1.00
O464   O     0.79510   0.43893   0.25000   0.00000  Uiso   1.00
C465   C     0.83636   0.57963   0.24413   0.00000  Uiso   1.00
C466   C     0.83107   0.41996   0.25403   0.00000  Uiso   1.00
O467   O     0.77328   0.50001   0.31612   0.00000  Uiso   1.00
O468   O     0.89339   0.49999   0.18387   0.00000  Uiso   1.00
O469   O     0.84972   0.50000   0.31612   0.00000  Uiso   1.00
O470   O     0.81695   0.50000   0.18388   0.00000  Uiso   1.00
C471   C     0.80308   0.49780   0.33831   0.00000  Uiso   1.00
C472   C     0.86388   0.50126   0.16170   0.00000  Uiso   1.00
Zn473  Zn    0.78229   0.50001   0.25000   0.00000  Uiso   1.00
Zn474  Zn    0.88438   0.49999   0.25000   0.00000  Uiso   1.00
C475   C     0.78607   0.48642   0.38837   0.00000  Uiso   1.00
C476   C     0.88456   0.50344   0.10999   0.00000  Uiso   1.00
C477   C     0.74335   0.43934   0.45160   0.00000  Uiso   1.00
C478   C     0.94582   0.52602   0.03665   0.00000  Uiso   1.00
C479   C     0.74755   0.45836   0.40948   0.00000  Uiso   1.00
C480   C     0.92868   0.52423   0.08582   0.00000  Uiso   1.00
C481   C     0.81640   0.49741   0.41229   0.00000  Uiso   1.00
C482   C     0.85993   0.48319   0.08427   0.00000  Uiso   1.00
C483   C     0.81851   0.47326   0.44833   0.00000  Uiso   1.00
C484   C     0.87608   0.48483   0.03543   0.00000  Uiso   1.00
C485   C     0.78195   0.44316   0.46814   0.00000  Uiso   1.00
C486   C     0.91632   0.51089   0.01219   0.00000  Uiso   1.00
C487   C     0.85593   0.47968   0.46583   0.00000  Uiso   1.00
C488   C     0.84910   0.46539   0.01028   0.00000  Uiso   1.00
C489   C     0.81839   0.43004   0.02565   0.00000  Uiso   1.00
C490   C     0.89977   0.50025   0.44070   0.00000  Uiso   1.00
C491   C     0.78671   0.41754   0.00256   0.00000  Uiso   1.00
C492   C     0.92541   0.52092   0.46546   0.00000  Uiso   1.00
H493   H     0.82610   0.46833   0.10297   0.00000  Uiso   1.00
H494   H     0.84161   0.52281   0.39959   0.00000  Uiso   1.00
C495   C     0.87806   0.64757   0.24364   0.00000  Uiso   1.00
C496   C     0.79296   0.35157   0.24688   0.00000  Uiso   1.00
C497   C     0.86896   0.35520   0.25977   0.00000  Uiso   1.00
C498   C     0.80290   0.64410   0.22928   0.00000  Uiso   1.00
C499   C     0.82884   0.37492   0.25697   0.00000  Uiso   1.00
C500   C     0.84143   0.62400   0.23523   0.00000  Uiso   1.00
C501   C     0.98560   0.47279   0.22117   0.00000  Uiso   1.00
C502   C     0.68052   0.52709   0.27910   0.00000  Uiso   1.00
C503   C     0.70029   0.47301   0.22088   0.00000  Uiso   1.00
C504   C     0.96618   0.52748   0.27863   0.00000  Uiso   1.00
N505   N     0.71426   0.50001   0.25001   0.00000  Uiso   1.00
N506   N     0.95241   0.49999   0.24999   0.00000  Uiso   1.00
I507   I     0.76290   0.35357   0.00726   0.00000  Uiso   1.00
I508   I     0.95536   0.58008   0.43889   0.00000  Uiso   1.00
I509   I     0.96807   0.55782   0.12172   0.00000  Uiso   1.00
I510   I     0.69633   0.44321   0.37862   0.00000  Uiso   1.00
I511   I     0.67390   0.41585   0.49539   0.00000  Uiso   1.00
I512   I     0.68768   0.54073   0.00029   0.00000  Uiso   1.00
N513   N     0.82448   0.40369   0.05917   0.00000  Uiso   1.00
H514   H     0.79471   0.38676   0.07904   0.00000  Uiso   1.00
C515   C     0.86952   0.38145   0.04491   0.00000  Uiso   1.00
H516   H     0.88542   0.38651   0.07223   0.00000  Uiso   1.00
H517   H     0.89596   0.39212   0.01101   0.00000  Uiso   1.00
H518   H     0.86282   0.34754   0.04100   0.00000  Uiso   1.00
N519   N     0.92115   0.49655   0.39067   0.00000  Uiso   1.00
H520   H     0.95465   0.51043   0.37685   0.00000  Uiso   1.00
C521   C     0.92032   0.45546   0.36922   0.00000  Uiso   1.00
H522   H     0.95078   0.45240   0.33495   0.00000  Uiso   1.00
H523   H     0.88695   0.45053   0.36192   0.00000  Uiso   1.00
H524   H     0.92329   0.43076   0.39216   0.00000  Uiso   1.00
I525   I     0.95120   0.62826   0.22152   0.00000  Uiso   1.00
I526   I     0.71891   0.36946   0.27601   0.00000  Uiso   1.00
N527   N     0.89530   0.37460   0.28577   0.00000  Uiso   1.00
H528   H     0.93220   0.37179   0.27094   0.00000  Uiso   1.00
C529   C     0.87598   0.36450   0.33481   0.00000  Uiso   1.00
H530   H     0.90175   0.37434   0.35171   0.00000  Uiso   1.00
H531   H     0.87020   0.66366   0.33880   0.00000  Uiso   1.00
H532   H     0.84118   0.38068   0.35298   0.00000  Uiso   1.00
N533   N     0.77451   0.62312   0.20599   0.00000  Uiso   1.00
H534   H     0.74384   0.63818   0.20792   0.00000  Uiso   1.00
C535   C     0.80131   0.60846   0.15833   0.00000  Uiso   1.00
H536   H     0.81690   0.63535   0.13580   0.00000  Uiso   1.00
H537   H     0.77676   0.59071   0.14429   0.00000  Uiso   1.00
H538   H     0.83074   0.58743   0.15681   0.00000  Uiso   1.00
N539   N     0.97047   0.44235   0.19409   0.00000  Uiso   1.00
H540   H     0.97285   0.41212   0.20284   0.00000  Uiso   1.00
C541   C     0.98716   0.44767   0.14390   0.00000  Uiso   1.00
H542   H     0.67661   0.42101   0.12475   0.00000  Uiso   1.00
H543   H     0.67538   0.47679   0.13349   0.00000  Uiso   1.00
H544   H     0.95582   0.44808   0.13278   0.00000  Uiso   1.00
N545   N     0.69168   0.55264   0.31286   0.00000  Uiso   1.00
H546   H     0.70404   0.53953   0.33608   0.00000  Uiso   1.00
C547   C     0.69638   0.59720   0.30783   0.00000  Uiso   1.00
H548   H     0.73249   0.60782   0.30642   0.00000  Uiso   1.00
H549   H     0.66948   0.61312   0.33879   0.00000  Uiso   1.00
H550   H     0.69046   0.60634   0.27600   0.00000  Uiso   1.00
I551   I     0.74930   0.43021   0.17386   0.00000  Uiso   1.00
I552   I     0.91551   0.57000   0.32617   0.00000  Uiso   1.00
O553   O     0.12846   0.89442   0.25000   0.00000  Uiso   1.00
O554   O     0.20488   0.77225   0.24999   0.00000  Uiso   1.00
O555   O     0.20490   0.89441   0.25000   0.00000  Uiso   1.00
O556   O     0.12843   0.77226   0.25000   0.00000  Uiso   1.00
C557   C     0.16969   0.91297   0.24413   0.00000  Uiso   1.00
C558   C     0.16441   0.75329   0.25403   0.00000  Uiso   1.00
O559   O     0.10661   0.83334   0.31612   0.00000  Uiso   1.00
O560   O     0.22672   0.83333   0.18387   0.00000  Uiso   1.00
O561   O     0.18305   0.83333   0.31612   0.00000  Uiso   1.00
O562   O     0.15028   0.83334   0.18388   0.00000  Uiso   1.00
C563   C     0.13641   0.83114   0.33831   0.00000  Uiso   1.00
C564   C     0.19721   0.83459   0.16170   0.00000  Uiso   1.00
Zn565  Zn    0.11562   0.83334   0.25000   0.00000  Uiso   1.00
Zn566  Zn    0.21771   0.83333   0.25000   0.00000  Uiso   1.00
C567   C     0.11940   0.81975   0.38837   0.00000  Uiso   1.00
C568   C     0.21789   0.83678   0.10999   0.00000  Uiso   1.00
C569   C     0.07668   0.77267   0.45160   0.00000  Uiso   1.00
C570   C     0.27915   0.85935   0.03665   0.00000  Uiso   1.00
C571   C     0.08089   0.79170   0.40948   0.00000  Uiso   1.00
C572   C     0.26201   0.85756   0.08582   0.00000  Uiso   1.00
C573   C     0.14973   0.83074   0.41229   0.00000  Uiso   1.00
C574   C     0.19326   0.81653   0.08427   0.00000  Uiso   1.00
C575   C     0.15184   0.80660   0.44833   0.00000  Uiso   1.00
C576   C     0.20941   0.81816   0.03543   0.00000  Uiso   1.00
C577   C     0.11528   0.77649   0.46814   0.00000  Uiso   1.00
C578   C     0.24965   0.84423   0.01219   0.00000  Uiso   1.00
C579   C     0.18926   0.81301   0.46583   0.00000  Uiso   1.00
C580   C     0.18243   0.79873   0.01028   0.00000  Uiso   1.00
C581   C     0.15172   0.76337   0.02565   0.00000  Uiso   1.00
C582   C     0.23311   0.83358   0.44070   0.00000  Uiso   1.00
C583   C     0.12004   0.75087   0.00256   0.00000  Uiso   1.00
C584   C     0.25874   0.85425   0.46546   0.00000  Uiso   1.00
H585   H     0.15944   0.80166   0.10297   0.00000  Uiso   1.00
H586   H     0.17494   0.85614   0.39959   0.00000  Uiso   1.00
C587   C     0.21139   0.98090   0.24364   0.00000  Uiso   1.00
C588   C     0.12629   0.68490   0.24688   0.00000  Uiso   1.00
C589   C     0.20229   0.68853   0.25977   0.00000  Uiso   1.00
C590   C     0.13624   0.97743   0.22928   0.00000  Uiso   1.00
C591   C     0.16217   0.70825   0.25697   0.00000  Uiso   1.00
C592   C     0.17476   0.95733   0.23523   0.00000  Uiso   1.00
C593   C     0.31893   0.80613   0.22117   0.00000  Uiso   1.00
C594   C     0.01385   0.86042   0.27910   0.00000  Uiso   1.00
C595   C     0.03362   0.80634   0.22088   0.00000  Uiso   1.00
C596   C     0.29951   0.86081   0.27863   0.00000  Uiso   1.00
N597   N     0.04759   0.83334   0.25001   0.00000  Uiso   1.00
N598   N     0.28574   0.83332   0.24999   0.00000  Uiso   1.00
I599   I     0.09624   0.68690   0.00726   0.00000  Uiso   1.00
I600   I     0.28869   0.91341   0.43889   0.00000  Uiso   1.00
I601   I     0.30140   0.89115   0.12172   0.00000  Uiso   1.00
I602   I     0.02967   0.77655   0.37862   0.00000  Uiso   1.00
I603   I     0.00724   0.74918   0.49539   0.00000  Uiso   1.00
I604   I     0.02102   0.87406   0.00029   0.00000  Uiso   1.00
N605   N     0.15781   0.73702   0.05917   0.00000  Uiso   1.00
H606   H     0.12804   0.72010   0.07904   0.00000  Uiso   1.00
C607   C     0.20285   0.71478   0.04491   0.00000  Uiso   1.00
H608   H     0.21876   0.71984   0.07223   0.00000  Uiso   1.00
H609   H     0.22929   0.72545   0.01101   0.00000  Uiso   1.00
H610   H     0.19616   0.68087   0.04100   0.00000  Uiso   1.00
N611   N     0.25448   0.82988   0.39067   0.00000  Uiso   1.00
H612   H     0.28798   0.84377   0.37685   0.00000  Uiso   1.00
C613   C     0.25366   0.78880   0.36922   0.00000  Uiso   1.00
H614   H     0.28411   0.78574   0.33495   0.00000  Uiso   1.00
H615   H     0.22028   0.78386   0.36192   0.00000  Uiso   1.00
H616   H     0.25662   0.76409   0.39216   0.00000  Uiso   1.00
I617   I     0.28453   0.96159   0.22152   0.00000  Uiso   1.00
I618   I     0.05224   0.70279   0.27601   0.00000  Uiso   1.00
N619   N     0.22864   0.70793   0.28577   0.00000  Uiso   1.00
H620   H     0.26553   0.70512   0.27094   0.00000  Uiso   1.00
C621   C     0.20931   0.69784   0.33481   0.00000  Uiso   1.00
H622   H     0.23508   0.70768   0.35171   0.00000  Uiso   1.00
H623   H     0.20354   0.99699   0.33880   0.00000  Uiso   1.00
H624   H     0.17451   0.71401   0.35298   0.00000  Uiso   1.00
N625   N     0.10784   0.95646   0.20599   0.00000  Uiso   1.00
H626   H     0.07718   0.97152   0.20792   0.00000  Uiso   1.00
C627   C     0.13465   0.94179   0.15833   0.00000  Uiso   1.00
H628   H     0.15024   0.96869   0.13580   0.00000  Uiso   1.00
H629   H     0.11010   0.92404   0.14429   0.00000  Uiso   1.00
H630   H     0.16407   0.92076   0.15681   0.00000  Uiso   1.00
N631   N     0.30380   0.77569   0.19409   0.00000  Uiso   1.00
H632   H     0.30618   0.74545   0.20284   0.00000  Uiso   1.00
C633   C     0.32049   0.78100   0.14390   0.00000  Uiso   1.00
H634   H     0.00995   0.75434   0.12475   0.00000  Uiso   1.00
H635   H     0.00871   0.81012   0.13349   0.00000  Uiso   1.00
H636   H     0.28916   0.78141   0.13278   0.00000  Uiso   1.00
N637   N     0.02501   0.88597   0.31286   0.00000  Uiso   1.00
H638   H     0.03737   0.87286   0.33608   0.00000  Uiso   1.00
C639   C     0.02972   0.93053   0.30783   0.00000  Uiso   1.00
H640   H     0.06583   0.94116   0.30642   0.00000  Uiso   1.00
H641   H     0.00282   0.94645   0.33879   0.00000  Uiso   1.00
H642   H     0.02379   0.93967   0.27600   0.00000  Uiso   1.00
I643   I     0.08263   0.76355   0.17386   0.00000  Uiso   1.00
I644   I     0.24884   0.90333   0.32617   0.00000  Uiso   1.00
O645   O     0.46179   0.89442   0.25000   0.00000  Uiso   1.00
O646   O     0.53821   0.77225   0.24999   0.00000  Uiso   1.00
O647   O     0.53823   0.89441   0.25000   0.00000  Uiso   1.00
O648   O     0.46177   0.77226   0.25000   0.00000  Uiso   1.00
C649   C     0.50303   0.91297   0.24413   0.00000  Uiso   1.00
C650   C     0.49774   0.75329   0.25403   0.00000  Uiso   1.00
O651   O     0.43994   0.83334   0.31612   0.00000  Uiso   1.00
O652   O     0.56006   0.83333   0.18387   0.00000  Uiso   1.00
O653   O     0.51639   0.83333   0.31612   0.00000  Uiso   1.00
O654   O     0.48361   0.83334   0.18388   0.00000  Uiso   1.00
C655   C     0.46974   0.83114   0.33831   0.00000  Uiso   1.00
C656   C     0.53054   0.83459   0.16170   0.00000  Uiso   1.00
Zn657  Zn    0.44896   0.83334   0.25000   0.00000  Uiso   1.00
Zn658  Zn    0.55104   0.83333   0.25000   0.00000  Uiso   1.00
C659   C     0.45273   0.81975   0.38837   0.00000  Uiso   1.00
C660   C     0.55122   0.83678   0.10999   0.00000  Uiso   1.00
C661   C     0.41002   0.77267   0.45160   0.00000  Uiso   1.00
C662   C     0.61249   0.85935   0.03665   0.00000  Uiso   1.00
C663   C     0.41422   0.79170   0.40948   0.00000  Uiso   1.00
C664   C     0.59534   0.85756   0.08582   0.00000  Uiso   1.00
C665   C     0.48307   0.83074   0.41229   0.00000  Uiso   1.00
C666   C     0.52660   0.81653   0.08427   0.00000  Uiso   1.00
C667   C     0.48518   0.80660   0.44833   0.00000  Uiso   1.00
C668   C     0.54275   0.81816   0.03543   0.00000  Uiso   1.00
C669   C     0.44861   0.77649   0.46814   0.00000  Uiso   1.00
C670   C     0.58299   0.84423   0.01219   0.00000  Uiso   1.00
C671   C     0.52260   0.81301   0.46583   0.00000  Uiso   1.00
C672   C     0.51576   0.79873   0.01028   0.00000  Uiso   1.00
C673   C     0.48505   0.76337   0.02565   0.00000  Uiso   1.00
C674   C     0.56644   0.83358   0.44070   0.00000  Uiso   1.00
C675   C     0.45337   0.75087   0.00256   0.00000  Uiso   1.00
C676   C     0.59208   0.85425   0.46546   0.00000  Uiso   1.00
H677   H     0.49277   0.80166   0.10297   0.00000  Uiso   1.00
H678   H     0.50828   0.85614   0.39959   0.00000  Uiso   1.00
C679   C     0.54472   0.98090   0.24364   0.00000  Uiso   1.00
C680   C     0.45962   0.68490   0.24688   0.00000  Uiso   1.00
C681   C     0.53562   0.68853   0.25977   0.00000  Uiso   1.00
C682   C     0.46957   0.97743   0.22928   0.00000  Uiso   1.00
C683   C     0.49551   0.70825   0.25697   0.00000  Uiso   1.00
C684   C     0.50809   0.95733   0.23523   0.00000  Uiso   1.00
C685   C     0.65227   0.80613   0.22117   0.00000  Uiso   1.00
C686   C     0.34718   0.86042   0.27910   0.00000  Uiso   1.00
C687   C     0.36696   0.80634   0.22088   0.00000  Uiso   1.00
C688   C     0.63285   0.86081   0.27863   0.00000  Uiso   1.00
N689   N     0.38093   0.83334   0.25001   0.00000  Uiso   1.00
N690   N     0.61907   0.83332   0.24999   0.00000  Uiso   1.00
I691   I     0.42957   0.68690   0.00726   0.00000  Uiso   1.00
I692   I     0.62203   0.91341   0.43889   0.00000  Uiso   1.00
I693   I     0.63473   0.89115   0.12172   0.00000  Uiso   1.00
I694   I     0.36300   0.77655   0.37862   0.00000  Uiso   1.00
I695   I     0.34057   0.74918   0.49539   0.00000  Uiso   1.00
I696   I     0.35435   0.87406   0.00029   0.00000  Uiso   1.00
N697   N     0.49115   0.73702   0.05917   0.00000  Uiso   1.00
H698   H     0.46137   0.72010   0.07904   0.00000  Uiso   1.00
C699   C     0.53618   0.71478   0.04491   0.00000  Uiso   1.00
H700   H     0.55209   0.71984   0.07223   0.00000  Uiso   1.00
H701   H     0.56263   0.72545   0.01101   0.00000  Uiso   1.00
H702   H     0.52949   0.68087   0.04100   0.00000  Uiso   1.00
N703   N     0.58782   0.82988   0.39067   0.00000  Uiso   1.00
H704   H     0.62131   0.84377   0.37685   0.00000  Uiso   1.00
C705   C     0.58699   0.78880   0.36922   0.00000  Uiso   1.00
H706   H     0.61745   0.78574   0.33495   0.00000  Uiso   1.00
H707   H     0.55362   0.78386   0.36192   0.00000  Uiso   1.00
H708   H     0.58996   0.76409   0.39216   0.00000  Uiso   1.00
I709   I     0.61787   0.96159   0.22152   0.00000  Uiso   1.00
I710   I     0.38557   0.70279   0.27601   0.00000  Uiso   1.00
N711   N     0.56197   0.70793   0.28577   0.00000  Uiso   1.00
H712   H     0.59886   0.70512   0.27094   0.00000  Uiso   1.00
C713   C     0.54265   0.69784   0.33481   0.00000  Uiso   1.00
H714   H     0.56841   0.70768   0.35171   0.00000  Uiso   1.00
H715   H     0.53687   0.99699   0.33880   0.00000  Uiso   1.00
H716   H     0.50785   0.71401   0.35298   0.00000  Uiso   1.00
N717   N     0.44118   0.95646   0.20599   0.00000  Uiso   1.00
H718   H     0.41051   0.97152   0.20792   0.00000  Uiso   1.00
C719   C     0.46798   0.94179   0.15833   0.00000  Uiso   1.00
H720   H     0.48357   0.96869   0.13580   0.00000  Uiso   1.00
H721   H     0.44343   0.92404   0.14429   0.00000  Uiso   1.00
H722   H     0.49741   0.92076   0.15681   0.00000  Uiso   1.00
N723   N     0.63713   0.77569   0.19409   0.00000  Uiso   1.00
H724   H     0.63951   0.74545   0.20284   0.00000  Uiso   1.00
C725   C     0.65382   0.78100   0.14390   0.00000  Uiso   1.00
H726   H     0.34328   0.75434   0.12475   0.00000  Uiso   1.00
H727   H     0.34204   0.81012   0.13349   0.00000  Uiso   1.00
H728   H     0.62249   0.78141   0.13278   0.00000  Uiso   1.00
N729   N     0.35834   0.88597   0.31286   0.00000  Uiso   1.00
H730   H     0.37071   0.87286   0.33608   0.00000  Uiso   1.00
C731   C     0.36305   0.93053   0.30783   0.00000  Uiso   1.00
H732   H     0.39916   0.94116   0.30642   0.00000  Uiso   1.00
H733   H     0.33615   0.94645   0.33879   0.00000  Uiso   1.00
H734   H     0.35713   0.93967   0.27600   0.00000  Uiso   1.00
I735   I     0.41597   0.76355   0.17386   0.00000  Uiso   1.00
I736   I     0.58218   0.90333   0.32617   0.00000  Uiso   1.00
O737   O     0.79512   0.89442   0.25000   0.00000  Uiso   1.00
O738   O     0.87154   0.77225   0.24999   0.00000  Uiso   1.00
O739   O     0.87157   0.89441   0.25000   0.00000  Uiso   1.00
O740   O     0.79510   0.77226   0.25000   0.00000  Uiso   1.00
C741   C     0.83636   0.91297   0.24413   0.00000  Uiso   1.00
C742   C     0.83107   0.75329   0.25403   0.00000  Uiso   1.00
O743   O     0.77328   0.83334   0.31612   0.00000  Uiso   1.00
O744   O     0.89339   0.83333   0.18387   0.00000  Uiso   1.00
O745   O     0.84972   0.83333   0.31612   0.00000  Uiso   1.00
O746   O     0.81695   0.83334   0.18388   0.00000  Uiso   1.00
C747   C     0.80308   0.83114   0.33831   0.00000  Uiso   1.00
C748   C     0.86388   0.83459   0.16170   0.00000  Uiso   1.00
Zn749  Zn    0.78229   0.83334   0.25000   0.00000  Uiso   1.00
Zn750  Zn    0.88438   0.83333   0.25000   0.00000  Uiso   1.00
C751   C     0.78607   0.81975   0.38837   0.00000  Uiso   1.00
C752   C     0.88456   0.83678   0.10999   0.00000  Uiso   1.00
C753   C     0.74335   0.77267   0.45160   0.00000  Uiso   1.00
C754   C     0.94582   0.85935   0.03665   0.00000  Uiso   1.00
C755   C     0.74755   0.79170   0.40948   0.00000  Uiso   1.00
C756   C     0.92868   0.85756   0.08582   0.00000  Uiso   1.00
C757   C     0.81640   0.83074   0.41229   0.00000  Uiso   1.00
C758   C     0.85993   0.81653   0.08427   0.00000  Uiso   1.00
C759   C     0.81851   0.80660   0.44833   0.00000  Uiso   1.00
C760   C     0.87608   0.81816   0.03543   0.00000  Uiso   1.00
C761   C     0.78195   0.77649   0.46814   0.00000  Uiso   1.00
C762   C     0.91632   0.84423   0.01219   0.00000  Uiso   1.00
C763   C     0.85593   0.81301   0.46583   0.00000  Uiso   1.00
C764   C     0.84910   0.79873   0.01028   0.00000  Uiso   1.00
C765   C     0.81839   0.76337   0.02565   0.00000  Uiso   1.00
C766   C     0.89977   0.83358   0.44070   0.00000  Uiso   1.00
C767   C     0.78671   0.75087   0.00256   0.00000  Uiso   1.00
C768   C     0.92541   0.85425   0.46546   0.00000  Uiso   1.00
H769   H     0.82610   0.80166   0.10297   0.00000  Uiso   1.00
H770   H     0.84161   0.85614   0.39959   0.00000  Uiso   1.00
C771   C     0.87806   0.98090   0.24364   0.00000  Uiso   1.00
C772   C     0.79296   0.68490   0.24688   0.00000  Uiso   1.00
C773   C     0.86896   0.68853   0.25977   0.00000  Uiso   1.00
C774   C     0.80290   0.97743   0.22928   0.00000  Uiso   1.00
C775   C     0.82884   0.70825   0.25697   0.00000  Uiso   1.00
C776   C     0.84143   0.95733   0.23523   0.00000  Uiso   1.00
C777   C     0.98560   0.80613   0.22117   0.00000  Uiso   1.00
C778   C     0.68052   0.86042   0.27910   0.00000  Uiso   1.00
C779   C     0.70029   0.80634   0.22088   0.00000  Uiso   1.00
C780   C     0.96618   0.86081   0.27863   0.00000  Uiso   1.00
N781   N     0.71426   0.83334   0.25001   0.00000  Uiso   1.00
N782   N     0.95241   0.83332   0.24999   0.00000  Uiso   1.00
I783   I     0.76290   0.68690   0.00726   0.00000  Uiso   1.00
I784   I     0.95536   0.91341   0.43889   0.00000  Uiso   1.00
I785   I     0.96807   0.89115   0.12172   0.00000  Uiso   1.00
I786   I     0.69633   0.77655   0.37862   0.00000  Uiso   1.00
I787   I     0.67390   0.74918   0.49539   0.00000  Uiso   1.00
I788   I     0.68768   0.87406   0.00029   0.00000  Uiso   1.00
N789   N     0.82448   0.73702   0.05917   0.00000  Uiso   1.00
H790   H     0.79471   0.72010   0.07904   0.00000  Uiso   1.00
C791   C     0.86952   0.71478   0.04491   0.00000  Uiso   1.00
H792   H     0.88542   0.71984   0.07223   0.00000  Uiso   1.00
H793   H     0.89596   0.72545   0.01101   0.00000  Uiso   1.00
H794   H     0.86282   0.68087   0.04100   0.00000  Uiso   1.00
N795   N     0.92115   0.82988   0.39067   0.00000  Uiso   1.00
H796   H     0.95465   0.84377   0.37685   0.00000  Uiso   1.00
C797   C     0.92032   0.78880   0.36922   0.00000  Uiso   1.00
H798   H     0.95078   0.78574   0.33495   0.00000  Uiso   1.00
H799   H     0.88695   0.78386   0.36192   0.00000  Uiso   1.00
H800   H     0.92329   0.76409   0.39216   0.00000  Uiso   1.00
I801   I     0.95120   0.96159   0.22152   0.00000  Uiso   1.00
I802   I     0.71891   0.70279   0.27601   0.00000  Uiso   1.00
N803   N     0.89530   0.70793   0.28577   0.00000  Uiso   1.00
H804   H     0.93220   0.70512   0.27094   0.00000  Uiso   1.00
C805   C     0.87598   0.69784   0.33481   0.00000  Uiso   1.00
H806   H     0.90175   0.70768   0.35171   0.00000  Uiso   1.00
H807   H     0.87020   0.99699   0.33880   0.00000  Uiso   1.00
H808   H     0.84118   0.71401   0.35298   0.00000  Uiso   1.00
N809   N     0.77451   0.95646   0.20599   0.00000  Uiso   1.00
H810   H     0.74384   0.97152   0.20792   0.00000  Uiso   1.00
C811   C     0.80131   0.94179   0.15833   0.00000  Uiso   1.00
H812   H     0.81690   0.96869   0.13580   0.00000  Uiso   1.00
H813   H     0.77676   0.92404   0.14429   0.00000  Uiso   1.00
H814   H     0.83074   0.92076   0.15681   0.00000  Uiso   1.00
N815   N     0.97047   0.77569   0.19409   0.00000  Uiso   1.00
H816   H     0.97285   0.74545   0.20284   0.00000  Uiso   1.00
C817   C     0.98716   0.78100   0.14390   0.00000  Uiso   1.00
H818   H     0.67661   0.75434   0.12475   0.00000  Uiso   1.00
H819   H     0.67538   0.81012   0.13349   0.00000  Uiso   1.00
H820   H     0.95582   0.78141   0.13278   0.00000  Uiso   1.00
N821   N     0.69168   0.88597   0.31286   0.00000  Uiso   1.00
H822   H     0.70404   0.87286   0.33608   0.00000  Uiso   1.00
C823   C     0.69638   0.93053   0.30783   0.00000  Uiso   1.00
H824   H     0.73249   0.94116   0.30642   0.00000  Uiso   1.00
H825   H     0.66948   0.94645   0.33879   0.00000  Uiso   1.00
H826   H     0.69046   0.93967   0.27600   0.00000  Uiso   1.00
I827   I     0.74930   0.76355   0.17386   0.00000  Uiso   1.00
I828   I     0.91551   0.90333   0.32617   0.00000  Uiso   1.00
O829   O     0.12846   0.22775   0.75000   0.00000  Uiso   1.00
O830   O     0.20488   0.10558   0.74999   0.00000  Uiso   1.00
O831   O     0.20490   0.22774   0.75000   0.00000  Uiso   1.00
O832   O     0.12843   0.10559   0.75000   0.00000  Uiso   1.00
C833   C     0.16969   0.24630   0.74413   0.00000  Uiso   1.00
C834   C     0.16441   0.08663   0.75403   0.00000  Uiso   1.00
O835   O     0.10661   0.16667   0.81612   0.00000  Uiso   1.00
O836   O     0.22672   0.16666   0.68387   0.00000  Uiso   1.00
O837   O     0.18305   0.16666   0.81612   0.00000  Uiso   1.00
O838   O     0.15028   0.16667   0.68388   0.00000  Uiso   1.00
C839   C     0.13641   0.16447   0.83831   0.00000  Uiso   1.00
C840   C     0.19721   0.16793   0.66170   0.00000  Uiso   1.00
Zn841  Zn    0.11562   0.16667   0.75000   0.00000  Uiso   1.00
Zn842  Zn    0.21771   0.16666   0.75000   0.00000  Uiso   1.00
C843   C     0.11940   0.15308   0.88837   0.00000  Uiso   1.00
C844   C     0.21789   0.17011   0.60999   0.00000  Uiso   1.00
C845   C     0.07668   0.10600   0.95160   0.00000  Uiso   1.00
C846   C     0.27915   0.19268   0.53665   0.00000  Uiso   1.00
C847   C     0.08089   0.12503   0.90948   0.00000  Uiso   1.00
C848   C     0.26201   0.19089   0.58582   0.00000  Uiso   1.00
C849   C     0.14973   0.16408   0.91229   0.00000  Uiso   1.00
C850   C     0.19326   0.14986   0.58427   0.00000  Uiso   1.00
C851   C     0.15184   0.13993   0.94833   0.00000  Uiso   1.00
C852   C     0.20941   0.15149   0.53543   0.00000  Uiso   1.00
C853   C     0.11528   0.10982   0.96814   0.00000  Uiso   1.00
C854   C     0.24965   0.17756   0.51219   0.00000  Uiso   1.00
C855   C     0.18926   0.14635   0.96583   0.00000  Uiso   1.00
C856   C     0.18243   0.13206   0.51028   0.00000  Uiso   1.00
C857   C     0.15172   0.09670   0.52565   0.00000  Uiso   1.00
C858   C     0.23311   0.16691   0.94070   0.00000  Uiso   1.00
C859   C     0.12004   0.08420   0.50256   0.00000  Uiso   1.00
C860   C     0.25874   0.18759   0.96546   0.00000  Uiso   1.00
H861   H     0.15944   0.13499   0.60297   0.00000  Uiso   1.00
H862   H     0.17494   0.18947   0.89959   0.00000  Uiso   1.00
C863   C     0.21139   0.31423   0.74364   0.00000  Uiso   1.00
C864   C     0.12629   0.01823   0.74688   0.00000  Uiso   1.00
C865   C     0.20229   0.02186   0.75977   0.00000  Uiso   1.00
C866   C     0.13624   0.31076   0.72928   0.00000  Uiso   1.00
C867   C     0.16217   0.04158   0.75697   0.00000  Uiso   1.00
C868   C     0.17476   0.29067   0.73523   0.00000  Uiso   1.00
C869   C     0.31893   0.13946   0.72117   0.00000  Uiso   1.00
C870   C     0.01385   0.19376   0.77910   0.00000  Uiso   1.00
C871   C     0.03362   0.13968   0.72088   0.00000  Uiso   1.00
C872   C     0.29951   0.19415   0.77863   0.00000  Uiso   1.00
N873   N     0.04759   0.16668   0.75001   0.00000  Uiso   1.00
N874   N     0.28574   0.16666   0.74999   0.00000  Uiso   1.00
I875   I     0.09624   0.02023   0.50726   0.00000  Uiso   1.00
I876   I     0.28869   0.24675   0.93889   0.00000  Uiso   1.00
I877   I     0.30140   0.22448   0.62172   0.00000  Uiso   1.00
I878   I     0.02967   0.10988   0.87862   0.00000  Uiso   1.00
I879   I     0.00724   0.08251   0.99539   0.00000  Uiso   1.00
I880   I     0.02102   0.20740   0.50029   0.00000  Uiso   1.00
N881   N     0.15781   0.07035   0.55917   0.00000  Uiso   1.00
H882   H     0.12804   0.05343   0.57904   0.00000  Uiso   1.00
C883   C     0.20285   0.04812   0.54491   0.00000  Uiso   1.00
H884   H     0.21876   0.05318   0.57223   0.00000  Uiso   1.00
H885   H     0.22929   0.05879   0.51101   0.00000  Uiso   1.00
H886   H     0.19616   0.01421   0.54100   0.00000  Uiso   1.00
N887   N     0.25448   0.16322   0.89067   0.00000  Uiso   1.00
H888   H     0.28798   0.17710   0.87685   0.00000  Uiso   1.00
C889   C     0.25366   0.12213   0.86922   0.00000  Uiso   1.00
H890   H     0.28411   0.11907   0.83495   0.00000  Uiso   1.00
H891   H     0.22028   0.11720   0.86192   0.00000  Uiso   1.00
H892   H     0.25662   0.09742   0.89216   0.00000  Uiso   1.00
I893   I     0.28453   0.29492   0.72152   0.00000  Uiso   1.00
I894   I     0.05224   0.03612   0.77601   0.00000  Uiso   1.00
N895   N     0.22864   0.04126   0.78577   0.00000  Uiso   1.00
H896   H     0.26553   0.03846   0.77094   0.00000  Uiso   1.00
C897   C     0.20931   0.03117   0.83481   0.00000  Uiso   1.00
H898   H     0.23508   0.04101   0.85171   0.00000  Uiso   1.00
H899   H     0.20354   0.33033   0.83880   0.00000  Uiso   1.00
H900   H     0.17451   0.04735   0.85298   0.00000  Uiso   1.00
N901   N     0.10784   0.28979   0.70599   0.00000  Uiso   1.00
H902   H     0.07718   0.30485   0.70792   0.00000  Uiso   1.00
C903   C     0.13465   0.27512   0.65833   0.00000  Uiso   1.00
H904   H     0.15024   0.30202   0.63580   0.00000  Uiso   1.00
H905   H     0.11010   0.25737   0.64429   0.00000  Uiso   1.00
H906   H     0.16407   0.25410   0.65681   0.00000  Uiso   1.00
N907   N     0.30380   0.10902   0.69409   0.00000  Uiso   1.00
H908   H     0.30618   0.07879   0.70284   0.00000  Uiso   1.00
C909   C     0.32049   0.11433   0.64390   0.00000  Uiso   1.00
H910   H     0.00995   0.08768   0.62475   0.00000  Uiso   1.00
H911   H     0.00871   0.14345   0.63349   0.00000  Uiso   1.00
H912   H     0.28916   0.11474   0.63278   0.00000  Uiso   1.00
N913   N     0.02501   0.21931   0.81286   0.00000  Uiso   1.00
H914   H     0.03737   0.20620   0.83608   0.00000  Uiso   1.00
C915   C     0.02972   0.26386   0.80783   0.00000  Uiso   1.00
H916   H     0.06583   0.27449   0.80642   0.00000  Uiso   1.00
H917   H     0.00282   0.27979   0.83879   0.00000  Uiso   1.00
H918   H     0.02379   0.27301   0.77600   0.00000  Uiso   1.00
I919   I     0.08263   0.09688   0.67386   0.00000  Uiso   1.00
I920   I     0.24884   0.23667   0.82617   0.00000  Uiso   1.00
O921   O     0.46179   0.22775   0.75000   0.00000  Uiso   1.00
O922   O     0.53821   0.10558   0.74999   0.00000  Uiso   1.00
O923   O     0.53823   0.22774   0.75000   0.00000  Uiso   1.00
O924   O     0.46177   0.10559   0.75000   0.00000  Uiso   1.00
C925   C     0.50303   0.24630   0.74413   0.00000  Uiso   1.00
C926   C     0.49774   0.08663   0.75403   0.00000  Uiso   1.00
O927   O     0.43994   0.16667   0.81612   0.00000  Uiso   1.00
O928   O     0.56006   0.16666   0.68387   0.00000  Uiso   1.00
O929   O     0.51639   0.16666   0.81612   0.00000  Uiso   1.00
O930   O     0.48361   0.16667   0.68388   0.00000  Uiso   1.00
C931   C     0.46974   0.16447   0.83831   0.00000  Uiso   1.00
C932   C     0.53054   0.16793   0.66170   0.00000  Uiso   1.00
Zn933  Zn    0.44896   0.16667   0.75000   0.00000  Uiso   1.00
Zn934  Zn    0.55104   0.16666   0.75000   0.00000  Uiso   1.00
C935   C     0.45273   0.15308   0.88837   0.00000  Uiso   1.00
C936   C     0.55122   0.17011   0.60999   0.00000  Uiso   1.00
C937   C     0.41002   0.10600   0.95160   0.00000  Uiso   1.00
C938   C     0.61249   0.19268   0.53665   0.00000  Uiso   1.00
C939   C     0.41422   0.12503   0.90948   0.00000  Uiso   1.00
C940   C     0.59534   0.19089   0.58582   0.00000  Uiso   1.00
C941   C     0.48307   0.16408   0.91229   0.00000  Uiso   1.00
C942   C     0.52660   0.14986   0.58427   0.00000  Uiso   1.00
C943   C     0.48518   0.13993   0.94833   0.00000  Uiso   1.00
C944   C     0.54275   0.15149   0.53543   0.00000  Uiso   1.00
C945   C     0.44861   0.10982   0.96814   0.00000  Uiso   1.00
C946   C     0.58299   0.17756   0.51219   0.00000  Uiso   1.00
C947   C     0.52260   0.14635   0.96583   0.00000  Uiso   1.00
C948   C     0.51576   0.13206   0.51028   0.00000  Uiso   1.00
C949   C     0.48505   0.09670   0.52565   0.00000  Uiso   1.00
C950   C     0.56644   0.16691   0.94070   0.00000  Uiso   1.00
C951   C     0.45337   0.08420   0.50256   0.00000  Uiso   1.00
C952   C     0.59208   0.18759   0.96546   0.00000  Uiso   1.00
H953   H     0.49277   0.13499   0.60297   0.00000  Uiso   1.00
H954   H     0.50828   0.18947   0.89959   0.00000  Uiso   1.00
C955   C     0.54472   0.31423   0.74364   0.00000  Uiso   1.00
C956   C     0.45962   0.01823   0.74688   0.00000  Uiso   1.00
C957   C     0.53562   0.02186   0.75977   0.00000  Uiso   1.00
C958   C     0.46957   0.31076   0.72928   0.00000  Uiso   1.00
C959   C     0.49551   0.04158   0.75697   0.00000  Uiso   1.00
C960   C     0.50809   0.29067   0.73523   0.00000  Uiso   1.00
C961   C     0.65227   0.13946   0.72117   0.00000  Uiso   1.00
C962   C     0.34718   0.19376   0.77910   0.00000  Uiso   1.00
C963   C     0.36696   0.13968   0.72088   0.00000  Uiso   1.00
C964   C     0.63285   0.19415   0.77863   0.00000  Uiso   1.00
N965   N     0.38093   0.16668   0.75001   0.00000  Uiso   1.00
N966   N     0.61907   0.16666   0.74999   0.00000  Uiso   1.00
I967   I     0.42957   0.02023   0.50726   0.00000  Uiso   1.00
I968   I     0.62203   0.24675   0.93889   0.00000  Uiso   1.00
I969   I     0.63473   0.22448   0.62172   0.00000  Uiso   1.00
I970   I     0.36300   0.10988   0.87862   0.00000  Uiso   1.00
I971   I     0.34057   0.08251   0.99539   0.00000  Uiso   1.00
I972   I     0.35435   0.20740   0.50029   0.00000  Uiso   1.00
N973   N     0.49115   0.07035   0.55917   0.00000  Uiso   1.00
H974   H     0.46137   0.05343   0.57904   0.00000  Uiso   1.00
C975   C     0.53618   0.04812   0.54491   0.00000  Uiso   1.00
H976   H     0.55209   0.05318   0.57223   0.00000  Uiso   1.00
H977   H     0.56263   0.05879   0.51101   0.00000  Uiso   1.00
H978   H     0.52949   0.01421   0.54100   0.00000  Uiso   1.00
N979   N     0.58782   0.16322   0.89067   0.00000  Uiso   1.00
H980   H     0.62131   0.17710   0.87685   0.00000  Uiso   1.00
C981   C     0.58699   0.12213   0.86922   0.00000  Uiso   1.00
H982   H     0.61745   0.11907   0.83495   0.00000  Uiso   1.00
H983   H     0.55362   0.11720   0.86192   0.00000  Uiso   1.00
H984   H     0.58996   0.09742   0.89216   0.00000  Uiso   1.00
I985   I     0.61787   0.29492   0.72152   0.00000  Uiso   1.00
I986   I     0.38557   0.03612   0.77601   0.00000  Uiso   1.00
N987   N     0.56197   0.04126   0.78577   0.00000  Uiso   1.00
H988   H     0.59886   0.03846   0.77094   0.00000  Uiso   1.00
C989   C     0.54265   0.03117   0.83481   0.00000  Uiso   1.00
H990   H     0.56841   0.04101   0.85171   0.00000  Uiso   1.00
H991   H     0.53687   0.33033   0.83880   0.00000  Uiso   1.00
H992   H     0.50785   0.04735   0.85298   0.00000  Uiso   1.00
N993   N     0.44118   0.28979   0.70599   0.00000  Uiso   1.00
H994   H     0.41051   0.30485   0.70792   0.00000  Uiso   1.00
C995   C     0.46798   0.27512   0.65833   0.00000  Uiso   1.00
H996   H     0.48357   0.30202   0.63580   0.00000  Uiso   1.00
H997   H     0.44343   0.25737   0.64429   0.00000  Uiso   1.00
H998   H     0.49741   0.25410   0.65681   0.00000  Uiso   1.00
N999   N     0.63713   0.10902   0.69409   0.00000  Uiso   1.00
H1000  H     0.63951   0.07879   0.70284   0.00000  Uiso   1.00
C1001  C     0.65382   0.11433   0.64390   0.00000  Uiso   1.00
H1002  H     0.34328   0.08768   0.62475   0.00000  Uiso   1.00
H1003  H     0.34204   0.14345   0.63349   0.00000  Uiso   1.00
H1004  H     0.62249   0.11474   0.63278   0.00000  Uiso   1.00
N1005  N     0.35834   0.21931   0.81286   0.00000  Uiso   1.00
H1006  H     0.37071   0.20620   0.83608   0.00000  Uiso   1.00
C1007  C     0.36305   0.26386   0.80783   0.00000  Uiso   1.00
H1008  H     0.39916   0.27449   0.80642   0.00000  Uiso   1.00
H1009  H     0.33615   0.27979   0.83879   0.00000  Uiso   1.00
H1010  H     0.35713   0.27301   0.77600   0.00000  Uiso   1.00
I1011  I     0.41597   0.09688   0.67386   0.00000  Uiso   1.00
I1012  I     0.58218   0.23667   0.82617   0.00000  Uiso   1.00
O1013  O     0.79512   0.22775   0.75000   0.00000  Uiso   1.00
O1014  O     0.87154   0.10558   0.74999   0.00000  Uiso   1.00
O1015  O     0.87157   0.22774   0.75000   0.00000  Uiso   1.00
O1016  O     0.79510   0.10559   0.75000   0.00000  Uiso   1.00
C1017  C     0.83636   0.24630   0.74413   0.00000  Uiso   1.00
C1018  C     0.83107   0.08663   0.75403   0.00000  Uiso   1.00
O1019  O     0.77328   0.16667   0.81612   0.00000  Uiso   1.00
O1020  O     0.89339   0.16666   0.68387   0.00000  Uiso   1.00
O1021  O     0.84972   0.16666   0.81612   0.00000  Uiso   1.00
O1022  O     0.81695   0.16667   0.68388   0.00000  Uiso   1.00
C1023  C     0.80308   0.16447   0.83831   0.00000  Uiso   1.00
C1024  C     0.86388   0.16793   0.66170   0.00000  Uiso   1.00
Zn1025 Zn    0.78229   0.16667   0.75000   0.00000  Uiso   1.00
Zn1026 Zn    0.88438   0.16666   0.75000   0.00000  Uiso   1.00
C1027  C     0.78607   0.15308   0.88837   0.00000  Uiso   1.00
C1028  C     0.88456   0.17011   0.60999   0.00000  Uiso   1.00
C1029  C     0.74335   0.10600   0.95160   0.00000  Uiso   1.00
C1030  C     0.94582   0.19268   0.53665   0.00000  Uiso   1.00
C1031  C     0.74755   0.12503   0.90948   0.00000  Uiso   1.00
C1032  C     0.92868   0.19089   0.58582   0.00000  Uiso   1.00
C1033  C     0.81640   0.16408   0.91229   0.00000  Uiso   1.00
C1034  C     0.85993   0.14986   0.58427   0.00000  Uiso   1.00
C1035  C     0.81851   0.13993   0.94833   0.00000  Uiso   1.00
C1036  C     0.87608   0.15149   0.53543   0.00000  Uiso   1.00
C1037  C     0.78195   0.10982   0.96814   0.00000  Uiso   1.00
C1038  C     0.91632   0.17756   0.51219   0.00000  Uiso   1.00
C1039  C     0.85593   0.14635   0.96583   0.00000  Uiso   1.00
C1040  C     0.84910   0.13206   0.51028   0.00000  Uiso   1.00
C1041  C     0.81839   0.09670   0.52565   0.00000  Uiso   1.00
C1042  C     0.89977   0.16691   0.94070   0.00000  Uiso   1.00
C1043  C     0.78671   0.08420   0.50256   0.00000  Uiso   1.00
C1044  C     0.92541   0.18759   0.96546   0.00000  Uiso   1.00
H1045  H     0.82610   0.13499   0.60297   0.00000  Uiso   1.00
H1046  H     0.84161   0.18947   0.89959   0.00000  Uiso   1.00
C1047  C     0.87806   0.31423   0.74364   0.00000  Uiso   1.00
C1048  C     0.79296   0.01823   0.74688   0.00000  Uiso   1.00
C1049  C     0.86896   0.02186   0.75977   0.00000  Uiso   1.00
C1050  C     0.80290   0.31076   0.72928   0.00000  Uiso   1.00
C1051  C     0.82884   0.04158   0.75697   0.00000  Uiso   1.00
C1052  C     0.84143   0.29067   0.73523   0.00000  Uiso   1.00
C1053  C     0.98560   0.13946   0.72117   0.00000  Uiso   1.00
C1054  C     0.68052   0.19376   0.77910   0.00000  Uiso   1.00
C1055  C     0.70029   0.13968   0.72088   0.00000  Uiso   1.00
C1056  C     0.96618   0.19415   0.77863   0.00000  Uiso   1.00
N1057  N     0.71426   0.16668   0.75001   0.00000  Uiso   1.00
N1058  N     0.95241   0.16666   0.74999   0.00000  Uiso   1.00
I1059  I     0.76290   0.02023   0.50726   0.00000  Uiso   1.00
I1060  I     0.95536   0.24675   0.93889   0.00000  Uiso   1.00
I1061  I     0.96807   0.22448   0.62172   0.00000  Uiso   1.00
I1062  I     0.69633   0.10988   0.87862   0.00000  Uiso   1.00
I1063  I     0.67390   0.08251   0.99539   0.00000  Uiso   1.00
I1064  I     0.68768   0.20740   0.50029   0.00000  Uiso   1.00
N1065  N     0.82448   0.07035   0.55917   0.00000  Uiso   1.00
H1066  H     0.79471   0.05343   0.57904   0.00000  Uiso   1.00
C1067  C     0.86952   0.04812   0.54491   0.00000  Uiso   1.00
H1068  H     0.88542   0.05318   0.57223   0.00000  Uiso   1.00
H1069  H     0.89596   0.05879   0.51101   0.00000  Uiso   1.00
H1070  H     0.86282   0.01421   0.54100   0.00000  Uiso   1.00
N1071  N     0.92115   0.16322   0.89067   0.00000  Uiso   1.00
H1072  H     0.95465   0.17710   0.87685   0.00000  Uiso   1.00
C1073  C     0.92032   0.12213   0.86922   0.00000  Uiso   1.00
H1074  H     0.95078   0.11907   0.83495   0.00000  Uiso   1.00
H1075  H     0.88695   0.11720   0.86192   0.00000  Uiso   1.00
H1076  H     0.92329   0.09742   0.89216   0.00000  Uiso   1.00
I1077  I     0.95120   0.29492   0.72152   0.00000  Uiso   1.00
I1078  I     0.71891   0.03612   0.77601   0.00000  Uiso   1.00
N1079  N     0.89530   0.04126   0.78577   0.00000  Uiso   1.00
H1080  H     0.93220   0.03846   0.77094   0.00000  Uiso   1.00
C1081  C     0.87598   0.03117   0.83481   0.00000  Uiso   1.00
H1082  H     0.90175   0.04101   0.85171   0.00000  Uiso   1.00
H1083  H     0.87020   0.33033   0.83880   0.00000  Uiso   1.00
H1084  H     0.84118   0.04735   0.85298   0.00000  Uiso   1.00
N1085  N     0.77451   0.28979   0.70599   0.00000  Uiso   1.00
H1086  H     0.74384   0.30485   0.70792   0.00000  Uiso   1.00
C1087  C     0.80131   0.27512   0.65833   0.00000  Uiso   1.00
H1088  H     0.81690   0.30202   0.63580   0.00000  Uiso   1.00
H1089  H     0.77676   0.25737   0.64429   0.00000  Uiso   1.00
H1090  H     0.83074   0.25410   0.65681   0.00000  Uiso   1.00
N1091  N     0.97047   0.10902   0.69409   0.00000  Uiso   1.00
H1092  H     0.97285   0.07879   0.70284   0.00000  Uiso   1.00
C1093  C     0.98716   0.11433   0.64390   0.00000  Uiso   1.00
H1094  H     0.67661   0.08768   0.62475   0.00000  Uiso   1.00
H1095  H     0.67538   0.14345   0.63349   0.00000  Uiso   1.00
H1096  H     0.95582   0.11474   0.63278   0.00000  Uiso   1.00
N1097  N     0.69168   0.21931   0.81286   0.00000  Uiso   1.00
H1098  H     0.70404   0.20620   0.83608   0.00000  Uiso   1.00
C1099  C     0.69638   0.26386   0.80783   0.00000  Uiso   1.00
H1100  H     0.73249   0.27449   0.80642   0.00000  Uiso   1.00
H1101  H     0.66948   0.27979   0.83879   0.00000  Uiso   1.00
H1102  H     0.69046   0.27301   0.77600   0.00000  Uiso   1.00
I1103  I     0.74930   0.09688   0.67386   0.00000  Uiso   1.00
I1104  I     0.91551   0.23667   0.82617   0.00000  Uiso   1.00
O1105  O     0.12846   0.56108   0.75000   0.00000  Uiso   1.00
O1106  O     0.20488   0.43892   0.74999   0.00000  Uiso   1.00
O1107  O     0.20490   0.56107   0.75000   0.00000  Uiso   1.00
O1108  O     0.12843   0.43893   0.75000   0.00000  Uiso   1.00
C1109  C     0.16969   0.57963   0.74413   0.00000  Uiso   1.00
C1110  C     0.16441   0.41996   0.75403   0.00000  Uiso   1.00
O1111  O     0.10661   0.50001   0.81612   0.00000  Uiso   1.00
O1112  O     0.22672   0.49999   0.68387   0.00000  Uiso   1.00
O1113  O     0.18305   0.50000   0.81612   0.00000  Uiso   1.00
O1114  O     0.15028   0.50000   0.68388   0.00000  Uiso   1.00
C1115  C     0.13641   0.49780   0.83831   0.00000  Uiso   1.00
C1116  C     0.19721   0.50126   0.66170   0.00000  Uiso   1.00
Zn1117 Zn    0.11562   0.50001   0.75000   0.00000  Uiso   1.00
Zn1118 Zn    0.21771   0.49999   0.75000   0.00000  Uiso   1.00
C1119  C     0.11940   0.48642   0.88837   0.00000  Uiso   1.00
C1120  C     0.21789   0.50344   0.60999   0.00000  Uiso   1.00
C1121  C     0.07668   0.43934   0.95160   0.00000  Uiso   1.00
C1122  C     0.27915   0.52602   0.53665   0.00000  Uiso   1.00
C1123  C     0.08089   0.45836   0.90948   0.00000  Uiso   1.00
C1124  C     0.26201   0.52423   0.58582   0.00000  Uiso   1.00
C1125  C     0.14973   0.49741   0.91229   0.00000  Uiso   1.00
C1126  C     0.19326   0.48319   0.58427   0.00000  Uiso   1.00
C1127  C     0.15184   0.47326   0.94833   0.00000  Uiso   1.00
C1128  C     0.20941   0.48483   0.53543   0.00000  Uiso   1.00
C1129  C     0.11528   0.44316   0.96814   0.00000  Uiso   1.00
C1130  C     0.24965   0.51089   0.51219   0.00000  Uiso   1.00
C1131  C     0.18926   0.47968   0.96583   0.00000  Uiso   1.00
C1132  C     0.18243   0.46539   0.51028   0.00000  Uiso   1.00
C1133  C     0.15172   0.43004   0.52565   0.00000  Uiso   1.00
C1134  C     0.23311   0.50025   0.94070   0.00000  Uiso   1.00
C1135  C     0.12004   0.41754   0.50256   0.00000  Uiso   1.00
C1136  C     0.25874   0.52092   0.96546   0.00000  Uiso   1.00
H1137  H     0.15944   0.46833   0.60297   0.00000  Uiso   1.00
H1138  H     0.17494   0.52281   0.89959   0.00000  Uiso   1.00
C1139  C     0.21139   0.64757   0.74364   0.00000  Uiso   1.00
C1140  C     0.12629   0.35157   0.74688   0.00000  Uiso   1.00
C1141  C     0.20229   0.35520   0.75977   0.00000  Uiso   1.00
C1142  C     0.13624   0.64410   0.72928   0.00000  Uiso   1.00
C1143  C     0.16217   0.37492   0.75697   0.00000  Uiso   1.00
C1144  C     0.17476   0.62400   0.73523   0.00000  Uiso   1.00
C1145  C     0.31893   0.47279   0.72117   0.00000  Uiso   1.00
C1146  C     0.01385   0.52709   0.77910   0.00000  Uiso   1.00
C1147  C     0.03362   0.47301   0.72088   0.00000  Uiso   1.00
C1148  C     0.29951   0.52748   0.77863   0.00000  Uiso   1.00
N1149  N     0.04759   0.50001   0.75001   0.00000  Uiso   1.00
N1150  N     0.28574   0.49999   0.74999   0.00000  Uiso   1.00
I1151  I     0.09624   0.35357   0.50726   0.00000  Uiso   1.00
I1152  I     0.28869   0.58008   0.93889   0.00000  Uiso   1.00
I1153  I     0.30140   0.55782   0.62172   0.00000  Uiso   1.00
I1154  I     0.02967   0.44321   0.87862   0.00000  Uiso   1.00
I1155  I     0.00724   0.41585   0.99539   0.00000  Uiso   1.00
I1156  I     0.02102   0.54073   0.50029   0.00000  Uiso   1.00
N1157  N     0.15781   0.40369   0.55917   0.00000  Uiso   1.00
H1158  H     0.12804   0.38676   0.57904   0.00000  Uiso   1.00
C1159  C     0.20285   0.38145   0.54491   0.00000  Uiso   1.00
H1160  H     0.21876   0.38651   0.57223   0.00000  Uiso   1.00
H1161  H     0.22929   0.39212   0.51101   0.00000  Uiso   1.00
H1162  H     0.19616   0.34754   0.54100   0.00000  Uiso   1.00
N1163  N     0.25448   0.49655   0.89067   0.00000  Uiso   1.00
H1164  H     0.28798   0.51043   0.87685   0.00000  Uiso   1.00
C1165  C     0.25366   0.45546   0.86922   0.00000  Uiso   1.00
H1166  H     0.28411   0.45240   0.83495   0.00000  Uiso   1.00
H1167  H     0.22028   0.45053   0.86192   0.00000  Uiso   1.00
H1168  H     0.25662   0.43076   0.89216   0.00000  Uiso   1.00
I1169  I     0.28453   0.62826   0.72152   0.00000  Uiso   1.00
I1170  I     0.05224   0.36946   0.77601   0.00000  Uiso   1.00
N1171  N     0.22864   0.37460   0.78577   0.00000  Uiso   1.00
H1172  H     0.26553   0.37179   0.77094   0.00000  Uiso   1.00
C1173  C     0.20931   0.36450   0.83481   0.00000  Uiso   1.00
H1174  H     0.23508   0.37434   0.85171   0.00000  Uiso   1.00
H1175  H     0.20354   0.66366   0.83880   0.00000  Uiso   1.00
H1176  H     0.17451   0.38068   0.85298   0.00000  Uiso   1.00
N1177  N     0.10784   0.62312   0.70599   0.00000  Uiso   1.00
H1178  H     0.07718   0.63818   0.70792   0.00000  Uiso   1.00
C1179  C     0.13465   0.60846   0.65833   0.00000  Uiso   1.00
H1180  H     0.15024   0.63535   0.63580   0.00000  Uiso   1.00
H1181  H     0.11010   0.59071   0.64429   0.00000  Uiso   1.00
H1182  H     0.16407   0.58743   0.65681   0.00000  Uiso   1.00
N1183  N     0.30380   0.44235   0.69409   0.00000  Uiso   1.00
H1184  H     0.30618   0.41212   0.70284   0.00000  Uiso   1.00
C1185  C     0.32049   0.44767   0.64390   0.00000  Uiso   1.00
H1186  H     0.00995   0.42101   0.62475   0.00000  Uiso   1.00
H1187  H     0.00871   0.47679   0.63349   0.00000  Uiso   1.00
H1188  H     0.28916   0.44808   0.63278   0.00000  Uiso   1.00
N1189  N     0.02501   0.55264   0.81286   0.00000  Uiso   1.00
H1190  H     0.03737   0.53953   0.83608   0.00000  Uiso   1.00
C1191  C     0.02972   0.59720   0.80783   0.00000  Uiso   1.00
H1192  H     0.06583   0.60782   0.80642   0.00000  Uiso   1.00
H1193  H     0.00282   0.61312   0.83879   0.00000  Uiso   1.00
H1194  H     0.02379   0.60634   0.77600   0.00000  Uiso   1.00
I1195  I     0.08263   0.43021   0.67386   0.00000  Uiso   1.00
I1196  I     0.24884   0.57000   0.82617   0.00000  Uiso   1.00
O1197  O     0.46179   0.56108   0.75000   0.00000  Uiso   1.00
O1198  O     0.53821   0.43892   0.74999   0.00000  Uiso   1.00
O1199  O     0.53823   0.56107   0.75000   0.00000  Uiso   1.00
O1200  O     0.46177   0.43893   0.75000   0.00000  Uiso   1.00
C1201  C     0.50303   0.57963   0.74413   0.00000  Uiso   1.00
C1202  C     0.49774   0.41996   0.75403   0.00000  Uiso   1.00
O1203  O     0.43994   0.50001   0.81612   0.00000  Uiso   1.00
O1204  O     0.56006   0.49999   0.68387   0.00000  Uiso   1.00
O1205  O     0.51639   0.50000   0.81612   0.00000  Uiso   1.00
O1206  O     0.48361   0.50000   0.68388   0.00000  Uiso   1.00
C1207  C     0.46974   0.49780   0.83831   0.00000  Uiso   1.00
C1208  C     0.53054   0.50126   0.66170   0.00000  Uiso   1.00
Zn1209 Zn    0.44896   0.50001   0.75000   0.00000  Uiso   1.00
Zn1210 Zn    0.55104   0.49999   0.75000   0.00000  Uiso   1.00
C1211  C     0.45273   0.48642   0.88837   0.00000  Uiso   1.00
C1212  C     0.55122   0.50344   0.60999   0.00000  Uiso   1.00
C1213  C     0.41002   0.43934   0.95160   0.00000  Uiso   1.00
C1214  C     0.61249   0.52602   0.53665   0.00000  Uiso   1.00
C1215  C     0.41422   0.45836   0.90948   0.00000  Uiso   1.00
C1216  C     0.59534   0.52423   0.58582   0.00000  Uiso   1.00
C1217  C     0.48307   0.49741   0.91229   0.00000  Uiso   1.00
C1218  C     0.52660   0.48319   0.58427   0.00000  Uiso   1.00
C1219  C     0.48518   0.47326   0.94833   0.00000  Uiso   1.00
C1220  C     0.54275   0.48483   0.53543   0.00000  Uiso   1.00
C1221  C     0.44861   0.44316   0.96814   0.00000  Uiso   1.00
C1222  C     0.58299   0.51089   0.51219   0.00000  Uiso   1.00
C1223  C     0.52260   0.47968   0.96583   0.00000  Uiso   1.00
C1224  C     0.51576   0.46539   0.51028   0.00000  Uiso   1.00
C1225  C     0.48505   0.43004   0.52565   0.00000  Uiso   1.00
C1226  C     0.56644   0.50025   0.94070   0.00000  Uiso   1.00
C1227  C     0.45337   0.41754   0.50256   0.00000  Uiso   1.00
C1228  C     0.59208   0.52092   0.96546   0.00000  Uiso   1.00
H1229  H     0.49277   0.46833   0.60297   0.00000  Uiso   1.00
H1230  H     0.50828   0.52281   0.89959   0.00000  Uiso   1.00
C1231  C     0.54472   0.64757   0.74364   0.00000  Uiso   1.00
C1232  C     0.45962   0.35157   0.74688   0.00000  Uiso   1.00
C1233  C     0.53562   0.35520   0.75977   0.00000  Uiso   1.00
C1234  C     0.46957   0.64410   0.72928   0.00000  Uiso   1.00
C1235  C     0.49551   0.37492   0.75697   0.00000  Uiso   1.00
C1236  C     0.50809   0.62400   0.73523   0.00000  Uiso   1.00
C1237  C     0.65227   0.47279   0.72117   0.00000  Uiso   1.00
C1238  C     0.34718   0.52709   0.77910   0.00000  Uiso   1.00
C1239  C     0.36696   0.47301   0.72088   0.00000  Uiso   1.00
C1240  C     0.63285   0.52748   0.77863   0.00000  Uiso   1.00
N1241  N     0.38093   0.50001   0.75001   0.00000  Uiso   1.00
N1242  N     0.61907   0.49999   0.74999   0.00000  Uiso   1.00
I1243  I     0.42957   0.35357   0.50726   0.00000  Uiso   1.00
I1244  I     0.62203   0.58008   0.93889   0.00000  Uiso   1.00
I1245  I     0.63473   0.55782   0.62172   0.00000  Uiso   1.00
I1246  I     0.36300   0.44321   0.87862   0.00000  Uiso   1.00
I1247  I     0.34057   0.41585   0.99539   0.00000  Uiso   1.00
I1248  I     0.35435   0.54073   0.50029   0.00000  Uiso   1.00
N1249  N     0.49115   0.40369   0.55917   0.00000  Uiso   1.00
H1250  H     0.46137   0.38676   0.57904   0.00000  Uiso   1.00
C1251  C     0.53618   0.38145   0.54491   0.00000  Uiso   1.00
H1252  H     0.55209   0.38651   0.57223   0.00000  Uiso   1.00
H1253  H     0.56263   0.39212   0.51101   0.00000  Uiso   1.00
H1254  H     0.52949   0.34754   0.54100   0.00000  Uiso   1.00
N1255  N     0.58782   0.49655   0.89067   0.00000  Uiso   1.00
H1256  H     0.62131   0.51043   0.87685   0.00000  Uiso   1.00
C1257  C     0.58699   0.45546   0.86922   0.00000  Uiso   1.00
H1258  H     0.61745   0.45240   0.83495   0.00000  Uiso   1.00
H1259  H     0.55362   0.45053   0.86192   0.00000  Uiso   1.00
H1260  H     0.58996   0.43076   0.89216   0.00000  Uiso   1.00
I1261  I     0.61787   0.62826   0.72152   0.00000  Uiso   1.00
I1262  I     0.38557   0.36946   0.77601   0.00000  Uiso   1.00
N1263  N     0.56197   0.37460   0.78577   0.00000  Uiso   1.00
H1264  H     0.59886   0.37179   0.77094   0.00000  Uiso   1.00
C1265  C     0.54265   0.36450   0.83481   0.00000  Uiso   1.00
H1266  H     0.56841   0.37434   0.85171   0.00000  Uiso   1.00
H1267  H     0.53687   0.66366   0.83880   0.00000  Uiso   1.00
H1268  H     0.50785   0.38068   0.85298   0.00000  Uiso   1.00
N1269  N     0.44118   0.62312   0.70599   0.00000  Uiso   1.00
H1270  H     0.41051   0.63818   0.70792   0.00000  Uiso   1.00
C1271  C     0.46798   0.60846   0.65833   0.00000  Uiso   1.00
H1272  H     0.48357   0.63535   0.63580   0.00000  Uiso   1.00
H1273  H     0.44343   0.59071   0.64429   0.00000  Uiso   1.00
H1274  H     0.49741   0.58743   0.65681   0.00000  Uiso   1.00
N1275  N     0.63713   0.44235   0.69409   0.00000  Uiso   1.00
H1276  H     0.63951   0.41212   0.70284   0.00000  Uiso   1.00
C1277  C     0.65382   0.44767   0.64390   0.00000  Uiso   1.00
H1278  H     0.34328   0.42101   0.62475   0.00000  Uiso   1.00
H1279  H     0.34204   0.47679   0.63349   0.00000  Uiso   1.00
H1280  H     0.62249   0.44808   0.63278   0.00000  Uiso   1.00
N1281  N     0.35834   0.55264   0.81286   0.00000  Uiso   1.00
H1282  H     0.37071   0.53953   0.83608   0.00000  Uiso   1.00
C1283  C     0.36305   0.59720   0.80783   0.00000  Uiso   1.00
H1284  H     0.39916   0.60782   0.80642   0.00000  Uiso   1.00
H1285  H     0.33615   0.61312   0.83879   0.00000  Uiso   1.00
H1286  H     0.35713   0.60634   0.77600   0.00000  Uiso   1.00
I1287  I     0.41597   0.43021   0.67386   0.00000  Uiso   1.00
I1288  I     0.58218   0.57000   0.82617   0.00000  Uiso   1.00
O1289  O     0.79512   0.56108   0.75000   0.00000  Uiso   1.00
O1290  O     0.87154   0.43892   0.74999   0.00000  Uiso   1.00
O1291  O     0.87157   0.56107   0.75000   0.00000  Uiso   1.00
O1292  O     0.79510   0.43893   0.75000   0.00000  Uiso   1.00
C1293  C     0.83636   0.57963   0.74413   0.00000  Uiso   1.00
C1294  C     0.83107   0.41996   0.75403   0.00000  Uiso   1.00
O1295  O     0.77328   0.50001   0.81612   0.00000  Uiso   1.00
O1296  O     0.89339   0.49999   0.68387   0.00000  Uiso   1.00
O1297  O     0.84972   0.50000   0.81612   0.00000  Uiso   1.00
O1298  O     0.81695   0.50000   0.68388   0.00000  Uiso   1.00
C1299  C     0.80308   0.49780   0.83831   0.00000  Uiso   1.00
C1300  C     0.86388   0.50126   0.66170   0.00000  Uiso   1.00
Zn1301 Zn    0.78229   0.50001   0.75000   0.00000  Uiso   1.00
Zn1302 Zn    0.88438   0.49999   0.75000   0.00000  Uiso   1.00
C1303  C     0.78607   0.48642   0.88837   0.00000  Uiso   1.00
C1304  C     0.88456   0.50344   0.60999   0.00000  Uiso   1.00
C1305  C     0.74335   0.43934   0.95160   0.00000  Uiso   1.00
C1306  C     0.94582   0.52602   0.53665   0.00000  Uiso   1.00
C1307  C     0.74755   0.45836   0.90948   0.00000  Uiso   1.00
C1308  C     0.92868   0.52423   0.58582   0.00000  Uiso   1.00
C1309  C     0.81640   0.49741   0.91229   0.00000  Uiso   1.00
C1310  C     0.85993   0.48319   0.58427   0.00000  Uiso   1.00
C1311  C     0.81851   0.47326   0.94833   0.00000  Uiso   1.00
C1312  C     0.87608   0.48483   0.53543   0.00000  Uiso   1.00
C1313  C     0.78195   0.44316   0.96814   0.00000  Uiso   1.00
C1314  C     0.91632   0.51089   0.51219   0.00000  Uiso   1.00
C1315  C     0.85593   0.47968   0.96583   0.00000  Uiso   1.00
C1316  C     0.84910   0.46539   0.51028   0.00000  Uiso   1.00
C1317  C     0.81839   0.43004   0.52565   0.00000  Uiso   1.00
C1318  C     0.89977   0.50025   0.94070   0.00000  Uiso   1.00
C1319  C     0.78671   0.41754   0.50256   0.00000  Uiso   1.00
C1320  C     0.92541   0.52092   0.96546   0.00000  Uiso   1.00
H1321  H     0.82610   0.46833   0.60297   0.00000  Uiso   1.00
H1322  H     0.84161   0.52281   0.89959   0.00000  Uiso   1.00
C1323  C     0.87806   0.64757   0.74364   0.00000  Uiso   1.00
C1324  C     0.79296   0.35157   0.74688   0.00000  Uiso   1.00
C1325  C     0.86896   0.35520   0.75977   0.00000  Uiso   1.00
C1326  C     0.80290   0.64410   0.72928   0.00000  Uiso   1.00
C1327  C     0.82884   0.37492   0.75697   0.00000  Uiso   1.00
C1328  C     0.84143   0.62400   0.73523   0.00000  Uiso   1.00
C1329  C     0.98560   0.47279   0.72117   0.00000  Uiso   1.00
C1330  C     0.68052   0.52709   0.77910   0.00000  Uiso   1.00
C1331  C     0.70029   0.47301   0.72088   0.00000  Uiso   1.00
C1332  C     0.96618   0.52748   0.77863   0.00000  Uiso   1.00
N1333  N     0.71426   0.50001   0.75001   0.00000  Uiso   1.00
N1334  N     0.95241   0.49999   0.74999   0.00000  Uiso   1.00
I1335  I     0.76290   0.35357   0.50726   0.00000  Uiso   1.00
I1336  I     0.95536   0.58008   0.93889   0.00000  Uiso   1.00
I1337  I     0.96807   0.55782   0.62172   0.00000  Uiso   1.00
I1338  I     0.69633   0.44321   0.87862   0.00000  Uiso   1.00
I1339  I     0.67390   0.41585   0.99539   0.00000  Uiso   1.00
I1340  I     0.68768   0.54073   0.50029   0.00000  Uiso   1.00
N1341  N     0.82448   0.40369   0.55917   0.00000  Uiso   1.00
H1342  H     0.79471   0.38676   0.57904   0.00000  Uiso   1.00
C1343  C     0.86952   0.38145   0.54491   0.00000  Uiso   1.00
H1344  H     0.88542   0.38651   0.57223   0.00000  Uiso   1.00
H1345  H     0.89596   0.39212   0.51101   0.00000  Uiso   1.00
H1346  H     0.86282   0.34754   0.54100   0.00000  Uiso   1.00
N1347  N     0.92115   0.49655   0.89067   0.00000  Uiso   1.00
H1348  H     0.95465   0.51043   0.87685   0.00000  Uiso   1.00
C1349  C     0.92032   0.45546   0.86922   0.00000  Uiso   1.00
H1350  H     0.95078   0.45240   0.83495   0.00000  Uiso   1.00
H1351  H     0.88695   0.45053   0.86192   0.00000  Uiso   1.00
H1352  H     0.92329   0.43076   0.89216   0.00000  Uiso   1.00
I1353  I     0.95120   0.62826   0.72152   0.00000  Uiso   1.00
I1354  I     0.71891   0.36946   0.77601   0.00000  Uiso   1.00
N1355  N     0.89530   0.37460   0.78577   0.00000  Uiso   1.00
H1356  H     0.93220   0.37179   0.77094   0.00000  Uiso   1.00
C1357  C     0.87598   0.36450   0.83481   0.00000  Uiso   1.00
H1358  H     0.90175   0.37434   0.85171   0.00000  Uiso   1.00
H1359  H     0.87020   0.66366   0.83880   0.00000  Uiso   1.00
H1360  H     0.84118   0.38068   0.85298   0.00000  Uiso   1.00
N1361  N     0.77451   0.62312   0.70599   0.00000  Uiso   1.00
H1362  H     0.74384   0.63818   0.70792   0.00000  Uiso   1.00
C1363  C     0.80131   0.60846   0.65833   0.00000  Uiso   1.00
H1364  H     0.81690   0.63535   0.63580   0.00000  Uiso   1.00
H1365  H     0.77676   0.59071   0.64429   0.00000  Uiso   1.00
H1366  H     0.83074   0.58743   0.65681   0.00000  Uiso   1.00
N1367  N     0.97047   0.44235   0.69409   0.00000  Uiso   1.00
H1368  H     0.97285   0.41212   0.70284   0.00000  Uiso   1.00
C1369  C     0.98716   0.44767   0.64390   0.00000  Uiso   1.00
H1370  H     0.67661   0.42101   0.62475   0.00000  Uiso   1.00
H1371  H     0.67538   0.47679   0.63349   0.00000  Uiso   1.00
H1372  H     0.95582   0.44808   0.63278   0.00000  Uiso   1.00
N1373  N     0.69168   0.55264   0.81286   0.00000  Uiso   1.00
H1374  H     0.70404   0.53953   0.83608   0.00000  Uiso   1.00
C1375  C     0.69638   0.59720   0.80783   0.00000  Uiso   1.00
H1376  H     0.73249   0.60782   0.80642   0.00000  Uiso   1.00
H1377  H     0.66948   0.61312   0.83879   0.00000  Uiso   1.00
H1378  H     0.69046   0.60634   0.77600   0.00000  Uiso   1.00
I1379  I     0.74930   0.43021   0.67386   0.00000  Uiso   1.00
I1380  I     0.91551   0.57000   0.82617   0.00000  Uiso   1.00
O1381  O     0.12846   0.89442   0.75000   0.00000  Uiso   1.00
O1382  O     0.20488   0.77225   0.74999   0.00000  Uiso   1.00
O1383  O     0.20490   0.89441   0.75000   0.00000  Uiso   1.00
O1384  O     0.12843   0.77226   0.75000   0.00000  Uiso   1.00
C1385  C     0.16969   0.91297   0.74413   0.00000  Uiso   1.00
C1386  C     0.16441   0.75329   0.75403   0.00000  Uiso   1.00
O1387  O     0.10661   0.83334   0.81612   0.00000  Uiso   1.00
O1388  O     0.22672   0.83333   0.68387   0.00000  Uiso   1.00
O1389  O     0.18305   0.83333   0.81612   0.00000  Uiso   1.00
O1390  O     0.15028   0.83334   0.68388   0.00000  Uiso   1.00
C1391  C     0.13641   0.83114   0.83831   0.00000  Uiso   1.00
C1392  C     0.19721   0.83459   0.66170   0.00000  Uiso   1.00
Zn1393 Zn    0.11562   0.83334   0.75000   0.00000  Uiso   1.00
Zn1394 Zn    0.21771   0.83333   0.75000   0.00000  Uiso   1.00
C1395  C     0.11940   0.81975   0.88837   0.00000  Uiso   1.00
C1396  C     0.21789   0.83678   0.60999   0.00000  Uiso   1.00
C1397  C     0.07668   0.77267   0.95160   0.00000  Uiso   1.00
C1398  C     0.27915   0.85935   0.53665   0.00000  Uiso   1.00
C1399  C     0.08089   0.79170   0.90948   0.00000  Uiso   1.00
C1400  C     0.26201   0.85756   0.58582   0.00000  Uiso   1.00
C1401  C     0.14973   0.83074   0.91229   0.00000  Uiso   1.00
C1402  C     0.19326   0.81653   0.58427   0.00000  Uiso   1.00
C1403  C     0.15184   0.80660   0.94833   0.00000  Uiso   1.00
C1404  C     0.20941   0.81816   0.53543   0.00000  Uiso   1.00
C1405  C     0.11528   0.77649   0.96814   0.00000  Uiso   1.00
C1406  C     0.24965   0.84423   0.51219   0.00000  Uiso   1.00
C1407  C     0.18926   0.81301   0.96583   0.00000  Uiso   1.00
C1408  C     0.18243   0.79873   0.51028   0.00000  Uiso   1.00
C1409  C     0.15172   0.76337   0.52565   0.00000  Uiso   1.00
C1410  C     0.23311   0.83358   0.94070   0.00000  Uiso   1.00
C1411  C     0.12004   0.75087   0.50256   0.00000  Uiso   1.00
C1412  C     0.25874   0.85425   0.96546   0.00000  Uiso   1.00
H1413  H     0.15944   0.80166   0.60297   0.00000  Uiso   1.00
H1414  H     0.17494   0.85614   0.89959   0.00000  Uiso   1.00
C1415  C     0.21139   0.98090   0.74364   0.00000  Uiso   1.00
C1416  C     0.12629   0.68490   0.74688   0.00000  Uiso   1.00
C1417  C     0.20229   0.68853   0.75977   0.00000  Uiso   1.00
C1418  C     0.13624   0.97743   0.72928   0.00000  Uiso   1.00
C1419  C     0.16217   0.70825   0.75697   0.00000  Uiso   1.00
C1420  C     0.17476   0.95733   0.73523   0.00000  Uiso   1.00
C1421  C     0.31893   0.80613   0.72117   0.00000  Uiso   1.00
C1422  C     0.01385   0.86042   0.77910   0.00000  Uiso   1.00
C1423  C     0.03362   0.80634   0.72088   0.00000  Uiso   1.00
C1424  C     0.29951   0.86081   0.77863   0.00000  Uiso   1.00
N1425  N     0.04759   0.83334   0.75001   0.00000  Uiso   1.00
N1426  N     0.28574   0.83332   0.74999   0.00000  Uiso   1.00
I1427  I     0.09624   0.68690   0.50726   0.00000  Uiso   1.00
I1428  I     0.28869   0.91341   0.93889   0.00000  Uiso   1.00
I1429  I     0.30140   0.89115   0.62172   0.00000  Uiso   1.00
I1430  I     0.02967   0.77655   0.87862   0.00000  Uiso   1.00
I1431  I     0.00724   0.74918   0.99539   0.00000  Uiso   1.00
I1432  I     0.02102   0.87406   0.50029   0.00000  Uiso   1.00
N1433  N     0.15781   0.73702   0.55917   0.00000  Uiso   1.00
H1434  H     0.12804   0.72010   0.57904   0.00000  Uiso   1.00
C1435  C     0.20285   0.71478   0.54491   0.00000  Uiso   1.00
H1436  H     0.21876   0.71984   0.57223   0.00000  Uiso   1.00
H1437  H     0.22929   0.72545   0.51101   0.00000  Uiso   1.00
H1438  H     0.19616   0.68087   0.54100   0.00000  Uiso   1.00
N1439  N     0.25448   0.82988   0.89067   0.00000  Uiso   1.00
H1440  H     0.28798   0.84377   0.87685   0.00000  Uiso   1.00
C1441  C     0.25366   0.78880   0.86922   0.00000  Uiso   1.00
H1442  H     0.28411   0.78574   0.83495   0.00000  Uiso   1.00
H1443  H     0.22028   0.78386   0.86192   0.00000  Uiso   1.00
H1444  H     0.25662   0.76409   0.89216   0.00000  Uiso   1.00
I1445  I     0.28453   0.96159   0.72152   0.00000  Uiso   1.00
I1446  I     0.05224   0.70279   0.77601   0.00000  Uiso   1.00
N1447  N     0.22864   0.70793   0.78577   0.00000  Uiso   1.00
H1448  H     0.26553   0.70512   0.77094   0.00000  Uiso   1.00
C1449  C     0.20931   0.69784   0.83481   0.00000  Uiso   1.00
H1450  H     0.23508   0.70768   0.85171   0.00000  Uiso   1.00
H1451  H     0.20354   0.99699   0.83880   0.00000  Uiso   1.00
H1452  H     0.17451   0.71401   0.85298   0.00000  Uiso   1.00
N1453  N     0.10784   0.95646   0.70599   0.00000  Uiso   1.00
H1454  H     0.07718   0.97152   0.70792   0.00000  Uiso   1.00
C1455  C     0.13465   0.94179   0.65833   0.00000  Uiso   1.00
H1456  H     0.15024   0.96869   0.63580   0.00000  Uiso   1.00
H1457  H     0.11010   0.92404   0.64429   0.00000  Uiso   1.00
H1458  H     0.16407   0.92076   0.65681   0.00000  Uiso   1.00
N1459  N     0.30380   0.77569   0.69409   0.00000  Uiso   1.00
H1460  H     0.30618   0.74545   0.70284   0.00000  Uiso   1.00
C1461  C     0.32049   0.78100   0.64390   0.00000  Uiso   1.00
H1462  H     0.00995   0.75434   0.62475   0.00000  Uiso   1.00
H1463  H     0.00871   0.81012   0.63349   0.00000  Uiso   1.00
H1464  H     0.28916   0.78141   0.63278   0.00000  Uiso   1.00
N1465  N     0.02501   0.88597   0.81286   0.00000  Uiso   1.00
H1466  H     0.03737   0.87286   0.83608   0.00000  Uiso   1.00
C1467  C     0.02972   0.93053   0.80783   0.00000  Uiso   1.00
H1468  H     0.06583   0.94116   0.80642   0.00000  Uiso   1.00
H1469  H     0.00282   0.94645   0.83879   0.00000  Uiso   1.00
H1470  H     0.02379   0.93967   0.77600   0.00000  Uiso   1.00
I1471  I     0.08263   0.76355   0.67386   0.00000  Uiso   1.00
I1472  I     0.24884   0.90333   0.82617   0.00000  Uiso   1.00
O1473  O     0.46179   0.89442   0.75000   0.00000  Uiso   1.00
O1474  O     0.53821   0.77225   0.74999   0.00000  Uiso   1.00
O1475  O     0.53823   0.89441   0.75000   0.00000  Uiso   1.00
O1476  O     0.46177   0.77226   0.75000   0.00000  Uiso   1.00
C1477  C     0.50303   0.91297   0.74413   0.00000  Uiso   1.00
C1478  C     0.49774   0.75329   0.75403   0.00000  Uiso   1.00
O1479  O     0.43994   0.83334   0.81612   0.00000  Uiso   1.00
O1480  O     0.56006   0.83333   0.68387   0.00000  Uiso   1.00
O1481  O     0.51639   0.83333   0.81612   0.00000  Uiso   1.00
O1482  O     0.48361   0.83334   0.68388   0.00000  Uiso   1.00
C1483  C     0.46974   0.83114   0.83831   0.00000  Uiso   1.00
C1484  C     0.53054   0.83459   0.66170   0.00000  Uiso   1.00
Zn1485 Zn    0.44896   0.83334   0.75000   0.00000  Uiso   1.00
Zn1486 Zn    0.55104   0.83333   0.75000   0.00000  Uiso   1.00
C1487  C     0.45273   0.81975   0.88837   0.00000  Uiso   1.00
C1488  C     0.55122   0.83678   0.60999   0.00000  Uiso   1.00
C1489  C     0.41002   0.77267   0.95160   0.00000  Uiso   1.00
C1490  C     0.61249   0.85935   0.53665   0.00000  Uiso   1.00
C1491  C     0.41422   0.79170   0.90948   0.00000  Uiso   1.00
C1492  C     0.59534   0.85756   0.58582   0.00000  Uiso   1.00
C1493  C     0.48307   0.83074   0.91229   0.00000  Uiso   1.00
C1494  C     0.52660   0.81653   0.58427   0.00000  Uiso   1.00
C1495  C     0.48518   0.80660   0.94833   0.00000  Uiso   1.00
C1496  C     0.54275   0.81816   0.53543   0.00000  Uiso   1.00
C1497  C     0.44861   0.77649   0.96814   0.00000  Uiso   1.00
C1498  C     0.58299   0.84423   0.51219   0.00000  Uiso   1.00
C1499  C     0.52260   0.81301   0.96583   0.00000  Uiso   1.00
C1500  C     0.51576   0.79873   0.51028   0.00000  Uiso   1.00
C1501  C     0.48505   0.76337   0.52565   0.00000  Uiso   1.00
C1502  C     0.56644   0.83358   0.94070   0.00000  Uiso   1.00
C1503  C     0.45337   0.75087   0.50256   0.00000  Uiso   1.00
C1504  C     0.59208   0.85425   0.96546   0.00000  Uiso   1.00
H1505  H     0.49277   0.80166   0.60297   0.00000  Uiso   1.00
H1506  H     0.50828   0.85614   0.89959   0.00000  Uiso   1.00
C1507  C     0.54472   0.98090   0.74364   0.00000  Uiso   1.00
C1508  C     0.45962   0.68490   0.74688   0.00000  Uiso   1.00
C1509  C     0.53562   0.68853   0.75977   0.00000  Uiso   1.00
C1510  C     0.46957   0.97743   0.72928   0.00000  Uiso   1.00
C1511  C     0.49551   0.70825   0.75697   0.00000  Uiso   1.00
C1512  C     0.50809   0.95733   0.73523   0.00000  Uiso   1.00
C1513  C     0.65227   0.80613   0.72117   0.00000  Uiso   1.00
C1514  C     0.34718   0.86042   0.77910   0.00000  Uiso   1.00
C1515  C     0.36696   0.80634   0.72088   0.00000  Uiso   1.00
C1516  C     0.63285   0.86081   0.77863   0.00000  Uiso   1.00
N1517  N     0.38093   0.83334   0.75001   0.00000  Uiso   1.00
N1518  N     0.61907   0.83332   0.74999   0.00000  Uiso   1.00
I1519  I     0.42957   0.68690   0.50726   0.00000  Uiso   1.00
I1520  I     0.62203   0.91341   0.93889   0.00000  Uiso   1.00
I1521  I     0.63473   0.89115   0.62172   0.00000  Uiso   1.00
I1522  I     0.36300   0.77655   0.87862   0.00000  Uiso   1.00
I1523  I     0.34057   0.74918   0.99539   0.00000  Uiso   1.00
I1524  I     0.35435   0.87406   0.50029   0.00000  Uiso   1.00
N1525  N     0.49115   0.73702   0.55917   0.00000  Uiso   1.00
H1526  H     0.46137   0.72010   0.57904   0.00000  Uiso   1.00
C1527  C     0.53618   0.71478   0.54491   0.00000  Uiso   1.00
H1528  H     0.55209   0.71984   0.57223   0.00000  Uiso   1.00
H1529  H     0.56263   0.72545   0.51101   0.00000  Uiso   1.00
H1530  H     0.52949   0.68087   0.54100   0.00000  Uiso   1.00
N1531  N     0.58782   0.82988   0.89067   0.00000  Uiso   1.00
H1532  H     0.62131   0.84377   0.87685   0.00000  Uiso   1.00
C1533  C     0.58699   0.78880   0.86922   0.00000  Uiso   1.00
H1534  H     0.61745   0.78574   0.83495   0.00000  Uiso   1.00
H1535  H     0.55362   0.78386   0.86192   0.00000  Uiso   1.00
H1536  H     0.58996   0.76409   0.89216   0.00000  Uiso   1.00
I1537  I     0.61787   0.96159   0.72152   0.00000  Uiso   1.00
I1538  I     0.38557   0.70279   0.77601   0.00000  Uiso   1.00
N1539  N     0.56197   0.70793   0.78577   0.00000  Uiso   1.00
H1540  H     0.59886   0.70512   0.77094   0.00000  Uiso   1.00
C1541  C     0.54265   0.69784   0.83481   0.00000  Uiso   1.00
H1542  H     0.56841   0.70768   0.85171   0.00000  Uiso   1.00
H1543  H     0.53687   0.99699   0.83880   0.00000  Uiso   1.00
H1544  H     0.50785   0.71401   0.85298   0.00000  Uiso   1.00
N1545  N     0.44118   0.95646   0.70599   0.00000  Uiso   1.00
H1546  H     0.41051   0.97152   0.70792   0.00000  Uiso   1.00
C1547  C     0.46798   0.94179   0.65833   0.00000  Uiso   1.00
H1548  H     0.48357   0.96869   0.63580   0.00000  Uiso   1.00
H1549  H     0.44343   0.92404   0.64429   0.00000  Uiso   1.00
H1550  H     0.49741   0.92076   0.65681   0.00000  Uiso   1.00
N1551  N     0.63713   0.77569   0.69409   0.00000  Uiso   1.00
H1552  H     0.63951   0.74545   0.70284   0.00000  Uiso   1.00
C1553  C     0.65382   0.78100   0.64390   0.00000  Uiso   1.00
H1554  H     0.34328   0.75434   0.62475   0.00000  Uiso   1.00
H1555  H     0.34204   0.81012   0.63349   0.00000  Uiso   1.00
H1556  H     0.62249   0.78141   0.63278   0.00000  Uiso   1.00
N1557  N     0.35834   0.88597   0.81286   0.00000  Uiso   1.00
H1558  H     0.37071   0.87286   0.83608   0.00000  Uiso   1.00
C1559  C     0.36305   0.93053   0.80783   0.00000  Uiso   1.00
H1560  H     0.39916   0.94116   0.80642   0.00000  Uiso   1.00
H1561  H     0.33615   0.94645   0.83879   0.00000  Uiso   1.00
H1562  H     0.35713   0.93967   0.77600   0.00000  Uiso   1.00
I1563  I     0.41597   0.76355   0.67386   0.00000  Uiso   1.00
I1564  I     0.58218   0.90333   0.82617   0.00000  Uiso   1.00
O1565  O     0.79512   0.89442   0.75000   0.00000  Uiso   1.00
O1566  O     0.87154   0.77225   0.74999   0.00000  Uiso   1.00
O1567  O     0.87157   0.89441   0.75000   0.00000  Uiso   1.00
O1568  O     0.79510   0.77226   0.75000   0.00000  Uiso   1.00
C1569  C     0.83636   0.91297   0.74413   0.00000  Uiso   1.00
C1570  C     0.83107   0.75329   0.75403   0.00000  Uiso   1.00
O1571  O     0.77328   0.83334   0.81612   0.00000  Uiso   1.00
O1572  O     0.89339   0.83333   0.68387   0.00000  Uiso   1.00
O1573  O     0.84972   0.83333   0.81612   0.00000  Uiso   1.00
O1574  O     0.81695   0.83334   0.68388   0.00000  Uiso   1.00
C1575  C     0.80308   0.83114   0.83831   0.00000  Uiso   1.00
C1576  C     0.86388   0.83459   0.66170   0.00000  Uiso   1.00
Zn1577 Zn    0.78229   0.83334   0.75000   0.00000  Uiso   1.00
Zn1578 Zn    0.88438   0.83333   0.75000   0.00000  Uiso   1.00
C1579  C     0.78607   0.81975   0.88837   0.00000  Uiso   1.00
C1580  C     0.88456   0.83678   0.60999   0.00000  Uiso   1.00
C1581  C     0.74335   0.77267   0.95160   0.00000  Uiso   1.00
C1582  C     0.94582   0.85935   0.53665   0.00000  Uiso   1.00
C1583  C     0.74755   0.79170   0.90948   0.00000  Uiso   1.00
C1584  C     0.92868   0.85756   0.58582   0.00000  Uiso   1.00
C1585  C     0.81640   0.83074   0.91229   0.00000  Uiso   1.00
C1586  C     0.85993   0.81653   0.58427   0.00000  Uiso   1.00
C1587  C     0.81851   0.80660   0.94833   0.00000  Uiso   1.00
C1588  C     0.87608   0.81816   0.53543   0.00000  Uiso   1.00
C1589  C     0.78195   0.77649   0.96814   0.00000  Uiso   1.00
C1590  C     0.91632   0.84423   0.51219   0.00000  Uiso   1.00
C1591  C     0.85593   0.81301   0.96583   0.00000  Uiso   1.00
C1592  C     0.84910   0.79873   0.51028   0.00000  Uiso   1.00
C1593  C     0.81839   0.76337   0.52565   0.00000  Uiso   1.00
C1594  C     0.89977   0.83358   0.94070   0.00000  Uiso   1.00
C1595  C     0.78671   0.75087   0.50256   0.00000  Uiso   1.00
C1596  C     0.92541   0.85425   0.96546   0.00000  Uiso   1.00
H1597  H     0.82610   0.80166   0.60297   0.00000  Uiso   1.00
H1598  H     0.84161   0.85614   0.89959   0.00000  Uiso   1.00
C1599  C     0.87806   0.98090   0.74364   0.00000  Uiso   1.00
C1600  C     0.79296   0.68490   0.74688   0.00000  Uiso   1.00
C1601  C     0.86896   0.68853   0.75977   0.00000  Uiso   1.00
C1602  C     0.80290   0.97743   0.72928   0.00000  Uiso   1.00
C1603  C     0.82884   0.70825   0.75697   0.00000  Uiso   1.00
C1604  C     0.84143   0.95733   0.73523   0.00000  Uiso   1.00
C1605  C     0.98560   0.80613   0.72117   0.00000  Uiso   1.00
C1606  C     0.68052   0.86042   0.77910   0.00000  Uiso   1.00
C1607  C     0.70029   0.80634   0.72088   0.00000  Uiso   1.00
C1608  C     0.96618   0.86081   0.77863   0.00000  Uiso   1.00
N1609  N     0.71426   0.83334   0.75001   0.00000  Uiso   1.00
N1610  N     0.95241   0.83332   0.74999   0.00000  Uiso   1.00
I1611  I     0.76290   0.68690   0.50726   0.00000  Uiso   1.00
I1612  I     0.95536   0.91341   0.93889   0.00000  Uiso   1.00
I1613  I     0.96807   0.89115   0.62172   0.00000  Uiso   1.00
I1614  I     0.69633   0.77655   0.87862   0.00000  Uiso   1.00
I1615  I     0.67390   0.74918   0.99539   0.00000  Uiso   1.00
I1616  I     0.68768   0.87406   0.50029   0.00000  Uiso   1.00
N1617  N     0.82448   0.73702   0.55917   0.00000  Uiso   1.00
H1618  H     0.79471   0.72010   0.57904   0.00000  Uiso   1.00
C1619  C     0.86952   0.71478   0.54491   0.00000  Uiso   1.00
H1620  H     0.88542   0.71984   0.57223   0.00000  Uiso   1.00
H1621  H     0.89596   0.72545   0.51101   0.00000  Uiso   1.00
H1622  H     0.86282   0.68087   0.54100   0.00000  Uiso   1.00
N1623  N     0.92115   0.82988   0.89067   0.00000  Uiso   1.00
H1624  H     0.95465   0.84377   0.87685   0.00000  Uiso   1.00
C1625  C     0.92032   0.78880   0.86922   0.00000  Uiso   1.00
H1626  H     0.95078   0.78574   0.83495   0.00000  Uiso   1.00
H1627  H     0.88695   0.78386   0.86192   0.00000  Uiso   1.00
H1628  H     0.92329   0.76409   0.89216   0.00000  Uiso   1.00
I1629  I     0.95120   0.96159   0.72152   0.00000  Uiso   1.00
I1630  I     0.71891   0.70279   0.77601   0.00000  Uiso   1.00
N1631  N     0.89530   0.70793   0.78577   0.00000  Uiso   1.00
H1632  H     0.93220   0.70512   0.77094   0.00000  Uiso   1.00
C1633  C     0.87598   0.69784   0.83481   0.00000  Uiso   1.00
H1634  H     0.90175   0.70768   0.85171   0.00000  Uiso   1.00
H1635  H     0.87020   0.99699   0.83880   0.00000  Uiso   1.00
H1636  H     0.84118   0.71401   0.85298   0.00000  Uiso   1.00
N1637  N     0.77451   0.95646   0.70599   0.00000  Uiso   1.00
H1638  H     0.74384   0.97152   0.70792   0.00000  Uiso   1.00
C1639  C     0.80131   0.94179   0.65833   0.00000  Uiso   1.00
H1640  H     0.81690   0.96869   0.63580   0.00000  Uiso   1.00
H1641  H     0.77676   0.92404   0.64429   0.00000  Uiso   1.00
H1642  H     0.83074   0.92076   0.65681   0.00000  Uiso   1.00
N1643  N     0.97047   0.77569   0.69409   0.00000  Uiso   1.00
H1644  H     0.97285   0.74545   0.70284   0.00000  Uiso   1.00
C1645  C     0.98716   0.78100   0.64390   0.00000  Uiso   1.00
H1646  H     0.67661   0.75434   0.62475   0.00000  Uiso   1.00
H1647  H     0.67538   0.81012   0.63349   0.00000  Uiso   1.00
H1648  H     0.95582   0.78141   0.63278   0.00000  Uiso   1.00
N1649  N     0.69168   0.88597   0.81286   0.00000  Uiso   1.00
H1650  H     0.70404   0.87286   0.83608   0.00000  Uiso   1.00
C1651  C     0.69638   0.93053   0.80783   0.00000  Uiso   1.00
H1652  H     0.73249   0.94116   0.80642   0.00000  Uiso   1.00
H1653  H     0.66948   0.94645   0.83879   0.00000  Uiso   1.00
H1654  H     0.69046   0.93967   0.77600   0.00000  Uiso   1.00
I1655  I     0.74930   0.76355   0.67386   0.00000  Uiso   1.00
I1656  I     0.91551   0.90333   0.82617   0.00000  Uiso   1.00
loop_
_geom_bond_atom_site_label_1
_geom_bond_atom_site_label_2
_geom_bond_distance
_geom_bond_site_symmetry_2
_ccdc_geom_bond_type
O1     C5      1.306   .     A
O1     Zn13    1.988   .     S
O2     C6      1.303   .     A
O2     Zn14    1.988   .     S
O3     Zn14    2.010   .     S
O3     C5      1.295   .     A
O4     Zn13    2.010   .     S
O4     C6      1.297   .     A
C5     C40     1.457   .     S
C6     C39     1.452   .     S
O7     C11     1.309   .     A
O7     Zn13    1.947   .     S
O8     Zn14    1.947   .     S
O8     C12     1.299   .     A
O9     Zn14    1.909   .     S
O9     C11     1.306   .     A
O10    C12     1.313   .     A
O10    Zn13    1.909   .     S
C11    C15     1.490   .     S
C12    C16     1.481   .     S
Zn13   N45     2.030   .     S
Zn14   N46     2.030   .     S
C15    C19     1.414   .     A
C15    C21     1.390   .     A
C16    C20     1.416   .     A
C16    C22     1.393   .     A
C17    I51     2.150   .     S
C17    C25     1.420   .     A
C17    C19     1.418   .     A
C18    C26     1.416   .     A
C18    C20     1.408   .     A
C18    I144    2.156   .     S
C19    I50     2.110   .     S
C20    I49     2.129   .     S
C21    H34     1.078   .     S
C21    C23     1.401   .     A
C22    C24     1.399   .     A
C22    H33     1.071   .     S
C23    C27     1.413   .     A
C23    C25     1.414   .     A
C24    C26     1.421   .     A
C24    C28     1.421   .     A
C25    C859    1.418   .     S
C26    C860    1.409   1_554 S
C27    C30     1.413   .     A
C27    C856    1.401   .     S
C28    C29     1.422   .     A
C28    C855    1.401   1_554 S
C29    N53     1.427   .     S
C29    C31     1.415   .     A
C30    C32     1.399   .     A
C30    N59     1.431   .     S
C31    I47     2.148   .     S
C31    C853    1.418   1_554 S
C32    I48     2.141   .     S
C32    C854    1.409   .     S
C35    I65     2.135   .     S
C35    C40     1.406   .     A
C35    C313    1.383   .     S
C36    I66     2.141   .     S
C36    C39     1.408   .     A
C36    C590    1.392   1_545 S
C37    C39     1.402   .     A
C37    N67     1.426   .     S
C37    C587    1.383   1_545 S
C38    C40     1.407   .     A
C38    N73     1.433   .     S
C38    C312    1.392   .     S
C41    N46     1.364   .     A
C41    N79     1.424   .     S
C41    C135    1.430   .     S
C42    N45     1.373   .     A
C42    N85     1.421   .     S
C42    C228    1.428   1_455 S
C43    I91     2.120   .     S
C43    N45     1.382   .     A
C43    C225    1.430   1_455 S
C44    I92     2.143   .     S
C44    N46     1.377   .     A
C44    C134    1.428   .     S
I52    C202    2.156   1_455 S
N53    H54     1.030   .     S
N53    C55     1.450   .     S
C55    H56     1.110   .     S
C55    H58     1.111   .     S
C55    H57     1.112   .     S
N59    H60     1.028   .     S
N59    C61     1.452   .     S
C61    H64     1.111   .     S
C61    H63     1.104   .     S
C61    H62     1.111   .     S
N67    H68     1.030   .     S
N67    C69     1.449   .     S
C69    H72     1.113   .     S
C69    H70     1.107   .     S
C69    H623    1.112   1_545 S
H71    C345    1.112   .     S
N73    H74     1.029   .     S
N73    C75     1.449   .     S
C75    H77     1.111   .     S
C75    H76     1.112   .     S
C75    H78     1.109   .     S
N79    C81     1.451   .     S
N79    H80     1.031   .     S
C81    H84     1.108   .     S
C81    H174    1.111   .     S
C81    H175    1.110   .     S
H82    C265    1.111   1_455 S
H83    C265    1.110   1_455 S
N85    C87     1.444   .     S
N85    H86     1.026   .     S
C87    H88     1.107   .     S
C87    H90     1.109   .     S
C87    H89     1.108   .     S
O93    C97     1.306   .     A
O93    Zn105   1.988   .     S
O94    C98     1.303   .     A
O94    Zn106   1.988   .     S
O95    Zn106   2.010   .     S
O95    C97     1.295   .     A
O96    Zn105   2.010   .     S
O96    C98     1.297   .     A
C97    C132    1.457   .     S
C98    C131    1.452   .     S
O99    C103    1.309   .     A
O99    Zn105   1.947   .     S
O100   Zn106   1.947   .     S
O100   C104    1.299   .     A
O101   Zn106   1.909   .     S
O101   C103    1.306   .     A
O102   C104    1.313   .     A
O102   Zn105   1.909   .     S
C103   C107    1.490   .     S
C104   C108    1.481   .     S
Zn105  N137    2.030   .     S
Zn106  N138    2.030   .     S
C107   C111    1.414   .     A
C107   C113    1.390   .     A
C108   C112    1.416   .     A
C108   C114    1.393   .     A
C109   I143    2.150   .     S
C109   C117    1.420   .     A
C109   C111    1.418   .     A
C110   C118    1.416   .     A
C110   C112    1.408   .     A
C110   I236    2.156   .     S
C111   I142    2.110   .     S
C112   I141    2.129   .     S
C113   H126    1.078   .     S
C113   C115    1.401   .     A
C114   C116    1.399   .     A
C114   H125    1.071   .     S
C115   C119    1.413   .     A
C115   C117    1.414   .     A
C116   C118    1.421   .     A
C116   C120    1.421   .     A
C117   C951    1.418   .     S
C118   C952    1.409   1_554 S
C119   C122    1.413   .     A
C119   C948    1.401   .     S
C120   C121    1.422   .     A
C120   C947    1.401   1_554 S
C121   N145    1.427   .     S
C121   C123    1.415   .     A
C122   C124    1.399   .     A
C122   N151    1.431   .     S
C123   I139    2.148   .     S
C123   C945    1.418   1_554 S
C124   I140    2.141   .     S
C124   C946    1.409   .     S
C127   I157    2.135   .     S
C127   C132    1.406   .     A
C127   C405    1.383   .     S
C128   I158    2.141   .     S
C128   C131    1.408   .     A
C128   C682    1.392   1_545 S
C129   C131    1.402   .     A
C129   N159    1.426   .     S
C129   C679    1.383   1_545 S
C130   C132    1.407   .     A
C130   N165    1.433   .     S
C130   C404    1.392   .     S
C133   N138    1.364   .     A
C133   N171    1.424   .     S
C133   C227    1.430   .     S
C134   N137    1.373   .     A
C134   N177    1.421   .     S
C135   I183    2.120   .     S
C135   N137    1.382   .     A
C136   I184    2.143   .     S
C136   N138    1.377   .     A
C136   C226    1.428   .     S
N145   H146    1.030   .     S
N145   C147    1.450   .     S
C147   H148    1.110   .     S
C147   H150    1.111   .     S
C147   H149    1.112   .     S
N151   H152    1.028   .     S
N151   C153    1.452   .     S
C153   H156    1.111   .     S
C153   H155    1.104   .     S
C153   H154    1.111   .     S
N159   H160    1.030   .     S
N159   C161    1.449   .     S
C161   H164    1.113   .     S
C161   H162    1.107   .     S
C161   H715    1.112   1_545 S
H163   C437    1.112   .     S
N165   H166    1.029   .     S
N165   C167    1.449   .     S
C167   H169    1.111   .     S
C167   H168    1.112   .     S
C167   H170    1.109   .     S
N171   C173    1.451   .     S
N171   H172    1.031   .     S
C173   H176    1.108   .     S
C173   H266    1.111   .     S
C173   H267    1.110   .     S
N177   C179    1.444   .     S
N177   H178    1.026   .     S
C179   H180    1.107   .     S
C179   H182    1.109   .     S
C179   H181    1.108   .     S
O185   C189    1.306   .     A
O185   Zn197   1.988   .     S
O186   C190    1.303   .     A
O186   Zn198   1.988   .     S
O187   Zn198   2.010   .     S
O187   C189    1.295   .     A
O188   Zn197   2.010   .     S
O188   C190    1.297   .     A
C189   C224    1.457   .     S
C190   C223    1.452   .     S
O191   C195    1.309   .     A
O191   Zn197   1.947   .     S
O192   Zn198   1.947   .     S
O192   C196    1.299   .     A
O193   Zn198   1.909   .     S
O193   C195    1.306   .     A
O194   C196    1.313   .     A
O194   Zn197   1.909   .     S
C195   C199    1.490   .     S
C196   C200    1.481   .     S
Zn197  N229    2.030   .     S
Zn198  N230    2.030   .     S
C199   C203    1.414   .     A
C199   C205    1.390   .     A
C200   C204    1.416   .     A
C200   C206    1.393   .     A
C201   I235    2.150   .     S
C201   C209    1.420   .     A
C201   C203    1.418   .     A
C202   C210    1.416   .     A
C202   C204    1.408   .     A
C202   I52     2.156   1_655 S
C203   I234    2.110   .     S
C204   I233    2.129   .     S
C205   H218    1.078   .     S
C205   C207    1.401   .     A
C206   C208    1.399   .     A
C206   H217    1.071   .     S
C207   C211    1.413   .     A
C207   C209    1.414   .     A
C208   C210    1.421   .     A
C208   C212    1.421   .     A
C209   C1043   1.418   .     S
C210   C1044   1.409   1_554 S
C211   C214    1.413   .     A
C211   C1040   1.401   .     S
C212   C213    1.422   .     A
C212   C1039   1.401   1_554 S
C213   N237    1.427   .     S
C213   C215    1.415   .     A
C214   C216    1.399   .     A
C214   N243    1.431   .     S
C215   I231    2.148   .     S
C215   C1037   1.418   1_554 S
C216   I232    2.141   .     S
C216   C1038   1.409   .     S
C219   I249    2.135   .     S
C219   C224    1.406   .     A
C219   C497    1.383   .     S
C220   I250    2.141   .     S
C220   C223    1.408   .     A
C220   C774    1.392   1_545 S
C221   C223    1.402   .     A
C221   N251    1.426   .     S
C221   C771    1.383   1_545 S
C222   C224    1.407   .     A
C222   N257    1.433   .     S
C222   C496    1.392   .     S
C225   N230    1.364   .     A
C225   N263    1.424   .     S
C225   C43     1.430   1_655 S
C226   N229    1.373   .     A
C226   N269    1.421   .     S
C227   I275    2.120   .     S
C227   N229    1.382   .     A
C228   I276    2.143   .     S
C228   N230    1.377   .     A
C228   C42     1.428   1_655 S
N237   H238    1.030   .     S
N237   C239    1.450   .     S
C239   H240    1.110   .     S
C239   H242    1.111   .     S
C239   H241    1.112   .     S
N243   H244    1.028   .     S
N243   C245    1.452   .     S
C245   H248    1.111   .     S
C245   H247    1.104   .     S
C245   H246    1.111   .     S
N251   H252    1.030   .     S
N251   C253    1.449   .     S
C253   H256    1.113   .     S
C253   H254    1.107   .     S
C253   H807    1.112   1_545 S
H255   C529    1.112   .     S
N257   H258    1.029   .     S
N257   C259    1.449   .     S
C259   H261    1.111   .     S
C259   H260    1.112   .     S
C259   H262    1.109   .     S
N263   C265    1.451   .     S
N263   H264    1.031   .     S
C265   H268    1.108   .     S
C265   H82     1.111   1_655 S
C265   H83     1.110   1_655 S
N269   C271    1.444   .     S
N269   H270    1.026   .     S
C271   H272    1.107   .     S
C271   H274    1.109   .     S
C271   H273    1.108   .     S
O277   C281    1.306   .     A
O277   Zn289   1.988   .     S
O278   C282    1.303   .     A
O278   Zn290   1.988   .     S
O279   Zn290   2.010   .     S
O279   C281    1.295   .     A
O280   Zn289   2.010   .     S
O280   C282    1.297   .     A
C281   C316    1.457   .     S
C282   C315    1.452   .     S
O283   C287    1.309   .     A
O283   Zn289   1.947   .     S
O284   Zn290   1.947   .     S
O284   C288    1.299   .     A
O285   Zn290   1.909   .     S
O285   C287    1.306   .     A
O286   C288    1.313   .     A
O286   Zn289   1.909   .     S
C287   C291    1.490   .     S
C288   C292    1.481   .     S
Zn289  N321    2.030   .     S
Zn290  N322    2.030   .     S
C291   C295    1.414   .     A
C291   C297    1.390   .     A
C292   C296    1.416   .     A
C292   C298    1.393   .     A
C293   I327    2.150   .     S
C293   C301    1.420   .     A
C293   C295    1.418   .     A
C294   C302    1.416   .     A
C294   C296    1.408   .     A
C294   I420    2.156   .     S
C295   I326    2.110   .     S
C296   I325    2.129   .     S
C297   H310    1.078   .     S
C297   C299    1.401   .     A
C298   C300    1.399   .     A
C298   H309    1.071   .     S
C299   C303    1.413   .     A
C299   C301    1.414   .     A
C300   C302    1.421   .     A
C300   C304    1.421   .     A
C301   C1135   1.418   .     S
C302   C1136   1.409   1_554 S
C303   C306    1.413   .     A
C303   C1132   1.401   .     S
C304   C305    1.422   .     A
C304   C1131   1.401   1_554 S
C305   N329    1.427   .     S
C305   C307    1.415   .     A
C306   C308    1.399   .     A
C306   N335    1.431   .     S
C307   I323    2.148   .     S
C307   C1129   1.418   1_554 S
C308   I324    2.141   .     S
C308   C1130   1.409   .     S
C311   I341    2.135   .     S
C311   C316    1.406   .     A
C311   C589    1.383   .     S
C312   I342    2.141   .     S
C312   C315    1.408   .     A
C313   C315    1.402   .     A
C313   N343    1.426   .     S
C314   C316    1.407   .     A
C314   N349    1.433   .     S
C314   C588    1.392   .     S
C317   N322    1.364   .     A
C317   N355    1.424   .     S
C317   C411    1.430   .     S
C318   N321    1.373   .     A
C318   N361    1.421   .     S
C318   C504    1.428   1_455 S
C319   I367    2.120   .     S
C319   N321    1.382   .     A
C319   C501    1.430   1_455 S
C320   I368    2.143   .     S
C320   N322    1.377   .     A
C320   C410    1.428   .     S
I328   C478    2.156   1_455 S
N329   H330    1.030   .     S
N329   C331    1.450   .     S
C331   H332    1.110   .     S
C331   H334    1.111   .     S
C331   H333    1.112   .     S
N335   H336    1.028   .     S
N335   C337    1.452   .     S
C337   H340    1.111   .     S
C337   H339    1.104   .     S
C337   H338    1.111   .     S
N343   H344    1.030   .     S
N343   C345    1.449   .     S
C345   H348    1.113   .     S
C345   H346    1.107   .     S
H347   C621    1.112   .     S
N349   H350    1.029   .     S
N349   C351    1.449   .     S
C351   H353    1.111   .     S
C351   H352    1.112   .     S
C351   H354    1.109   .     S
N355   C357    1.451   .     S
N355   H356    1.031   .     S
C357   H360    1.108   .     S
C357   H450    1.111   .     S
C357   H451    1.110   .     S
H358   C541    1.111   1_455 S
H359   C541    1.110   1_455 S
N361   C363    1.444   .     S
N361   H362    1.026   .     S
C363   H364    1.107   .     S
C363   H366    1.109   .     S
C363   H365    1.108   .     S
O369   C373    1.306   .     A
O369   Zn381   1.988   .     S
O370   C374    1.303   .     A
O370   Zn382   1.988   .     S
O371   Zn382   2.010   .     S
O371   C373    1.295   .     A
O372   Zn381   2.010   .     S
O372   C374    1.297   .     A
C373   C408    1.457   .     S
C374   C407    1.452   .     S
O375   C379    1.309   .     A
O375   Zn381   1.947   .     S
O376   Zn382   1.947   .     S
O376   C380    1.299   .     A
O377   Zn382   1.909   .     S
O377   C379    1.306   .     A
O378   C380    1.313   .     A
O378   Zn381   1.909   .     S
C379   C383    1.490   .     S
C380   C384    1.481   .     S
Zn381  N413    2.030   .     S
Zn382  N414    2.030   .     S
C383   C387    1.414   .     A
C383   C389    1.390   .     A
C384   C388    1.416   .     A
C384   C390    1.393   .     A
C385   I419    2.150   .     S
C385   C393    1.420   .     A
C385   C387    1.418   .     A
C386   C394    1.416   .     A
C386   C388    1.408   .     A
C386   I512    2.156   .     S
C387   I418    2.110   .     S
C388   I417    2.129   .     S
C389   H402    1.078   .     S
C389   C391    1.401   .     A
C390   C392    1.399   .     A
C390   H401    1.071   .     S
C391   C395    1.413   .     A
C391   C393    1.414   .     A
C392   C394    1.421   .     A
C392   C396    1.421   .     A
C393   C1227   1.418   .     S
C394   C1228   1.409   1_554 S
C395   C398    1.413   .     A
C395   C1224   1.401   .     S
C396   C397    1.422   .     A
C396   C1223   1.401   1_554 S
C397   N421    1.427   .     S
C397   C399    1.415   .     A
C398   C400    1.399   .     A
C398   N427    1.431   .     S
C399   I415    2.148   .     S
C399   C1221   1.418   1_554 S
C400   I416    2.141   .     S
C400   C1222   1.409   .     S
C403   I433    2.135   .     S
C403   C408    1.406   .     A
C403   C681    1.383   .     S
C404   I434    2.141   .     S
C404   C407    1.408   .     A
C405   C407    1.402   .     A
C405   N435    1.426   .     S
C406   C408    1.407   .     A
C406   N441    1.433   .     S
C406   C680    1.392   .     S
C409   N414    1.364   .     A
C409   N447    1.424   .     S
C409   C503    1.430   .     S
C410   N413    1.373   .     A
C410   N453    1.421   .     S
C411   I459    2.120   .     S
C411   N413    1.382   .     A
C412   I460    2.143   .     S
C412   N414    1.377   .     A
C412   C502    1.428   .     S
N421   H422    1.030   .     S
N421   C423    1.450   .     S
C423   H424    1.110   .     S
C423   H426    1.111   .     S
C423   H425    1.112   .     S
N427   H428    1.028   .     S
N427   C429    1.452   .     S
C429   H432    1.111   .     S
C429   H431    1.104   .     S
C429   H430    1.111   .     S
N435   H436    1.030   .     S
N435   C437    1.449   .     S
C437   H440    1.113   .     S
C437   H438    1.107   .     S
H439   C713    1.112   .     S
N441   H442    1.029   .     S
N441   C443    1.449   .     S
C443   H445    1.111   .     S
C443   H444    1.112   .     S
C443   H446    1.109   .     S
N447   C449    1.451   .     S
N447   H448    1.031   .     S
C449   H452    1.108   .     S
C449   H542    1.111   .     S
C449   H543    1.110   .     S
N453   C455    1.444   .     S
N453   H454    1.026   .     S
C455   H456    1.107   .     S
C455   H458    1.109   .     S
C455   H457    1.108   .     S
O461   C465    1.306   .     A
O461   Zn473   1.988   .     S
O462   C466    1.303   .     A
O462   Zn474   1.988   .     S
O463   Zn474   2.010   .     S
O463   C465    1.295   .     A
O464   Zn473   2.010   .     S
O464   C466    1.297   .     A
C465   C500    1.457   .     S
C466   C499    1.452   .     S
O467   C471    1.309   .     A
O467   Zn473   1.947   .     S
O468   Zn474   1.947   .     S
O468   C472    1.299   .     A
O469   Zn474   1.909   .     S
O469   C471    1.306   .     A
O470   C472    1.313   .     A
O470   Zn473   1.909   .     S
C471   C475    1.490   .     S
C472   C476    1.481   .     S
Zn473  N505    2.030   .     S
Zn474  N506    2.030   .     S
C475   C479    1.414   .     A
C475   C481    1.390   .     A
C476   C480    1.416   .     A
C476   C482    1.393   .     A
C477   I511    2.150   .     S
C477   C485    1.420   .     A
C477   C479    1.418   .     A
C478   C486    1.416   .     A
C478   C480    1.408   .     A
C478   I328    2.156   1_655 S
C479   I510    2.110   .     S
C480   I509    2.129   .     S
C481   H494    1.078   .     S
C481   C483    1.401   .     A
C482   C484    1.399   .     A
C482   H493    1.071   .     S
C483   C487    1.413   .     A
C483   C485    1.414   .     A
C484   C486    1.421   .     A
C484   C488    1.421   .     A
C485   C1319   1.418   .     S
C486   C1320   1.409   1_554 S
C487   C490    1.413   .     A
C487   C1316   1.401   .     S
C488   C489    1.422   .     A
C488   C1315   1.401   1_554 S
C489   N513    1.427   .     S
C489   C491    1.415   .     A
C490   C492    1.399   .     A
C490   N519    1.431   .     S
C491   I507    2.148   .     S
C491   C1313   1.418   1_554 S
C492   I508    2.141   .     S
C492   C1314   1.409   .     S
C495   I525    2.135   .     S
C495   C500    1.406   .     A
C495   C773    1.383   .     S
C496   I526    2.141   .     S
C496   C499    1.408   .     A
C497   C499    1.402   .     A
C497   N527    1.426   .     S
C498   C500    1.407   .     A
C498   N533    1.433   .     S
C498   C772    1.392   .     S
C501   N506    1.364   .     A
C501   N539    1.424   .     S
C501   C319    1.430   1_655 S
C502   N505    1.373   .     A
C502   N545    1.421   .     S
C503   I551    2.120   .     S
C503   N505    1.382   .     A
C504   I552    2.143   .     S
C504   N506    1.377   .     A
C504   C318    1.428   1_655 S
N513   H514    1.030   .     S
N513   C515    1.450   .     S
C515   H516    1.110   .     S
C515   H518    1.111   .     S
C515   H517    1.112   .     S
N519   H520    1.028   .     S
N519   C521    1.452   .     S
C521   H524    1.111   .     S
C521   H523    1.104   .     S
C521   H522    1.111   .     S
N527   H528    1.030   .     S
N527   C529    1.449   .     S
C529   H532    1.113   .     S
C529   H530    1.107   .     S
H531   C805    1.112   .     S
N533   H534    1.029   .     S
N533   C535    1.449   .     S
C535   H537    1.111   .     S
C535   H536    1.112   .     S
C535   H538    1.109   .     S
N539   C541    1.451   .     S
N539   H540    1.031   .     S
C541   H544    1.108   .     S
C541   H358    1.111   1_655 S
C541   H359    1.110   1_655 S
N545   C547    1.444   .     S
N545   H546    1.026   .     S
C547   H548    1.107   .     S
C547   H550    1.109   .     S
C547   H549    1.108   .     S
O553   C557    1.306   .     A
O553   Zn565   1.988   .     S
O554   C558    1.303   .     A
O554   Zn566   1.988   .     S
O555   Zn566   2.010   .     S
O555   C557    1.295   .     A
O556   Zn565   2.010   .     S
O556   C558    1.297   .     A
C557   C592    1.457   .     S
C558   C591    1.452   .     S
O559   C563    1.309   .     A
O559   Zn565   1.947   .     S
O560   Zn566   1.947   .     S
O560   C564    1.299   .     A
O561   Zn566   1.909   .     S
O561   C563    1.306   .     A
O562   C564    1.313   .     A
O562   Zn565   1.909   .     S
C563   C567    1.490   .     S
C564   C568    1.481   .     S
Zn565  N597    2.030   .     S
Zn566  N598    2.030   .     S
C567   C571    1.414   .     A
C567   C573    1.390   .     A
C568   C572    1.416   .     A
C568   C574    1.393   .     A
C569   I603    2.150   .     S
C569   C577    1.420   .     A
C569   C571    1.418   .     A
C570   C578    1.416   .     A
C570   C572    1.408   .     A
C570   I696    2.156   .     S
C571   I602    2.110   .     S
C572   I601    2.129   .     S
C573   H586    1.078   .     S
C573   C575    1.401   .     A
C574   C576    1.399   .     A
C574   H585    1.071   .     S
C575   C579    1.413   .     A
C575   C577    1.414   .     A
C576   C578    1.421   .     A
C576   C580    1.421   .     A
C577   C1411   1.418   .     S
C578   C1412   1.409   1_554 S
C579   C582    1.413   .     A
C579   C1408   1.401   .     S
C580   C581    1.422   .     A
C580   C1407   1.401   1_554 S
C581   N605    1.427   .     S
C581   C583    1.415   .     A
C582   C584    1.399   .     A
C582   N611    1.431   .     S
C583   I599    2.148   .     S
C583   C1405   1.418   1_554 S
C584   I600    2.141   .     S
C584   C1406   1.409   .     S
C587   I617    2.135   .     S
C587   C592    1.406   .     A
C587   C37     1.383   1_565 S
C588   I618    2.141   .     S
C588   C591    1.408   .     A
C589   C591    1.402   .     A
C589   N619    1.426   .     S
C590   C592    1.407   .     A
C590   N625    1.433   .     S
C590   C36     1.392   1_565 S
C593   N598    1.364   .     A
C593   N631    1.424   .     S
C593   C687    1.430   .     S
C594   N597    1.373   .     A
C594   N637    1.421   .     S
C594   C780    1.428   1_455 S
C595   I643    2.120   .     S
C595   N597    1.382   .     A
C595   C777    1.430   1_455 S
C596   I644    2.143   .     S
C596   N598    1.377   .     A
C596   C686    1.428   .     S
I604   C754    2.156   1_455 S
N605   H606    1.030   .     S
N605   C607    1.450   .     S
C607   H608    1.110   .     S
C607   H610    1.111   .     S
C607   H609    1.112   .     S
N611   H612    1.028   .     S
N611   C613    1.452   .     S
C613   H616    1.111   .     S
C613   H615    1.104   .     S
C613   H614    1.111   .     S
N619   H620    1.030   .     S
N619   C621    1.449   .     S
C621   H624    1.113   .     S
C621   H622    1.107   .     S
H623   C69     1.112   1_565 S
N625   H626    1.029   .     S
N625   C627    1.449   .     S
C627   H629    1.111   .     S
C627   H628    1.112   .     S
C627   H630    1.109   .     S
N631   C633    1.451   .     S
N631   H632    1.031   .     S
C633   H636    1.108   .     S
C633   H726    1.111   .     S
C633   H727    1.110   .     S
H634   C817    1.111   1_455 S
H635   C817    1.110   1_455 S
N637   C639    1.444   .     S
N637   H638    1.026   .     S
C639   H640    1.107   .     S
C639   H642    1.109   .     S
C639   H641    1.108   .     S
O645   C649    1.306   .     A
O645   Zn657   1.988   .     S
O646   C650    1.303   .     A
O646   Zn658   1.988   .     S
O647   Zn658   2.010   .     S
O647   C649    1.295   .     A
O648   Zn657   2.010   .     S
O648   C650    1.297   .     A
C649   C684    1.457   .     S
C650   C683    1.452   .     S
O651   C655    1.309   .     A
O651   Zn657   1.947   .     S
O652   Zn658   1.947   .     S
O652   C656    1.299   .     A
O653   Zn658   1.909   .     S
O653   C655    1.306   .     A
O654   C656    1.313   .     A
O654   Zn657   1.909   .     S
C655   C659    1.490   .     S
C656   C660    1.481   .     S
Zn657  N689    2.030   .     S
Zn658  N690    2.030   .     S
C659   C663    1.414   .     A
C659   C665    1.390   .     A
C660   C664    1.416   .     A
C660   C666    1.393   .     A
C661   I695    2.150   .     S
C661   C669    1.420   .     A
C661   C663    1.418   .     A
C662   C670    1.416   .     A
C662   C664    1.408   .     A
C662   I788    2.156   .     S
C663   I694    2.110   .     S
C664   I693    2.129   .     S
C665   H678    1.078   .     S
C665   C667    1.401   .     A
C666   C668    1.399   .     A
C666   H677    1.071   .     S
C667   C671    1.413   .     A
C667   C669    1.414   .     A
C668   C670    1.421   .     A
C668   C672    1.421   .     A
C669   C1503   1.418   .     S
C670   C1504   1.409   1_554 S
C671   C674    1.413   .     A
C671   C1500   1.401   .     S
C672   C673    1.422   .     A
C672   C1499   1.401   1_554 S
C673   N697    1.427   .     S
C673   C675    1.415   .     A
C674   C676    1.399   .     A
C674   N703    1.431   .     S
C675   I691    2.148   .     S
C675   C1497   1.418   1_554 S
C676   I692    2.141   .     S
C676   C1498   1.409   .     S
C679   I709    2.135   .     S
C679   C684    1.406   .     A
C679   C129    1.383   1_565 S
C680   I710    2.141   .     S
C680   C683    1.408   .     A
C681   C683    1.402   .     A
C681   N711    1.426   .     S
C682   C684    1.407   .     A
C682   N717    1.433   .     S
C682   C128    1.392   1_565 S
C685   N690    1.364   .     A
C685   N723    1.424   .     S
C685   C779    1.430   .     S
C686   N689    1.373   .     A
C686   N729    1.421   .     S
C687   I735    2.120   .     S
C687   N689    1.382   .     A
C688   I736    2.143   .     S
C688   N690    1.377   .     A
C688   C778    1.428   .     S
N697   H698    1.030   .     S
N697   C699    1.450   .     S
C699   H700    1.110   .     S
C699   H702    1.111   .     S
C699   H701    1.112   .     S
N703   H704    1.028   .     S
N703   C705    1.452   .     S
C705   H708    1.111   .     S
C705   H707    1.104   .     S
C705   H706    1.111   .     S
N711   H712    1.030   .     S
N711   C713    1.449   .     S
C713   H716    1.113   .     S
C713   H714    1.107   .     S
H715   C161    1.112   1_565 S
N717   H718    1.029   .     S
N717   C719    1.449   .     S
C719   H721    1.111   .     S
C719   H720    1.112   .     S
C719   H722    1.109   .     S
N723   C725    1.451   .     S
N723   H724    1.031   .     S
C725   H728    1.108   .     S
C725   H818    1.111   .     S
C725   H819    1.110   .     S
N729   C731    1.444   .     S
N729   H730    1.026   .     S
C731   H732    1.107   .     S
C731   H734    1.109   .     S
C731   H733    1.108   .     S
O737   C741    1.306   .     A
O737   Zn749   1.988   .     S
O738   C742    1.303   .     A
O738   Zn750   1.988   .     S
O739   Zn750   2.010   .     S
O739   C741    1.295   .     A
O740   Zn749   2.010   .     S
O740   C742    1.297   .     A
C741   C776    1.457   .     S
C742   C775    1.452   .     S
O743   C747    1.309   .     A
O743   Zn749   1.947   .     S
O744   Zn750   1.947   .     S
O744   C748    1.299   .     A
O745   Zn750   1.909   .     S
O745   C747    1.306   .     A
O746   C748    1.313   .     A
O746   Zn749   1.909   .     S
C747   C751    1.490   .     S
C748   C752    1.481   .     S
Zn749  N781    2.030   .     S
Zn750  N782    2.030   .     S
C751   C755    1.414   .     A
C751   C757    1.390   .     A
C752   C756    1.416   .     A
C752   C758    1.393   .     A
C753   I787    2.150   .     S
C753   C761    1.420   .     A
C753   C755    1.418   .     A
C754   C762    1.416   .     A
C754   C756    1.408   .     A
C754   I604    2.156   1_655 S
C755   I786    2.110   .     S
C756   I785    2.129   .     S
C757   H770    1.078   .     S
C757   C759    1.401   .     A
C758   C760    1.399   .     A
C758   H769    1.071   .     S
C759   C763    1.413   .     A
C759   C761    1.414   .     A
C760   C762    1.421   .     A
C760   C764    1.421   .     A
C761   C1595   1.418   .     S
C762   C1596   1.409   1_554 S
C763   C766    1.413   .     A
C763   C1592   1.401   .     S
C764   C765    1.422   .     A
C764   C1591   1.401   1_554 S
C765   N789    1.427   .     S
C765   C767    1.415   .     A
C766   C768    1.399   .     A
C766   N795    1.431   .     S
C767   I783    2.148   .     S
C767   C1589   1.418   1_554 S
C768   I784    2.141   .     S
C768   C1590   1.409   .     S
C771   I801    2.135   .     S
C771   C776    1.406   .     A
C771   C221    1.383   1_565 S
C772   I802    2.141   .     S
C772   C775    1.408   .     A
C773   C775    1.402   .     A
C773   N803    1.426   .     S
C774   C776    1.407   .     A
C774   N809    1.433   .     S
C774   C220    1.392   1_565 S
C777   N782    1.364   .     A
C777   N815    1.424   .     S
C777   C595    1.430   1_655 S
C778   N781    1.373   .     A
C778   N821    1.421   .     S
C779   I827    2.120   .     S
C779   N781    1.382   .     A
C780   I828    2.143   .     S
C780   N782    1.377   .     A
C780   C594    1.428   1_655 S
N789   H790    1.030   .     S
N789   C791    1.450   .     S
C791   H792    1.110   .     S
C791   H794    1.111   .     S
C791   H793    1.112   .     S
N795   H796    1.028   .     S
N795   C797    1.452   .     S
C797   H800    1.111   .     S
C797   H799    1.104   .     S
C797   H798    1.111   .     S
N803   H804    1.030   .     S
N803   C805    1.449   .     S
C805   H808    1.113   .     S
C805   H806    1.107   .     S
H807   C253    1.112   1_565 S
N809   H810    1.029   .     S
N809   C811    1.449   .     S
C811   H813    1.111   .     S
C811   H812    1.112   .     S
C811   H814    1.109   .     S
N815   C817    1.451   .     S
N815   H816    1.031   .     S
C817   H820    1.108   .     S
C817   H634    1.111   1_655 S
C817   H635    1.110   1_655 S
N821   C823    1.444   .     S
N821   H822    1.026   .     S
C823   H824    1.107   .     S
C823   H826    1.109   .     S
C823   H825    1.108   .     S
O829   C833    1.306   .     A
O829   Zn841   1.988   .     S
O830   C834    1.303   .     A
O830   Zn842   1.988   .     S
O831   Zn842   2.010   .     S
O831   C833    1.295   .     A
O832   Zn841   2.010   .     S
O832   C834    1.297   .     A
C833   C868    1.457   .     S
C834   C867    1.452   .     S
O835   C839    1.309   .     A
O835   Zn841   1.947   .     S
O836   Zn842   1.947   .     S
O836   C840    1.299   .     A
O837   Zn842   1.909   .     S
O837   C839    1.306   .     A
O838   C840    1.313   .     A
O838   Zn841   1.909   .     S
C839   C843    1.490   .     S
C840   C844    1.481   .     S
Zn841  N873    2.030   .     S
Zn842  N874    2.030   .     S
C843   C847    1.414   .     A
C843   C849    1.390   .     A
C844   C848    1.416   .     A
C844   C850    1.393   .     A
C845   I879    2.150   .     S
C845   C853    1.420   .     A
C845   C847    1.418   .     A
C846   C854    1.416   .     A
C846   C848    1.408   .     A
C846   I972    2.156   .     S
C847   I878    2.110   .     S
C848   I877    2.129   .     S
C849   H862    1.078   .     S
C849   C851    1.401   .     A
C850   C852    1.399   .     A
C850   H861    1.071   .     S
C851   C855    1.413   .     A
C851   C853    1.414   .     A
C852   C854    1.421   .     A
C852   C856    1.421   .     A
C853   C31     1.418   1_556 S
C855   C858    1.413   .     A
C855   C28     1.401   1_556 S
C856   C857    1.422   .     A
C857   N881    1.427   .     S
C857   C859    1.415   .     A
C858   C860    1.399   .     A
C858   N887    1.431   .     S
C859   I875    2.148   .     S
C860   I876    2.141   .     S
C860   C26     1.409   1_556 S
C863   I893    2.135   .     S
C863   C868    1.406   .     A
C863   C1141   1.383   .     S
C864   I894    2.141   .     S
C864   C867    1.408   .     A
C864   C1418   1.392   1_545 S
C865   C867    1.402   .     A
C865   N895    1.426   .     S
C865   C1415   1.383   1_545 S
C866   C868    1.407   .     A
C866   N901    1.433   .     S
C866   C1140   1.392   .     S
C869   N874    1.364   .     A
C869   N907    1.424   .     S
C869   C963    1.430   .     S
C870   N873    1.373   .     A
C870   N913    1.421   .     S
C870   C1056   1.428   1_455 S
C871   I919    2.120   .     S
C871   N873    1.382   .     A
C871   C1053   1.430   1_455 S
C872   I920    2.143   .     S
C872   N874    1.377   .     A
C872   C962    1.428   .     S
I880   C1030   2.156   1_455 S
N881   H882    1.030   .     S
N881   C883    1.450   .     S
C883   H884    1.110   .     S
C883   H886    1.111   .     S
C883   H885    1.112   .     S
N887   H888    1.028   .     S
N887   C889    1.452   .     S
C889   H892    1.111   .     S
C889   H891    1.104   .     S
C889   H890    1.111   .     S
N895   H896    1.030   .     S
N895   C897    1.449   .     S
C897   H900    1.113   .     S
C897   H898    1.107   .     S
C897   H1451   1.112   1_545 S
H899   C1173   1.112   .     S
N901   H902    1.029   .     S
N901   C903    1.449   .     S
C903   H905    1.111   .     S
C903   H904    1.112   .     S
C903   H906    1.109   .     S
N907   C909    1.451   .     S
N907   H908    1.031   .     S
C909   H912    1.108   .     S
C909   H1002   1.111   .     S
C909   H1003   1.110   .     S
H910   C1093   1.111   1_455 S
H911   C1093   1.110   1_455 S
N913   C915    1.444   .     S
N913   H914    1.026   .     S
C915   H916    1.107   .     S
C915   H918    1.109   .     S
C915   H917    1.108   .     S
O921   C925    1.306   .     A
O921   Zn933   1.988   .     S
O922   C926    1.303   .     A
O922   Zn934   1.988   .     S
O923   Zn934   2.010   .     S
O923   C925    1.295   .     A
O924   Zn933   2.010   .     S
O924   C926    1.297   .     A
C925   C960    1.457   .     S
C926   C959    1.452   .     S
O927   C931    1.309   .     A
O927   Zn933   1.947   .     S
O928   Zn934   1.947   .     S
O928   C932    1.299   .     A
O929   Zn934   1.909   .     S
O929   C931    1.306   .     A
O930   C932    1.313   .     A
O930   Zn933   1.909   .     S
C931   C935    1.490   .     S
C932   C936    1.481   .     S
Zn933  N965    2.030   .     S
Zn934  N966    2.030   .     S
C935   C939    1.414   .     A
C935   C941    1.390   .     A
C936   C940    1.416   .     A
C936   C942    1.393   .     A
C937   I971    2.150   .     S
C937   C945    1.420   .     A
C937   C939    1.418   .     A
C938   C946    1.416   .     A
C938   C940    1.408   .     A
C938   I1064   2.156   .     S
C939   I970    2.110   .     S
C940   I969    2.129   .     S
C941   H954    1.078   .     S
C941   C943    1.401   .     A
C942   C944    1.399   .     A
C942   H953    1.071   .     S
C943   C947    1.413   .     A
C943   C945    1.414   .     A
C944   C946    1.421   .     A
C944   C948    1.421   .     A
C945   C123    1.418   1_556 S
C947   C950    1.413   .     A
C947   C120    1.401   1_556 S
C948   C949    1.422   .     A
C949   N973    1.427   .     S
C949   C951    1.415   .     A
C950   C952    1.399   .     A
C950   N979    1.431   .     S
C951   I967    2.148   .     S
C952   I968    2.141   .     S
C952   C118    1.409   1_556 S
C955   I985    2.135   .     S
C955   C960    1.406   .     A
C955   C1233   1.383   .     S
C956   I986    2.141   .     S
C956   C959    1.408   .     A
C956   C1510   1.392   1_545 S
C957   C959    1.402   .     A
C957   N987    1.426   .     S
C957   C1507   1.383   1_545 S
C958   C960    1.407   .     A
C958   N993    1.433   .     S
C958   C1232   1.392   .     S
C961   N966    1.364   .     A
C961   N999    1.424   .     S
C961   C1055   1.430   .     S
C962   N965    1.373   .     A
C962   N1005   1.421   .     S
C963   I1011   2.120   .     S
C963   N965    1.382   .     A
C964   I1012   2.143   .     S
C964   N966    1.377   .     A
C964   C1054   1.428   .     S
N973   H974    1.030   .     S
N973   C975    1.450   .     S
C975   H976    1.110   .     S
C975   H978    1.111   .     S
C975   H977    1.112   .     S
N979   H980    1.028   .     S
N979   C981    1.452   .     S
C981   H984    1.111   .     S
C981   H983    1.104   .     S
C981   H982    1.111   .     S
N987   H988    1.030   .     S
N987   C989    1.449   .     S
C989   H992    1.113   .     S
C989   H990    1.107   .     S
C989   H1543   1.112   1_545 S
H991   C1265   1.112   .     S
N993   H994    1.029   .     S
N993   C995    1.449   .     S
C995   H997    1.111   .     S
C995   H996    1.112   .     S
C995   H998    1.109   .     S
N999   C1001   1.451   .     S
N999   H1000   1.031   .     S
C1001  H1004   1.108   .     S
C1001  H1094   1.111   .     S
C1001  H1095   1.110   .     S
N1005  C1007   1.444   .     S
N1005  H1006   1.026   .     S
C1007  H1008   1.107   .     S
C1007  H1010   1.109   .     S
C1007  H1009   1.108   .     S
O1013  C1017   1.306   .     A
O1013  Zn1025  1.988   .     S
O1014  C1018   1.303   .     A
O1014  Zn1026  1.988   .     S
O1015  Zn1026  2.010   .     S
O1015  C1017   1.295   .     A
O1016  Zn1025  2.010   .     S
O1016  C1018   1.297   .     A
C1017  C1052   1.457   .     S
C1018  C1051   1.452   .     S
O1019  C1023   1.309   .     A
O1019  Zn1025  1.947   .     S
O1020  Zn1026  1.947   .     S
O1020  C1024   1.299   .     A
O1021  Zn1026  1.909   .     S
O1021  C1023   1.306   .     A
O1022  C1024   1.313   .     A
O1022  Zn1025  1.909   .     S
C1023  C1027   1.490   .     S
C1024  C1028   1.481   .     S
Zn1025 N1057   2.030   .     S
Zn1026 N1058   2.030   .     S
C1027  C1031   1.414   .     A
C1027  C1033   1.390   .     A
C1028  C1032   1.416   .     A
C1028  C1034   1.393   .     A
C1029  I1063   2.150   .     S
C1029  C1037   1.420   .     A
C1029  C1031   1.418   .     A
C1030  C1038   1.416   .     A
C1030  C1032   1.408   .     A
C1030  I880    2.156   1_655 S
C1031  I1062   2.110   .     S
C1032  I1061   2.129   .     S
C1033  H1046   1.078   .     S
C1033  C1035   1.401   .     A
C1034  C1036   1.399   .     A
C1034  H1045   1.071   .     S
C1035  C1039   1.413   .     A
C1035  C1037   1.414   .     A
C1036  C1038   1.421   .     A
C1036  C1040   1.421   .     A
C1037  C215    1.418   1_556 S
C1039  C1042   1.413   .     A
C1039  C212    1.401   1_556 S
C1040  C1041   1.422   .     A
C1041  N1065   1.427   .     S
C1041  C1043   1.415   .     A
C1042  C1044   1.399   .     A
C1042  N1071   1.431   .     S
C1043  I1059   2.148   .     S
C1044  I1060   2.141   .     S
C1044  C210    1.409   1_556 S
C1047  I1077   2.135   .     S
C1047  C1052   1.406   .     A
C1047  C1325   1.383   .     S
C1048  I1078   2.141   .     S
C1048  C1051   1.408   .     A
C1048  C1602   1.392   1_545 S
C1049  C1051   1.402   .     A
C1049  N1079   1.426   .     S
C1049  C1599   1.383   1_545 S
C1050  C1052   1.407   .     A
C1050  N1085   1.433   .     S
C1050  C1324   1.392   .     S
C1053  N1058   1.364   .     A
C1053  N1091   1.424   .     S
C1053  C871    1.430   1_655 S
C1054  N1057   1.373   .     A
C1054  N1097   1.421   .     S
C1055  I1103   2.120   .     S
C1055  N1057   1.382   .     A
C1056  I1104   2.143   .     S
C1056  N1058   1.377   .     A
C1056  C870    1.428   1_655 S
N1065  H1066   1.030   .     S
N1065  C1067   1.450   .     S
C1067  H1068   1.110   .     S
C1067  H1070   1.111   .     S
C1067  H1069   1.112   .     S
N1071  H1072   1.028   .     S
N1071  C1073   1.452   .     S
C1073  H1076   1.111   .     S
C1073  H1075   1.104   .     S
C1073  H1074   1.111   .     S
N1079  H1080   1.030   .     S
N1079  C1081   1.449   .     S
C1081  H1084   1.113   .     S
C1081  H1082   1.107   .     S
C1081  H1635   1.112   1_545 S
H1083  C1357   1.112   .     S
N1085  H1086   1.029   .     S
N1085  C1087   1.449   .     S
C1087  H1089   1.111   .     S
C1087  H1088   1.112   .     S
C1087  H1090   1.109   .     S
N1091  C1093   1.451   .     S
N1091  H1092   1.031   .     S
C1093  H1096   1.108   .     S
C1093  H910    1.111   1_655 S
C1093  H911    1.110   1_655 S
N1097  C1099   1.444   .     S
N1097  H1098   1.026   .     S
C1099  H1100   1.107   .     S
C1099  H1102   1.109   .     S
C1099  H1101   1.108   .     S
O1105  C1109   1.306   .     A
O1105  Zn1117  1.988   .     S
O1106  C1110   1.303   .     A
O1106  Zn1118  1.988   .     S
O1107  Zn1118  2.010   .     S
O1107  C1109   1.295   .     A
O1108  Zn1117  2.010   .     S
O1108  C1110   1.297   .     A
C1109  C1144   1.457   .     S
C1110  C1143   1.452   .     S
O1111  C1115   1.309   .     A
O1111  Zn1117  1.947   .     S
O1112  Zn1118  1.947   .     S
O1112  C1116   1.299   .     A
O1113  Zn1118  1.909   .     S
O1113  C1115   1.306   .     A
O1114  C1116   1.313   .     A
O1114  Zn1117  1.909   .     S
C1115  C1119   1.490   .     S
C1116  C1120   1.481   .     S
Zn1117 N1149   2.030   .     S
Zn1118 N1150   2.030   .     S
C1119  C1123   1.414   .     A
C1119  C1125   1.390   .     A
C1120  C1124   1.416   .     A
C1120  C1126   1.393   .     A
C1121  I1155   2.150   .     S
C1121  C1129   1.420   .     A
C1121  C1123   1.418   .     A
C1122  C1130   1.416   .     A
C1122  C1124   1.408   .     A
C1122  I1248   2.156   .     S
C1123  I1154   2.110   .     S
C1124  I1153   2.129   .     S
C1125  H1138   1.078   .     S
C1125  C1127   1.401   .     A
C1126  C1128   1.399   .     A
C1126  H1137   1.071   .     S
C1127  C1131   1.413   .     A
C1127  C1129   1.414   .     A
C1128  C1130   1.421   .     A
C1128  C1132   1.421   .     A
C1129  C307    1.418   1_556 S
C1131  C1134   1.413   .     A
C1131  C304    1.401   1_556 S
C1132  C1133   1.422   .     A
C1133  N1157   1.427   .     S
C1133  C1135   1.415   .     A
C1134  C1136   1.399   .     A
C1134  N1163   1.431   .     S
C1135  I1151   2.148   .     S
C1136  I1152   2.141   .     S
C1136  C302    1.409   1_556 S
C1139  I1169   2.135   .     S
C1139  C1144   1.406   .     A
C1139  C1417   1.383   .     S
C1140  I1170   2.141   .     S
C1140  C1143   1.408   .     A
C1141  C1143   1.402   .     A
C1141  N1171   1.426   .     S
C1142  C1144   1.407   .     A
C1142  N1177   1.433   .     S
C1142  C1416   1.392   .     S
C1145  N1150   1.364   .     A
C1145  N1183   1.424   .     S
C1145  C1239   1.430   .     S
C1146  N1149   1.373   .     A
C1146  N1189   1.421   .     S
C1146  C1332   1.428   1_455 S
C1147  I1195   2.120   .     S
C1147  N1149   1.382   .     A
C1147  C1329   1.430   1_455 S
C1148  I1196   2.143   .     S
C1148  N1150   1.377   .     A
C1148  C1238   1.428   .     S
I1156  C1306   2.156   1_455 S
N1157  H1158   1.030   .     S
N1157  C1159   1.450   .     S
C1159  H1160   1.110   .     S
C1159  H1162   1.111   .     S
C1159  H1161   1.112   .     S
N1163  H1164   1.028   .     S
N1163  C1165   1.452   .     S
C1165  H1168   1.111   .     S
C1165  H1167   1.104   .     S
C1165  H1166   1.111   .     S
N1171  H1172   1.030   .     S
N1171  C1173   1.449   .     S
C1173  H1176   1.113   .     S
C1173  H1174   1.107   .     S
H1175  C1449   1.112   .     S
N1177  H1178   1.029   .     S
N1177  C1179   1.449   .     S
C1179  H1181   1.111   .     S
C1179  H1180   1.112   .     S
C1179  H1182   1.109   .     S
N1183  C1185   1.451   .     S
N1183  H1184   1.031   .     S
C1185  H1188   1.108   .     S
C1185  H1278   1.111   .     S
C1185  H1279   1.110   .     S
H1186  C1369   1.111   1_455 S
H1187  C1369   1.110   1_455 S
N1189  C1191   1.444   .     S
N1189  H1190   1.026   .     S
C1191  H1192   1.107   .     S
C1191  H1194   1.109   .     S
C1191  H1193   1.108   .     S
O1197  C1201   1.306   .     A
O1197  Zn1209  1.988   .     S
O1198  C1202   1.303   .     A
O1198  Zn1210  1.988   .     S
O1199  Zn1210  2.010   .     S
O1199  C1201   1.295   .     A
O1200  Zn1209  2.010   .     S
O1200  C1202   1.297   .     A
C1201  C1236   1.457   .     S
C1202  C1235   1.452   .     S
O1203  C1207   1.309   .     A
O1203  Zn1209  1.947   .     S
O1204  Zn1210  1.947   .     S
O1204  C1208   1.299   .     A
O1205  Zn1210  1.909   .     S
O1205  C1207   1.306   .     A
O1206  C1208   1.313   .     A
O1206  Zn1209  1.909   .     S
C1207  C1211   1.490   .     S
C1208  C1212   1.481   .     S
Zn1209 N1241   2.030   .     S
Zn1210 N1242   2.030   .     S
C1211  C1215   1.414   .     A
C1211  C1217   1.390   .     A
C1212  C1216   1.416   .     A
C1212  C1218   1.393   .     A
C1213  I1247   2.150   .     S
C1213  C1221   1.420   .     A
C1213  C1215   1.418   .     A
C1214  C1222   1.416   .     A
C1214  C1216   1.408   .     A
C1214  I1340   2.156   .     S
C1215  I1246   2.110   .     S
C1216  I1245   2.129   .     S
C1217  H1230   1.078   .     S
C1217  C1219   1.401   .     A
C1218  C1220   1.399   .     A
C1218  H1229   1.071   .     S
C1219  C1223   1.413   .     A
C1219  C1221   1.414   .     A
C1220  C1222   1.421   .     A
C1220  C1224   1.421   .     A
C1221  C399    1.418   1_556 S
C1223  C1226   1.413   .     A
C1223  C396    1.401   1_556 S
C1224  C1225   1.422   .     A
C1225  N1249   1.427   .     S
C1225  C1227   1.415   .     A
C1226  C1228   1.399   .     A
C1226  N1255   1.431   .     S
C1227  I1243   2.148   .     S
C1228  I1244   2.141   .     S
C1228  C394    1.409   1_556 S
C1231  I1261   2.135   .     S
C1231  C1236   1.406   .     A
C1231  C1509   1.383   .     S
C1232  I1262   2.141   .     S
C1232  C1235   1.408   .     A
C1233  C1235   1.402   .     A
C1233  N1263   1.426   .     S
C1234  C1236   1.407   .     A
C1234  N1269   1.433   .     S
C1234  C1508   1.392   .     S
C1237  N1242   1.364   .     A
C1237  N1275   1.424   .     S
C1237  C1331   1.430   .     S
C1238  N1241   1.373   .     A
C1238  N1281   1.421   .     S
C1239  I1287   2.120   .     S
C1239  N1241   1.382   .     A
C1240  I1288   2.143   .     S
C1240  N1242   1.377   .     A
C1240  C1330   1.428   .     S
N1249  H1250   1.030   .     S
N1249  C1251   1.450   .     S
C1251  H1252   1.110   .     S
C1251  H1254   1.111   .     S
C1251  H1253   1.112   .     S
N1255  H1256   1.028   .     S
N1255  C1257   1.452   .     S
C1257  H1260   1.111   .     S
C1257  H1259   1.104   .     S
C1257  H1258   1.111   .     S
N1263  H1264   1.030   .     S
N1263  C1265   1.449   .     S
C1265  H1268   1.113   .     S
C1265  H1266   1.107   .     S
H1267  C1541   1.112   .     S
N1269  H1270   1.029   .     S
N1269  C1271   1.449   .     S
C1271  H1273   1.111   .     S
C1271  H1272   1.112   .     S
C1271  H1274   1.109   .     S
N1275  C1277   1.451   .     S
N1275  H1276   1.031   .     S
C1277  H1280   1.108   .     S
C1277  H1370   1.111   .     S
C1277  H1371   1.110   .     S
N1281  C1283   1.444   .     S
N1281  H1282   1.026   .     S
C1283  H1284   1.107   .     S
C1283  H1286   1.109   .     S
C1283  H1285   1.108   .     S
O1289  C1293   1.306   .     A
O1289  Zn1301  1.988   .     S
O1290  C1294   1.303   .     A
O1290  Zn1302  1.988   .     S
O1291  Zn1302  2.010   .     S
O1291  C1293   1.295   .     A
O1292  Zn1301  2.010   .     S
O1292  C1294   1.297   .     A
C1293  C1328   1.457   .     S
C1294  C1327   1.452   .     S
O1295  C1299   1.309   .     A
O1295  Zn1301  1.947   .     S
O1296  Zn1302  1.947   .     S
O1296  C1300   1.299   .     A
O1297  Zn1302  1.909   .     S
O1297  C1299   1.306   .     A
O1298  C1300   1.313   .     A
O1298  Zn1301  1.909   .     S
C1299  C1303   1.490   .     S
C1300  C1304   1.481   .     S
Zn1301 N1333   2.030   .     S
Zn1302 N1334   2.030   .     S
C1303  C1307   1.414   .     A
C1303  C1309   1.390   .     A
C1304  C1308   1.416   .     A
C1304  C1310   1.393   .     A
C1305  I1339   2.150   .     S
C1305  C1313   1.420   .     A
C1305  C1307   1.418   .     A
C1306  C1314   1.416   .     A
C1306  C1308   1.408   .     A
C1306  I1156   2.156   1_655 S
C1307  I1338   2.110   .     S
C1308  I1337   2.129   .     S
C1309  H1322   1.078   .     S
C1309  C1311   1.401   .     A
C1310  C1312   1.399   .     A
C1310  H1321   1.071   .     S
C1311  C1315   1.413   .     A
C1311  C1313   1.414   .     A
C1312  C1314   1.421   .     A
C1312  C1316   1.421   .     A
C1313  C491    1.418   1_556 S
C1315  C1318   1.413   .     A
C1315  C488    1.401   1_556 S
C1316  C1317   1.422   .     A
C1317  N1341   1.427   .     S
C1317  C1319   1.415   .     A
C1318  C1320   1.399   .     A
C1318  N1347   1.431   .     S
C1319  I1335   2.148   .     S
C1320  I1336   2.141   .     S
C1320  C486    1.409   1_556 S
C1323  I1353   2.135   .     S
C1323  C1328   1.406   .     A
C1323  C1601   1.383   .     S
C1324  I1354   2.141   .     S
C1324  C1327   1.408   .     A
C1325  C1327   1.402   .     A
C1325  N1355   1.426   .     S
C1326  C1328   1.407   .     A
C1326  N1361   1.433   .     S
C1326  C1600   1.392   .     S
C1329  N1334   1.364   .     A
C1329  N1367   1.424   .     S
C1329  C1147   1.430   1_655 S
C1330  N1333   1.373   .     A
C1330  N1373   1.421   .     S
C1331  I1379   2.120   .     S
C1331  N1333   1.382   .     A
C1332  I1380   2.143   .     S
C1332  N1334   1.377   .     A
C1332  C1146   1.428   1_655 S
N1341  H1342   1.030   .     S
N1341  C1343   1.450   .     S
C1343  H1344   1.110   .     S
C1343  H1346   1.111   .     S
C1343  H1345   1.112   .     S
N1347  H1348   1.028   .     S
N1347  C1349   1.452   .     S
C1349  H1352   1.111   .     S
C1349  H1351   1.104   .     S
C1349  H1350   1.111   .     S
N1355  H1356   1.030   .     S
N1355  C1357   1.449   .     S
C1357  H1360   1.113   .     S
C1357  H1358   1.107   .     S
H1359  C1633   1.112   .     S
N1361  H1362   1.029   .     S
N1361  C1363   1.449   .     S
C1363  H1365   1.111   .     S
C1363  H1364   1.112   .     S
C1363  H1366   1.109   .     S
N1367  C1369   1.451   .     S
N1367  H1368   1.031   .     S
C1369  H1372   1.108   .     S
C1369  H1186   1.111   1_655 S
C1369  H1187   1.110   1_655 S
N1373  C1375   1.444   .     S
N1373  H1374   1.026   .     S
C1375  H1376   1.107   .     S
C1375  H1378   1.109   .     S
C1375  H1377   1.108   .     S
O1381  C1385   1.306   .     A
O1381  Zn1393  1.988   .     S
O1382  C1386   1.303   .     A
O1382  Zn1394  1.988   .     S
O1383  Zn1394  2.010   .     S
O1383  C1385   1.295   .     A
O1384  Zn1393  2.010   .     S
O1384  C1386   1.297   .     A
C1385  C1420   1.457   .     S
C1386  C1419   1.452   .     S
O1387  C1391   1.309   .     A
O1387  Zn1393  1.947   .     S
O1388  Zn1394  1.947   .     S
O1388  C1392   1.299   .     A
O1389  Zn1394  1.909   .     S
O1389  C1391   1.306   .     A
O1390  C1392   1.313   .     A
O1390  Zn1393  1.909   .     S
C1391  C1395   1.490   .     S
C1392  C1396   1.481   .     S
Zn1393 N1425   2.030   .     S
Zn1394 N1426   2.030   .     S
C1395  C1399   1.414   .     A
C1395  C1401   1.390   .     A
C1396  C1400   1.416   .     A
C1396  C1402   1.393   .     A
C1397  I1431   2.150   .     S
C1397  C1405   1.420   .     A
C1397  C1399   1.418   .     A
C1398  C1406   1.416   .     A
C1398  C1400   1.408   .     A
C1398  I1524   2.156   .     S
C1399  I1430   2.110   .     S
C1400  I1429   2.129   .     S
C1401  H1414   1.078   .     S
C1401  C1403   1.401   .     A
C1402  C1404   1.399   .     A
C1402  H1413   1.071   .     S
C1403  C1407   1.413   .     A
C1403  C1405   1.414   .     A
C1404  C1406   1.421   .     A
C1404  C1408   1.421   .     A
C1405  C583    1.418   1_556 S
C1407  C1410   1.413   .     A
C1407  C580    1.401   1_556 S
C1408  C1409   1.422   .     A
C1409  N1433   1.427   .     S
C1409  C1411   1.415   .     A
C1410  C1412   1.399   .     A
C1410  N1439   1.431   .     S
C1411  I1427   2.148   .     S
C1412  I1428   2.141   .     S
C1412  C578    1.409   1_556 S
C1415  I1445   2.135   .     S
C1415  C1420   1.406   .     A
C1415  C865    1.383   1_565 S
C1416  I1446   2.141   .     S
C1416  C1419   1.408   .     A
C1417  C1419   1.402   .     A
C1417  N1447   1.426   .     S
C1418  C1420   1.407   .     A
C1418  N1453   1.433   .     S
C1418  C864    1.392   1_565 S
C1421  N1426   1.364   .     A
C1421  N1459   1.424   .     S
C1421  C1515   1.430   .     S
C1422  N1425   1.373   .     A
C1422  N1465   1.421   .     S
C1422  C1608   1.428   1_455 S
C1423  I1471   2.120   .     S
C1423  N1425   1.382   .     A
C1423  C1605   1.430   1_455 S
C1424  I1472   2.143   .     S
C1424  N1426   1.377   .     A
C1424  C1514   1.428   .     S
I1432  C1582   2.156   1_455 S
N1433  H1434   1.030   .     S
N1433  C1435   1.450   .     S
C1435  H1436   1.110   .     S
C1435  H1438   1.111   .     S
C1435  H1437   1.112   .     S
N1439  H1440   1.028   .     S
N1439  C1441   1.452   .     S
C1441  H1444   1.111   .     S
C1441  H1443   1.104   .     S
C1441  H1442   1.111   .     S
N1447  H1448   1.030   .     S
N1447  C1449   1.449   .     S
C1449  H1452   1.113   .     S
C1449  H1450   1.107   .     S
H1451  C897    1.112   1_565 S
N1453  H1454   1.029   .     S
N1453  C1455   1.449   .     S
C1455  H1457   1.111   .     S
C1455  H1456   1.112   .     S
C1455  H1458   1.109   .     S
N1459  C1461   1.451   .     S
N1459  H1460   1.031   .     S
C1461  H1464   1.108   .     S
C1461  H1554   1.111   .     S
C1461  H1555   1.110   .     S
H1462  C1645   1.111   1_455 S
H1463  C1645   1.110   1_455 S
N1465  C1467   1.444   .     S
N1465  H1466   1.026   .     S
C1467  H1468   1.107   .     S
C1467  H1470   1.109   .     S
C1467  H1469   1.108   .     S
O1473  C1477   1.306   .     A
O1473  Zn1485  1.988   .     S
O1474  C1478   1.303   .     A
O1474  Zn1486  1.988   .     S
O1475  Zn1486  2.010   .     S
O1475  C1477   1.295   .     A
O1476  Zn1485  2.010   .     S
O1476  C1478   1.297   .     A
C1477  C1512   1.457   .     S
C1478  C1511   1.452   .     S
O1479  C1483   1.309   .     A
O1479  Zn1485  1.947   .     S
O1480  Zn1486  1.947   .     S
O1480  C1484   1.299   .     A
O1481  Zn1486  1.909   .     S
O1481  C1483   1.306   .     A
O1482  C1484   1.313   .     A
O1482  Zn1485  1.909   .     S
C1483  C1487   1.490   .     S
C1484  C1488   1.481   .     S
Zn1485 N1517   2.030   .     S
Zn1486 N1518   2.030   .     S
C1487  C1491   1.414   .     A
C1487  C1493   1.390   .     A
C1488  C1492   1.416   .     A
C1488  C1494   1.393   .     A
C1489  I1523   2.150   .     S
C1489  C1497   1.420   .     A
C1489  C1491   1.418   .     A
C1490  C1498   1.416   .     A
C1490  C1492   1.408   .     A
C1490  I1616   2.156   .     S
C1491  I1522   2.110   .     S
C1492  I1521   2.129   .     S
C1493  H1506   1.078   .     S
C1493  C1495   1.401   .     A
C1494  C1496   1.399   .     A
C1494  H1505   1.071   .     S
C1495  C1499   1.413   .     A
C1495  C1497   1.414   .     A
C1496  C1498   1.421   .     A
C1496  C1500   1.421   .     A
C1497  C675    1.418   1_556 S
C1499  C1502   1.413   .     A
C1499  C672    1.401   1_556 S
C1500  C1501   1.422   .     A
C1501  N1525   1.427   .     S
C1501  C1503   1.415   .     A
C1502  C1504   1.399   .     A
C1502  N1531   1.431   .     S
C1503  I1519   2.148   .     S
C1504  I1520   2.141   .     S
C1504  C670    1.409   1_556 S
C1507  I1537   2.135   .     S
C1507  C1512   1.406   .     A
C1507  C957    1.383   1_565 S
C1508  I1538   2.141   .     S
C1508  C1511   1.408   .     A
C1509  C1511   1.402   .     A
C1509  N1539   1.426   .     S
C1510  C1512   1.407   .     A
C1510  N1545   1.433   .     S
C1510  C956    1.392   1_565 S
C1513  N1518   1.364   .     A
C1513  N1551   1.424   .     S
C1513  C1607   1.430   .     S
C1514  N1517   1.373   .     A
C1514  N1557   1.421   .     S
C1515  I1563   2.120   .     S
C1515  N1517   1.382   .     A
C1516  I1564   2.143   .     S
C1516  N1518   1.377   .     A
C1516  C1606   1.428   .     S
N1525  H1526   1.030   .     S
N1525  C1527   1.450   .     S
C1527  H1528   1.110   .     S
C1527  H1530   1.111   .     S
C1527  H1529   1.112   .     S
N1531  H1532   1.028   .     S
N1531  C1533   1.452   .     S
C1533  H1536   1.111   .     S
C1533  H1535   1.104   .     S
C1533  H1534   1.111   .     S
N1539  H1540   1.030   .     S
N1539  C1541   1.449   .     S
C1541  H1544   1.113   .     S
C1541  H1542   1.107   .     S
H1543  C989    1.112   1_565 S
N1545  H1546   1.029   .     S
N1545  C1547   1.449   .     S
C1547  H1549   1.111   .     S
C1547  H1548   1.112   .     S
C1547  H1550   1.109   .     S
N1551  C1553   1.451   .     S
N1551  H1552   1.031   .     S
C1553  H1556   1.108   .     S
C1553  H1646   1.111   .     S
C1553  H1647   1.110   .     S
N1557  C1559   1.444   .     S
N1557  H1558   1.026   .     S
C1559  H1560   1.107   .     S
C1559  H1562   1.109   .     S
C1559  H1561   1.108   .     S
O1565  C1569   1.306   .     A
O1565  Zn1577  1.988   .     S
O1566  C1570   1.303   .     A
O1566  Zn1578  1.988   .     S
O1567  Zn1578  2.010   .     S
O1567  C1569   1.295   .     A
O1568  Zn1577  2.010   .     S
O1568  C1570   1.297   .     A
C1569  C1604   1.457   .     S
C1570  C1603   1.452   .     S
O1571  C1575   1.309   .     A
O1571  Zn1577  1.947   .     S
O1572  Zn1578  1.947   .     S
O1572  C1576   1.299   .     A
O1573  Zn1578  1.909   .     S
O1573  C1575   1.306   .     A
O1574  C1576   1.313   .     A
O1574  Zn1577  1.909   .     S
C1575  C1579   1.490   .     S
C1576  C1580   1.481   .     S
Zn1577 N1609   2.030   .     S
Zn1578 N1610   2.030   .     S
C1579  C1583   1.414   .     A
C1579  C1585   1.390   .     A
C1580  C1584   1.416   .     A
C1580  C1586   1.393   .     A
C1581  I1615   2.150   .     S
C1581  C1589   1.420   .     A
C1581  C1583   1.418   .     A
C1582  C1590   1.416   .     A
C1582  C1584   1.408   .     A
C1582  I1432   2.156   1_655 S
C1583  I1614   2.110   .     S
C1584  I1613   2.129   .     S
C1585  H1598   1.078   .     S
C1585  C1587   1.401   .     A
C1586  C1588   1.399   .     A
C1586  H1597   1.071   .     S
C1587  C1591   1.413   .     A
C1587  C1589   1.414   .     A
C1588  C1590   1.421   .     A
C1588  C1592   1.421   .     A
C1589  C767    1.418   1_556 S
C1591  C1594   1.413   .     A
C1591  C764    1.401   1_556 S
C1592  C1593   1.422   .     A
C1593  N1617   1.427   .     S
C1593  C1595   1.415   .     A
C1594  C1596   1.399   .     A
C1594  N1623   1.431   .     S
C1595  I1611   2.148   .     S
C1596  I1612   2.141   .     S
C1596  C762    1.409   1_556 S
C1599  I1629   2.135   .     S
C1599  C1604   1.406   .     A
C1599  C1049   1.383   1_565 S
C1600  I1630   2.141   .     S
C1600  C1603   1.408   .     A
C1601  C1603   1.402   .     A
C1601  N1631   1.426   .     S
C1602  C1604   1.407   .     A
C1602  N1637   1.433   .     S
C1602  C1048   1.392   1_565 S
C1605  N1610   1.364   .     A
C1605  N1643   1.424   .     S
C1605  C1423   1.430   1_655 S
C1606  N1609   1.373   .     A
C1606  N1649   1.421   .     S
C1607  I1655   2.120   .     S
C1607  N1609   1.382   .     A
C1608  I1656   2.143   .     S
C1608  N1610   1.377   .     A
C1608  C1422   1.428   1_655 S
N1617  H1618   1.030   .     S
N1617  C1619   1.450   .     S
C1619  H1620   1.110   .     S
C1619  H1622   1.111   .     S
C1619  H1621   1.112   .     S
N1623  H1624   1.028   .     S
N1623  C1625   1.452   .     S
C1625  H1628   1.111   .     S
C1625  H1627   1.104   .     S
C1625  H1626   1.111   .     S
N1631  H1632   1.030   .     S
N1631  C1633   1.449   .     S
C1633  H1636   1.113   .     S
C1633  H1634   1.107   .     S
H1635  C1081   1.112   1_565 S
N1637  H1638   1.029   .     S
N1637  C1639   1.449   .     S
C1639  H1641   1.111   .     S
C1639  H1640   1.112   .     S
C1639  H1642   1.109   .     S
N1643  C1645   1.451   .     S
N1643  H1644   1.031   .     S
C1645  H1648   1.108   .     S
C1645  H1462   1.111   1_655 S
C1645  H1463   1.110   1_655 S
N1649  C1651   1.444   .     S
N1649  H1650   1.026   .     S
C1651  H1652   1.107   .     S
C1651  H1654   1.109   .     S
C1651  H1653   1.108   .     S
