data_str_m3_o10_o16_pcu_sym.147
_audit_creation_date              2020-01-03
_audit_creation_method            'Materials Studio'
_symmetry_space_group_name_H-M    'P1'
_symmetry_Int_Tables_number       1
_symmetry_cell_setting            triclinic
loop_
_symmetry_equiv_pos_as_xyz
  x,y,z
_cell_length_a                    23.5065
_cell_length_b                    25.6394
_cell_length_c                    24.3149
_cell_angle_alpha                 91.6294
_cell_angle_beta                  101.2079
_cell_angle_gamma                 93.9022
loop_
_atom_site_label
_atom_site_type_symbol
_atom_site_fract_x
_atom_site_fract_y
_atom_site_fract_z
_atom_site_U_iso_or_equiv
_atom_site_adp_type
_atom_site_occupancy
C1     C     0.01419   0.26476   0.24677   0.00000  Uiso   1.00
C2     C     0.13307   0.16225   0.49460   0.00000  Uiso   1.00
C3     C     0.10330   0.14316   0.44118   0.00000  Uiso   1.00
C4     C     0.19084   0.14942   0.01323   0.00000  Uiso   1.00
C5     C     0.21595   0.11238   0.48237   0.00000  Uiso   1.00
C6     C     0.18260   0.08745   0.43324   0.00000  Uiso   1.00
C7     C     0.12470   0.10042   0.41443   0.00000  Uiso   1.00
C8     C     0.22463   0.17300   0.06219   0.00000  Uiso   1.00
C9     C     0.30324   0.11908   0.05525   0.00000  Uiso   1.00
C10    C     0.05322   0.16815   0.41622   0.00000  Uiso   1.00
C11    C     0.02014   0.31898   0.24113   0.00000  Uiso   1.00
C12    C     0.03550   0.16815   0.35523   0.00000  Uiso   1.00
C13    C     0.30948   0.01372   0.24861   0.00000  Uiso   1.00
C14    C     0.31793   0.06840   0.24958   0.00000  Uiso   1.00
C15    C     0.29762   0.16369   0.14499   0.00000  Uiso   1.00
C16    C     0.27329   0.09914   0.00329   0.00000  Uiso   1.00
C17    C     0.27746   0.15451   0.08540   0.00000  Uiso   1.00
C18    C     0.02538   0.20001   0.44928   0.00000  Uiso   1.00
C19    C     0.04960   0.21056   0.00538   0.00000  Uiso   1.00
C20    C     0.10347   0.19310   0.02777   0.00000  Uiso   1.00
H21    H     0.01147   0.10461   0.07307   0.00000  Uiso   1.00
H22    H     0.26827   0.33021   0.25659   0.00000  Uiso   1.00
H23    H     0.15683   0.12489   0.20881   0.00000  Uiso   1.00
H24    H     0.29402   0.07083   0.48176   0.00000  Uiso   1.00
H25    H     0.20964   0.20408   0.08524   0.00000  Uiso   1.00
H26    H     0.12007   0.20331   0.07153   0.00000  Uiso   1.00
H27    H     0.02777   0.23435   0.03112   0.00000  Uiso   1.00
H28    H     0.06099   0.00248   0.23233   0.00000  Uiso   1.00
N29    N     0.14493   0.15223   0.23542   0.00000  Uiso   1.00
N30    N     0.18840   0.18110   0.26457   0.00000  Uiso   1.00
O31    O     0.29769   0.24629   0.25357   0.00000  Uiso   1.00
O32    O     0.05742   0.23704   0.24424   0.00000  Uiso   1.00
O33    O     0.31490   0.17358   0.33380   0.00000  Uiso   1.00
O34    O     0.07463   0.16433   0.32446   0.00000  Uiso   1.00
O35    O     0.27592   0.09629   0.25576   0.00000  Uiso   1.00
O36    O     0.03565   0.08704   0.24643   0.00000  Uiso   1.00
O37    O     0.25870   0.16901   0.17554   0.00000  Uiso   1.00
O38    O     0.01843   0.15976   0.16620   0.00000  Uiso   1.00
Zn39   Zn    0.27119   0.17284   0.25623   0.00000  Uiso   1.00
Zn40   Zn    0.06214   0.16049   0.24377   0.00000  Uiso   1.00
F41    F     0.17365   0.21705   0.29901   0.00000  Uiso   1.00
C42    C     0.20750   0.04608   0.40332   0.00000  Uiso   1.00
O43    O     0.22238   0.05526   0.35889   0.00000  Uiso   1.00
O44    O     0.21447   0.33046   0.42650   0.00000  Uiso   1.00
H45    H     0.23201   0.30565   0.40235   0.00000  Uiso   1.00
F46    F     0.30933   0.22268   0.42700   0.00000  Uiso   1.00
C47    C     0.08426   0.06369   0.37367   0.00000  Uiso   1.00
O48    O     0.10105   0.04372   0.33423   0.00000  Uiso   1.00
O49    O     0.02765   0.04979   0.38068   0.00000  Uiso   1.00
H50    H     0.01937   0.06387   0.41732   0.00000  Uiso   1.00
C51    C     0.34752   0.26476   0.24677   0.00000  Uiso   1.00
C52    C     0.46640   0.16225   0.49460   0.00000  Uiso   1.00
C53    C     0.43663   0.14316   0.44118   0.00000  Uiso   1.00
C54    C     0.52417   0.14942   0.01323   0.00000  Uiso   1.00
C55    C     0.54929   0.11238   0.48237   0.00000  Uiso   1.00
C56    C     0.51593   0.08745   0.43324   0.00000  Uiso   1.00
C57    C     0.45804   0.10042   0.41443   0.00000  Uiso   1.00
C58    C     0.55796   0.17300   0.06219   0.00000  Uiso   1.00
C59    C     0.63658   0.11908   0.05525   0.00000  Uiso   1.00
C60    C     0.38656   0.16815   0.41622   0.00000  Uiso   1.00
C61    C     0.35347   0.31898   0.24113   0.00000  Uiso   1.00
C62    C     0.36884   0.16815   0.35523   0.00000  Uiso   1.00
C63    C     0.64281   0.01372   0.24861   0.00000  Uiso   1.00
C64    C     0.65127   0.06840   0.24958   0.00000  Uiso   1.00
C65    C     0.63095   0.16369   0.14499   0.00000  Uiso   1.00
C66    C     0.60663   0.09914   0.00329   0.00000  Uiso   1.00
C67    C     0.61079   0.15451   0.08540   0.00000  Uiso   1.00
C68    C     0.35872   0.20001   0.44928   0.00000  Uiso   1.00
C69    C     0.38294   0.21056   0.00538   0.00000  Uiso   1.00
C70    C     0.43680   0.19310   0.02777   0.00000  Uiso   1.00
H71    H     0.34481   0.10461   0.07307   0.00000  Uiso   1.00
H72    H     0.60160   0.33021   0.25659   0.00000  Uiso   1.00
H73    H     0.49017   0.12489   0.20881   0.00000  Uiso   1.00
H74    H     0.62735   0.07083   0.48176   0.00000  Uiso   1.00
H75    H     0.54297   0.20408   0.08524   0.00000  Uiso   1.00
H76    H     0.45340   0.20331   0.07153   0.00000  Uiso   1.00
H77    H     0.36111   0.23435   0.03112   0.00000  Uiso   1.00
H78    H     0.39433   0.00248   0.23233   0.00000  Uiso   1.00
N79    N     0.47827   0.15223   0.23542   0.00000  Uiso   1.00
N80    N     0.52173   0.18110   0.26457   0.00000  Uiso   1.00
O81    O     0.63102   0.24629   0.25357   0.00000  Uiso   1.00
O82    O     0.39075   0.23704   0.24424   0.00000  Uiso   1.00
O83    O     0.64823   0.17358   0.33380   0.00000  Uiso   1.00
O84    O     0.40796   0.16433   0.32446   0.00000  Uiso   1.00
O85    O     0.60925   0.09629   0.25576   0.00000  Uiso   1.00
O86    O     0.36898   0.08704   0.24643   0.00000  Uiso   1.00
O87    O     0.59204   0.16901   0.17554   0.00000  Uiso   1.00
O88    O     0.35177   0.15976   0.16620   0.00000  Uiso   1.00
Zn89   Zn    0.60453   0.17284   0.25623   0.00000  Uiso   1.00
Zn90   Zn    0.39547   0.16049   0.24377   0.00000  Uiso   1.00
F91    F     0.50699   0.21705   0.29901   0.00000  Uiso   1.00
C92    C     0.54083   0.04608   0.40332   0.00000  Uiso   1.00
O93    O     0.55571   0.05526   0.35889   0.00000  Uiso   1.00
O94    O     0.54780   0.33046   0.42650   0.00000  Uiso   1.00
H95    H     0.56534   0.30565   0.40235   0.00000  Uiso   1.00
F96    F     0.64266   0.22268   0.42700   0.00000  Uiso   1.00
C97    C     0.41759   0.06369   0.37367   0.00000  Uiso   1.00
O98    O     0.43438   0.04372   0.33423   0.00000  Uiso   1.00
O99    O     0.36098   0.04979   0.38068   0.00000  Uiso   1.00
H100   H     0.35271   0.06387   0.41732   0.00000  Uiso   1.00
C101   C     0.68086   0.26476   0.24677   0.00000  Uiso   1.00
C102   C     0.79973   0.16225   0.49460   0.00000  Uiso   1.00
C103   C     0.76996   0.14316   0.44118   0.00000  Uiso   1.00
C104   C     0.85750   0.14942   0.01323   0.00000  Uiso   1.00
C105   C     0.88262   0.11238   0.48237   0.00000  Uiso   1.00
C106   C     0.84926   0.08745   0.43324   0.00000  Uiso   1.00
C107   C     0.79137   0.10042   0.41443   0.00000  Uiso   1.00
C108   C     0.89129   0.17300   0.06219   0.00000  Uiso   1.00
C109   C     0.96991   0.11908   0.05525   0.00000  Uiso   1.00
C110   C     0.71989   0.16815   0.41622   0.00000  Uiso   1.00
C111   C     0.68681   0.31898   0.24113   0.00000  Uiso   1.00
C112   C     0.70217   0.16815   0.35523   0.00000  Uiso   1.00
C113   C     0.97615   0.01372   0.24861   0.00000  Uiso   1.00
C114   C     0.98460   0.06840   0.24958   0.00000  Uiso   1.00
C115   C     0.96429   0.16369   0.14499   0.00000  Uiso   1.00
C116   C     0.93996   0.09914   0.00329   0.00000  Uiso   1.00
C117   C     0.94413   0.15451   0.08540   0.00000  Uiso   1.00
C118   C     0.69205   0.20001   0.44928   0.00000  Uiso   1.00
C119   C     0.71627   0.21056   0.00538   0.00000  Uiso   1.00
C120   C     0.77014   0.19310   0.02777   0.00000  Uiso   1.00
H121   H     0.67814   0.10461   0.07307   0.00000  Uiso   1.00
H122   H     0.93494   0.33021   0.25659   0.00000  Uiso   1.00
H123   H     0.82350   0.12489   0.20881   0.00000  Uiso   1.00
H124   H     0.96069   0.07083   0.48176   0.00000  Uiso   1.00
H125   H     0.87631   0.20408   0.08524   0.00000  Uiso   1.00
H126   H     0.78674   0.20331   0.07153   0.00000  Uiso   1.00
H127   H     0.69444   0.23435   0.03112   0.00000  Uiso   1.00
H128   H     0.72766   0.00248   0.23233   0.00000  Uiso   1.00
N129   N     0.81160   0.15223   0.23542   0.00000  Uiso   1.00
N130   N     0.85507   0.18110   0.26457   0.00000  Uiso   1.00
O131   O     0.96435   0.24629   0.25357   0.00000  Uiso   1.00
O132   O     0.72408   0.23704   0.24424   0.00000  Uiso   1.00
O133   O     0.98157   0.17358   0.33380   0.00000  Uiso   1.00
O134   O     0.74130   0.16433   0.32446   0.00000  Uiso   1.00
O135   O     0.94258   0.09629   0.25576   0.00000  Uiso   1.00
O136   O     0.70231   0.08704   0.24643   0.00000  Uiso   1.00
O137   O     0.92537   0.16901   0.17554   0.00000  Uiso   1.00
O138   O     0.68510   0.15976   0.16620   0.00000  Uiso   1.00
Zn139  Zn    0.93786   0.17284   0.25623   0.00000  Uiso   1.00
Zn140  Zn    0.72881   0.16049   0.24377   0.00000  Uiso   1.00
F141   F     0.84032   0.21705   0.29901   0.00000  Uiso   1.00
C142   C     0.87416   0.04608   0.40332   0.00000  Uiso   1.00
O143   O     0.88904   0.05526   0.35889   0.00000  Uiso   1.00
O144   O     0.88114   0.33046   0.42650   0.00000  Uiso   1.00
H145   H     0.89868   0.30565   0.40235   0.00000  Uiso   1.00
F146   F     0.97600   0.22268   0.42700   0.00000  Uiso   1.00
C147   C     0.75092   0.06369   0.37367   0.00000  Uiso   1.00
O148   O     0.76771   0.04372   0.33423   0.00000  Uiso   1.00
O149   O     0.69431   0.04979   0.38068   0.00000  Uiso   1.00
H150   H     0.68604   0.06387   0.41732   0.00000  Uiso   1.00
C151   C     0.01419   0.59810   0.24677   0.00000  Uiso   1.00
C152   C     0.13307   0.49558   0.49460   0.00000  Uiso   1.00
C153   C     0.10330   0.47649   0.44118   0.00000  Uiso   1.00
C154   C     0.19084   0.48275   0.01323   0.00000  Uiso   1.00
C155   C     0.21595   0.44572   0.48237   0.00000  Uiso   1.00
C156   C     0.18260   0.42079   0.43324   0.00000  Uiso   1.00
C157   C     0.12470   0.43376   0.41443   0.00000  Uiso   1.00
C158   C     0.22463   0.50633   0.06219   0.00000  Uiso   1.00
C159   C     0.30324   0.45241   0.05525   0.00000  Uiso   1.00
C160   C     0.05322   0.50149   0.41622   0.00000  Uiso   1.00
C161   C     0.02014   0.65232   0.24113   0.00000  Uiso   1.00
C162   C     0.03550   0.50148   0.35523   0.00000  Uiso   1.00
C163   C     0.30948   0.34705   0.24861   0.00000  Uiso   1.00
C164   C     0.31793   0.40173   0.24958   0.00000  Uiso   1.00
C165   C     0.29762   0.49702   0.14499   0.00000  Uiso   1.00
C166   C     0.27329   0.43248   0.00329   0.00000  Uiso   1.00
C167   C     0.27746   0.48784   0.08540   0.00000  Uiso   1.00
C168   C     0.02538   0.53335   0.44928   0.00000  Uiso   1.00
C169   C     0.04960   0.54390   0.00538   0.00000  Uiso   1.00
C170   C     0.10347   0.52643   0.02777   0.00000  Uiso   1.00
H171   H     0.01147   0.43794   0.07307   0.00000  Uiso   1.00
H172   H     0.26827   0.66355   0.25659   0.00000  Uiso   1.00
H173   H     0.15683   0.45823   0.20881   0.00000  Uiso   1.00
H174   H     0.29402   0.40416   0.48176   0.00000  Uiso   1.00
H175   H     0.20964   0.53741   0.08524   0.00000  Uiso   1.00
H176   H     0.12007   0.53665   0.07153   0.00000  Uiso   1.00
H177   H     0.02777   0.56768   0.03112   0.00000  Uiso   1.00
H178   H     0.06099   0.33581   0.23233   0.00000  Uiso   1.00
N179   N     0.14493   0.48556   0.23542   0.00000  Uiso   1.00
N180   N     0.18840   0.51444   0.26457   0.00000  Uiso   1.00
O181   O     0.29769   0.57963   0.25357   0.00000  Uiso   1.00
O182   O     0.05742   0.57038   0.24424   0.00000  Uiso   1.00
O183   O     0.31490   0.50691   0.33380   0.00000  Uiso   1.00
O184   O     0.07463   0.49766   0.32446   0.00000  Uiso   1.00
O185   O     0.27592   0.42962   0.25576   0.00000  Uiso   1.00
O186   O     0.03565   0.42037   0.24643   0.00000  Uiso   1.00
O187   O     0.25870   0.50234   0.17554   0.00000  Uiso   1.00
O188   O     0.01843   0.49309   0.16620   0.00000  Uiso   1.00
Zn189  Zn    0.27119   0.50618   0.25623   0.00000  Uiso   1.00
Zn190  Zn    0.06214   0.49382   0.24377   0.00000  Uiso   1.00
F191   F     0.17365   0.55039   0.29901   0.00000  Uiso   1.00
C192   C     0.20750   0.37942   0.40332   0.00000  Uiso   1.00
O193   O     0.22238   0.38859   0.35889   0.00000  Uiso   1.00
O194   O     0.21447   0.66379   0.42650   0.00000  Uiso   1.00
H195   H     0.23201   0.63898   0.40235   0.00000  Uiso   1.00
F196   F     0.30933   0.55601   0.42700   0.00000  Uiso   1.00
C197   C     0.08426   0.39702   0.37367   0.00000  Uiso   1.00
O198   O     0.10105   0.37705   0.33423   0.00000  Uiso   1.00
O199   O     0.02765   0.38312   0.38068   0.00000  Uiso   1.00
H200   H     0.01937   0.39721   0.41732   0.00000  Uiso   1.00
C201   C     0.34752   0.59810   0.24677   0.00000  Uiso   1.00
C202   C     0.46640   0.49558   0.49460   0.00000  Uiso   1.00
C203   C     0.43663   0.47649   0.44118   0.00000  Uiso   1.00
C204   C     0.52417   0.48275   0.01323   0.00000  Uiso   1.00
C205   C     0.54929   0.44572   0.48237   0.00000  Uiso   1.00
C206   C     0.51593   0.42079   0.43324   0.00000  Uiso   1.00
C207   C     0.45804   0.43376   0.41443   0.00000  Uiso   1.00
C208   C     0.55796   0.50633   0.06219   0.00000  Uiso   1.00
C209   C     0.63658   0.45241   0.05525   0.00000  Uiso   1.00
C210   C     0.38656   0.50149   0.41622   0.00000  Uiso   1.00
C211   C     0.35347   0.65232   0.24113   0.00000  Uiso   1.00
C212   C     0.36884   0.50148   0.35523   0.00000  Uiso   1.00
C213   C     0.64281   0.34705   0.24861   0.00000  Uiso   1.00
C214   C     0.65127   0.40173   0.24958   0.00000  Uiso   1.00
C215   C     0.63095   0.49702   0.14499   0.00000  Uiso   1.00
C216   C     0.60663   0.43248   0.00329   0.00000  Uiso   1.00
C217   C     0.61079   0.48784   0.08540   0.00000  Uiso   1.00
C218   C     0.35872   0.53335   0.44928   0.00000  Uiso   1.00
C219   C     0.38294   0.54390   0.00538   0.00000  Uiso   1.00
C220   C     0.43680   0.52643   0.02777   0.00000  Uiso   1.00
H221   H     0.34481   0.43794   0.07307   0.00000  Uiso   1.00
H222   H     0.60160   0.66355   0.25659   0.00000  Uiso   1.00
H223   H     0.49017   0.45823   0.20881   0.00000  Uiso   1.00
H224   H     0.62735   0.40416   0.48176   0.00000  Uiso   1.00
H225   H     0.54297   0.53741   0.08524   0.00000  Uiso   1.00
H226   H     0.45340   0.53665   0.07153   0.00000  Uiso   1.00
H227   H     0.36111   0.56768   0.03112   0.00000  Uiso   1.00
H228   H     0.39433   0.33581   0.23233   0.00000  Uiso   1.00
N229   N     0.47827   0.48556   0.23542   0.00000  Uiso   1.00
N230   N     0.52173   0.51444   0.26457   0.00000  Uiso   1.00
O231   O     0.63102   0.57963   0.25357   0.00000  Uiso   1.00
O232   O     0.39075   0.57038   0.24424   0.00000  Uiso   1.00
O233   O     0.64823   0.50691   0.33380   0.00000  Uiso   1.00
O234   O     0.40796   0.49766   0.32446   0.00000  Uiso   1.00
O235   O     0.60925   0.42962   0.25576   0.00000  Uiso   1.00
O236   O     0.36898   0.42037   0.24643   0.00000  Uiso   1.00
O237   O     0.59204   0.50234   0.17554   0.00000  Uiso   1.00
O238   O     0.35177   0.49309   0.16620   0.00000  Uiso   1.00
Zn239  Zn    0.60453   0.50618   0.25623   0.00000  Uiso   1.00
Zn240  Zn    0.39547   0.49382   0.24377   0.00000  Uiso   1.00
F241   F     0.50699   0.55039   0.29901   0.00000  Uiso   1.00
C242   C     0.54083   0.37942   0.40332   0.00000  Uiso   1.00
O243   O     0.55571   0.38859   0.35889   0.00000  Uiso   1.00
O244   O     0.54780   0.66379   0.42650   0.00000  Uiso   1.00
H245   H     0.56534   0.63898   0.40235   0.00000  Uiso   1.00
F246   F     0.64266   0.55601   0.42700   0.00000  Uiso   1.00
C247   C     0.41759   0.39702   0.37367   0.00000  Uiso   1.00
O248   O     0.43438   0.37705   0.33423   0.00000  Uiso   1.00
O249   O     0.36098   0.38312   0.38068   0.00000  Uiso   1.00
H250   H     0.35271   0.39721   0.41732   0.00000  Uiso   1.00
C251   C     0.68086   0.59810   0.24677   0.00000  Uiso   1.00
C252   C     0.79973   0.49558   0.49460   0.00000  Uiso   1.00
C253   C     0.76996   0.47649   0.44118   0.00000  Uiso   1.00
C254   C     0.85750   0.48275   0.01323   0.00000  Uiso   1.00
C255   C     0.88262   0.44572   0.48237   0.00000  Uiso   1.00
C256   C     0.84926   0.42079   0.43324   0.00000  Uiso   1.00
C257   C     0.79137   0.43376   0.41443   0.00000  Uiso   1.00
C258   C     0.89129   0.50633   0.06219   0.00000  Uiso   1.00
C259   C     0.96991   0.45241   0.05525   0.00000  Uiso   1.00
C260   C     0.71989   0.50149   0.41622   0.00000  Uiso   1.00
C261   C     0.68681   0.65232   0.24113   0.00000  Uiso   1.00
C262   C     0.70217   0.50148   0.35523   0.00000  Uiso   1.00
C263   C     0.97615   0.34705   0.24861   0.00000  Uiso   1.00
C264   C     0.98460   0.40173   0.24958   0.00000  Uiso   1.00
C265   C     0.96429   0.49702   0.14499   0.00000  Uiso   1.00
C266   C     0.93996   0.43248   0.00329   0.00000  Uiso   1.00
C267   C     0.94413   0.48784   0.08540   0.00000  Uiso   1.00
C268   C     0.69205   0.53335   0.44928   0.00000  Uiso   1.00
C269   C     0.71627   0.54390   0.00538   0.00000  Uiso   1.00
C270   C     0.77014   0.52643   0.02777   0.00000  Uiso   1.00
H271   H     0.67814   0.43794   0.07307   0.00000  Uiso   1.00
H272   H     0.93494   0.66355   0.25659   0.00000  Uiso   1.00
H273   H     0.82350   0.45823   0.20881   0.00000  Uiso   1.00
H274   H     0.96069   0.40416   0.48176   0.00000  Uiso   1.00
H275   H     0.87631   0.53741   0.08524   0.00000  Uiso   1.00
H276   H     0.78674   0.53665   0.07153   0.00000  Uiso   1.00
H277   H     0.69444   0.56768   0.03112   0.00000  Uiso   1.00
H278   H     0.72766   0.33581   0.23233   0.00000  Uiso   1.00
N279   N     0.81160   0.48556   0.23542   0.00000  Uiso   1.00
N280   N     0.85507   0.51444   0.26457   0.00000  Uiso   1.00
O281   O     0.96435   0.57963   0.25357   0.00000  Uiso   1.00
O282   O     0.72408   0.57038   0.24424   0.00000  Uiso   1.00
O283   O     0.98157   0.50691   0.33380   0.00000  Uiso   1.00
O284   O     0.74130   0.49766   0.32446   0.00000  Uiso   1.00
O285   O     0.94258   0.42962   0.25576   0.00000  Uiso   1.00
O286   O     0.70231   0.42037   0.24643   0.00000  Uiso   1.00
O287   O     0.92537   0.50234   0.17554   0.00000  Uiso   1.00
O288   O     0.68510   0.49309   0.16620   0.00000  Uiso   1.00
Zn289  Zn    0.93786   0.50618   0.25623   0.00000  Uiso   1.00
Zn290  Zn    0.72881   0.49382   0.24377   0.00000  Uiso   1.00
F291   F     0.84032   0.55039   0.29901   0.00000  Uiso   1.00
C292   C     0.87416   0.37942   0.40332   0.00000  Uiso   1.00
O293   O     0.88904   0.38859   0.35889   0.00000  Uiso   1.00
O294   O     0.88114   0.66379   0.42650   0.00000  Uiso   1.00
H295   H     0.89868   0.63898   0.40235   0.00000  Uiso   1.00
F296   F     0.97600   0.55601   0.42700   0.00000  Uiso   1.00
C297   C     0.75092   0.39702   0.37367   0.00000  Uiso   1.00
O298   O     0.76771   0.37705   0.33423   0.00000  Uiso   1.00
O299   O     0.69431   0.38312   0.38068   0.00000  Uiso   1.00
H300   H     0.68604   0.39721   0.41732   0.00000  Uiso   1.00
C301   C     0.01419   0.93143   0.24677   0.00000  Uiso   1.00
C302   C     0.13307   0.82892   0.49460   0.00000  Uiso   1.00
C303   C     0.10330   0.80982   0.44118   0.00000  Uiso   1.00
C304   C     0.19084   0.81609   0.01323   0.00000  Uiso   1.00
C305   C     0.21595   0.77905   0.48237   0.00000  Uiso   1.00
C306   C     0.18260   0.75412   0.43324   0.00000  Uiso   1.00
C307   C     0.12470   0.76709   0.41443   0.00000  Uiso   1.00
C308   C     0.22463   0.83967   0.06219   0.00000  Uiso   1.00
C309   C     0.30324   0.78575   0.05525   0.00000  Uiso   1.00
C310   C     0.05322   0.83482   0.41622   0.00000  Uiso   1.00
C311   C     0.02014   0.98565   0.24113   0.00000  Uiso   1.00
C312   C     0.03550   0.83481   0.35523   0.00000  Uiso   1.00
C313   C     0.30948   0.68039   0.24861   0.00000  Uiso   1.00
C314   C     0.31793   0.73506   0.24958   0.00000  Uiso   1.00
C315   C     0.29762   0.83036   0.14499   0.00000  Uiso   1.00
C316   C     0.27329   0.76581   0.00329   0.00000  Uiso   1.00
C317   C     0.27746   0.82118   0.08540   0.00000  Uiso   1.00
C318   C     0.02538   0.86668   0.44928   0.00000  Uiso   1.00
C319   C     0.04960   0.87723   0.00538   0.00000  Uiso   1.00
C320   C     0.10347   0.85976   0.02777   0.00000  Uiso   1.00
H321   H     0.01147   0.77127   0.07307   0.00000  Uiso   1.00
H322   H     0.26827   0.99688   0.25659   0.00000  Uiso   1.00
H323   H     0.15683   0.79156   0.20881   0.00000  Uiso   1.00
H324   H     0.29402   0.73750   0.48176   0.00000  Uiso   1.00
H325   H     0.20964   0.87075   0.08524   0.00000  Uiso   1.00
H326   H     0.12007   0.86998   0.07153   0.00000  Uiso   1.00
H327   H     0.02777   0.90102   0.03112   0.00000  Uiso   1.00
H328   H     0.06099   0.66914   0.23233   0.00000  Uiso   1.00
N329   N     0.14493   0.81890   0.23542   0.00000  Uiso   1.00
N330   N     0.18840   0.84777   0.26457   0.00000  Uiso   1.00
O331   O     0.29769   0.91296   0.25357   0.00000  Uiso   1.00
O332   O     0.05742   0.90371   0.24424   0.00000  Uiso   1.00
O333   O     0.31490   0.84024   0.33380   0.00000  Uiso   1.00
O334   O     0.07463   0.83099   0.32446   0.00000  Uiso   1.00
O335   O     0.27592   0.76296   0.25576   0.00000  Uiso   1.00
O336   O     0.03565   0.75371   0.24643   0.00000  Uiso   1.00
O337   O     0.25870   0.83567   0.17554   0.00000  Uiso   1.00
O338   O     0.01843   0.82642   0.16620   0.00000  Uiso   1.00
Zn339  Zn    0.27119   0.83951   0.25623   0.00000  Uiso   1.00
Zn340  Zn    0.06214   0.82716   0.24377   0.00000  Uiso   1.00
F341   F     0.17365   0.88372   0.29901   0.00000  Uiso   1.00
C342   C     0.20750   0.71275   0.40332   0.00000  Uiso   1.00
O343   O     0.22238   0.72193   0.35889   0.00000  Uiso   1.00
O344   O     0.21447   0.99712   0.42650   0.00000  Uiso   1.00
H345   H     0.23201   0.97232   0.40235   0.00000  Uiso   1.00
F346   F     0.30933   0.88934   0.42700   0.00000  Uiso   1.00
C347   C     0.08426   0.73035   0.37367   0.00000  Uiso   1.00
O348   O     0.10105   0.71039   0.33423   0.00000  Uiso   1.00
O349   O     0.02765   0.71645   0.38068   0.00000  Uiso   1.00
H350   H     0.01937   0.73054   0.41732   0.00000  Uiso   1.00
C351   C     0.34752   0.93143   0.24677   0.00000  Uiso   1.00
C352   C     0.46640   0.82892   0.49460   0.00000  Uiso   1.00
C353   C     0.43663   0.80982   0.44118   0.00000  Uiso   1.00
C354   C     0.52417   0.81609   0.01323   0.00000  Uiso   1.00
C355   C     0.54929   0.77905   0.48237   0.00000  Uiso   1.00
C356   C     0.51593   0.75412   0.43324   0.00000  Uiso   1.00
C357   C     0.45804   0.76709   0.41443   0.00000  Uiso   1.00
C358   C     0.55796   0.83967   0.06219   0.00000  Uiso   1.00
C359   C     0.63658   0.78575   0.05525   0.00000  Uiso   1.00
C360   C     0.38656   0.83482   0.41622   0.00000  Uiso   1.00
C361   C     0.35347   0.98565   0.24113   0.00000  Uiso   1.00
C362   C     0.36884   0.83481   0.35523   0.00000  Uiso   1.00
C363   C     0.64281   0.68039   0.24861   0.00000  Uiso   1.00
C364   C     0.65127   0.73506   0.24958   0.00000  Uiso   1.00
C365   C     0.63095   0.83036   0.14499   0.00000  Uiso   1.00
C366   C     0.60663   0.76581   0.00329   0.00000  Uiso   1.00
C367   C     0.61079   0.82118   0.08540   0.00000  Uiso   1.00
C368   C     0.35872   0.86668   0.44928   0.00000  Uiso   1.00
C369   C     0.38294   0.87723   0.00538   0.00000  Uiso   1.00
C370   C     0.43680   0.85976   0.02777   0.00000  Uiso   1.00
H371   H     0.34481   0.77127   0.07307   0.00000  Uiso   1.00
H372   H     0.60160   0.99688   0.25659   0.00000  Uiso   1.00
H373   H     0.49017   0.79156   0.20881   0.00000  Uiso   1.00
H374   H     0.62735   0.73750   0.48176   0.00000  Uiso   1.00
H375   H     0.54297   0.87075   0.08524   0.00000  Uiso   1.00
H376   H     0.45340   0.86998   0.07153   0.00000  Uiso   1.00
H377   H     0.36111   0.90102   0.03112   0.00000  Uiso   1.00
H378   H     0.39433   0.66914   0.23233   0.00000  Uiso   1.00
N379   N     0.47827   0.81890   0.23542   0.00000  Uiso   1.00
N380   N     0.52173   0.84777   0.26457   0.00000  Uiso   1.00
O381   O     0.63102   0.91296   0.25357   0.00000  Uiso   1.00
O382   O     0.39075   0.90371   0.24424   0.00000  Uiso   1.00
O383   O     0.64823   0.84024   0.33380   0.00000  Uiso   1.00
O384   O     0.40796   0.83099   0.32446   0.00000  Uiso   1.00
O385   O     0.60925   0.76296   0.25576   0.00000  Uiso   1.00
O386   O     0.36898   0.75371   0.24643   0.00000  Uiso   1.00
O387   O     0.59204   0.83567   0.17554   0.00000  Uiso   1.00
O388   O     0.35177   0.82642   0.16620   0.00000  Uiso   1.00
Zn389  Zn    0.60453   0.83951   0.25623   0.00000  Uiso   1.00
Zn390  Zn    0.39547   0.82716   0.24377   0.00000  Uiso   1.00
F391   F     0.50699   0.88372   0.29901   0.00000  Uiso   1.00
C392   C     0.54083   0.71275   0.40332   0.00000  Uiso   1.00
O393   O     0.55571   0.72193   0.35889   0.00000  Uiso   1.00
O394   O     0.54780   0.99712   0.42650   0.00000  Uiso   1.00
H395   H     0.56534   0.97232   0.40235   0.00000  Uiso   1.00
F396   F     0.64266   0.88934   0.42700   0.00000  Uiso   1.00
C397   C     0.41759   0.73035   0.37367   0.00000  Uiso   1.00
O398   O     0.43438   0.71039   0.33423   0.00000  Uiso   1.00
O399   O     0.36098   0.71645   0.38068   0.00000  Uiso   1.00
H400   H     0.35271   0.73054   0.41732   0.00000  Uiso   1.00
C401   C     0.68086   0.93143   0.24677   0.00000  Uiso   1.00
C402   C     0.79973   0.82892   0.49460   0.00000  Uiso   1.00
C403   C     0.76996   0.80982   0.44118   0.00000  Uiso   1.00
C404   C     0.85750   0.81609   0.01323   0.00000  Uiso   1.00
C405   C     0.88262   0.77905   0.48237   0.00000  Uiso   1.00
C406   C     0.84926   0.75412   0.43324   0.00000  Uiso   1.00
C407   C     0.79137   0.76709   0.41443   0.00000  Uiso   1.00
C408   C     0.89129   0.83967   0.06219   0.00000  Uiso   1.00
C409   C     0.96991   0.78575   0.05525   0.00000  Uiso   1.00
C410   C     0.71989   0.83482   0.41622   0.00000  Uiso   1.00
C411   C     0.68681   0.98565   0.24113   0.00000  Uiso   1.00
C412   C     0.70217   0.83481   0.35523   0.00000  Uiso   1.00
C413   C     0.97615   0.68039   0.24861   0.00000  Uiso   1.00
C414   C     0.98460   0.73506   0.24958   0.00000  Uiso   1.00
C415   C     0.96429   0.83036   0.14499   0.00000  Uiso   1.00
C416   C     0.93996   0.76581   0.00329   0.00000  Uiso   1.00
C417   C     0.94413   0.82118   0.08540   0.00000  Uiso   1.00
C418   C     0.69205   0.86668   0.44928   0.00000  Uiso   1.00
C419   C     0.71627   0.87723   0.00538   0.00000  Uiso   1.00
C420   C     0.77014   0.85976   0.02777   0.00000  Uiso   1.00
H421   H     0.67814   0.77127   0.07307   0.00000  Uiso   1.00
H422   H     0.93494   0.99688   0.25659   0.00000  Uiso   1.00
H423   H     0.82350   0.79156   0.20881   0.00000  Uiso   1.00
H424   H     0.96069   0.73750   0.48176   0.00000  Uiso   1.00
H425   H     0.87631   0.87075   0.08524   0.00000  Uiso   1.00
H426   H     0.78674   0.86998   0.07153   0.00000  Uiso   1.00
H427   H     0.69444   0.90102   0.03112   0.00000  Uiso   1.00
H428   H     0.72766   0.66914   0.23233   0.00000  Uiso   1.00
N429   N     0.81160   0.81890   0.23542   0.00000  Uiso   1.00
N430   N     0.85507   0.84777   0.26457   0.00000  Uiso   1.00
O431   O     0.96435   0.91296   0.25357   0.00000  Uiso   1.00
O432   O     0.72408   0.90371   0.24424   0.00000  Uiso   1.00
O433   O     0.98157   0.84024   0.33380   0.00000  Uiso   1.00
O434   O     0.74130   0.83099   0.32446   0.00000  Uiso   1.00
O435   O     0.94258   0.76296   0.25576   0.00000  Uiso   1.00
O436   O     0.70231   0.75371   0.24643   0.00000  Uiso   1.00
O437   O     0.92537   0.83567   0.17554   0.00000  Uiso   1.00
O438   O     0.68510   0.82642   0.16620   0.00000  Uiso   1.00
Zn439  Zn    0.93786   0.83951   0.25623   0.00000  Uiso   1.00
Zn440  Zn    0.72881   0.82716   0.24377   0.00000  Uiso   1.00
F441   F     0.84032   0.88372   0.29901   0.00000  Uiso   1.00
C442   C     0.87416   0.71275   0.40332   0.00000  Uiso   1.00
O443   O     0.88904   0.72193   0.35889   0.00000  Uiso   1.00
O444   O     0.88114   0.99712   0.42650   0.00000  Uiso   1.00
H445   H     0.89868   0.97232   0.40235   0.00000  Uiso   1.00
F446   F     0.97600   0.88934   0.42700   0.00000  Uiso   1.00
C447   C     0.75092   0.73035   0.37367   0.00000  Uiso   1.00
O448   O     0.76771   0.71039   0.33423   0.00000  Uiso   1.00
O449   O     0.69431   0.71645   0.38068   0.00000  Uiso   1.00
H450   H     0.68604   0.73054   0.41732   0.00000  Uiso   1.00
C451   C     0.01419   0.26476   0.74677   0.00000  Uiso   1.00
C452   C     0.13307   0.16225   0.99460   0.00000  Uiso   1.00
C453   C     0.10330   0.14316   0.94118   0.00000  Uiso   1.00
C454   C     0.19084   0.14942   0.51323   0.00000  Uiso   1.00
C455   C     0.21595   0.11238   0.98237   0.00000  Uiso   1.00
C456   C     0.18260   0.08745   0.93324   0.00000  Uiso   1.00
C457   C     0.12470   0.10042   0.91443   0.00000  Uiso   1.00
C458   C     0.22463   0.17300   0.56219   0.00000  Uiso   1.00
C459   C     0.30324   0.11908   0.55525   0.00000  Uiso   1.00
C460   C     0.05322   0.16815   0.91622   0.00000  Uiso   1.00
C461   C     0.02014   0.31898   0.74113   0.00000  Uiso   1.00
C462   C     0.03550   0.16815   0.85523   0.00000  Uiso   1.00
C463   C     0.30948   0.01372   0.74861   0.00000  Uiso   1.00
C464   C     0.31793   0.06840   0.74958   0.00000  Uiso   1.00
C465   C     0.29762   0.16369   0.64499   0.00000  Uiso   1.00
C466   C     0.27329   0.09914   0.50329   0.00000  Uiso   1.00
C467   C     0.27746   0.15451   0.58540   0.00000  Uiso   1.00
C468   C     0.02538   0.20001   0.94928   0.00000  Uiso   1.00
C469   C     0.04960   0.21056   0.50538   0.00000  Uiso   1.00
C470   C     0.10347   0.19310   0.52777   0.00000  Uiso   1.00
H471   H     0.01147   0.10461   0.57307   0.00000  Uiso   1.00
H472   H     0.26827   0.33021   0.75659   0.00000  Uiso   1.00
H473   H     0.15683   0.12489   0.70881   0.00000  Uiso   1.00
H474   H     0.29402   0.07083   0.98176   0.00000  Uiso   1.00
H475   H     0.20964   0.20408   0.58524   0.00000  Uiso   1.00
H476   H     0.12007   0.20331   0.57153   0.00000  Uiso   1.00
H477   H     0.02777   0.23435   0.53112   0.00000  Uiso   1.00
H478   H     0.06099   0.00248   0.73233   0.00000  Uiso   1.00
N479   N     0.14493   0.15223   0.73542   0.00000  Uiso   1.00
N480   N     0.18840   0.18110   0.76457   0.00000  Uiso   1.00
O481   O     0.29769   0.24629   0.75357   0.00000  Uiso   1.00
O482   O     0.05742   0.23704   0.74424   0.00000  Uiso   1.00
O483   O     0.31490   0.17358   0.83380   0.00000  Uiso   1.00
O484   O     0.07463   0.16433   0.82446   0.00000  Uiso   1.00
O485   O     0.27592   0.09629   0.75576   0.00000  Uiso   1.00
O486   O     0.03565   0.08704   0.74643   0.00000  Uiso   1.00
O487   O     0.25870   0.16901   0.67554   0.00000  Uiso   1.00
O488   O     0.01843   0.15976   0.66620   0.00000  Uiso   1.00
Zn489  Zn    0.27119   0.17284   0.75623   0.00000  Uiso   1.00
Zn490  Zn    0.06214   0.16049   0.74377   0.00000  Uiso   1.00
F491   F     0.17365   0.21705   0.79901   0.00000  Uiso   1.00
C492   C     0.20750   0.04608   0.90332   0.00000  Uiso   1.00
O493   O     0.22238   0.05526   0.85889   0.00000  Uiso   1.00
O494   O     0.21447   0.33046   0.92650   0.00000  Uiso   1.00
H495   H     0.23201   0.30565   0.90235   0.00000  Uiso   1.00
F496   F     0.30933   0.22268   0.92700   0.00000  Uiso   1.00
C497   C     0.08426   0.06369   0.87367   0.00000  Uiso   1.00
O498   O     0.10105   0.04372   0.83423   0.00000  Uiso   1.00
O499   O     0.02765   0.04979   0.88068   0.00000  Uiso   1.00
H500   H     0.01937   0.06387   0.91732   0.00000  Uiso   1.00
C501   C     0.34752   0.26476   0.74677   0.00000  Uiso   1.00
C502   C     0.46640   0.16225   0.99460   0.00000  Uiso   1.00
C503   C     0.43663   0.14316   0.94118   0.00000  Uiso   1.00
C504   C     0.52417   0.14942   0.51323   0.00000  Uiso   1.00
C505   C     0.54929   0.11238   0.98237   0.00000  Uiso   1.00
C506   C     0.51593   0.08745   0.93324   0.00000  Uiso   1.00
C507   C     0.45804   0.10042   0.91443   0.00000  Uiso   1.00
C508   C     0.55796   0.17300   0.56219   0.00000  Uiso   1.00
C509   C     0.63658   0.11908   0.55525   0.00000  Uiso   1.00
C510   C     0.38656   0.16815   0.91622   0.00000  Uiso   1.00
C511   C     0.35347   0.31898   0.74113   0.00000  Uiso   1.00
C512   C     0.36884   0.16815   0.85523   0.00000  Uiso   1.00
C513   C     0.64281   0.01372   0.74861   0.00000  Uiso   1.00
C514   C     0.65127   0.06840   0.74958   0.00000  Uiso   1.00
C515   C     0.63095   0.16369   0.64499   0.00000  Uiso   1.00
C516   C     0.60663   0.09914   0.50329   0.00000  Uiso   1.00
C517   C     0.61079   0.15451   0.58540   0.00000  Uiso   1.00
C518   C     0.35872   0.20001   0.94928   0.00000  Uiso   1.00
C519   C     0.38294   0.21056   0.50538   0.00000  Uiso   1.00
C520   C     0.43680   0.19310   0.52777   0.00000  Uiso   1.00
H521   H     0.34481   0.10461   0.57307   0.00000  Uiso   1.00
H522   H     0.60160   0.33021   0.75659   0.00000  Uiso   1.00
H523   H     0.49017   0.12489   0.70881   0.00000  Uiso   1.00
H524   H     0.62735   0.07083   0.98176   0.00000  Uiso   1.00
H525   H     0.54297   0.20408   0.58524   0.00000  Uiso   1.00
H526   H     0.45340   0.20331   0.57153   0.00000  Uiso   1.00
H527   H     0.36111   0.23435   0.53112   0.00000  Uiso   1.00
H528   H     0.39433   0.00248   0.73233   0.00000  Uiso   1.00
N529   N     0.47827   0.15223   0.73542   0.00000  Uiso   1.00
N530   N     0.52173   0.18110   0.76457   0.00000  Uiso   1.00
O531   O     0.63102   0.24629   0.75357   0.00000  Uiso   1.00
O532   O     0.39075   0.23704   0.74424   0.00000  Uiso   1.00
O533   O     0.64823   0.17358   0.83380   0.00000  Uiso   1.00
O534   O     0.40796   0.16433   0.82446   0.00000  Uiso   1.00
O535   O     0.60925   0.09629   0.75576   0.00000  Uiso   1.00
O536   O     0.36898   0.08704   0.74643   0.00000  Uiso   1.00
O537   O     0.59204   0.16901   0.67554   0.00000  Uiso   1.00
O538   O     0.35177   0.15976   0.66620   0.00000  Uiso   1.00
Zn539  Zn    0.60453   0.17284   0.75623   0.00000  Uiso   1.00
Zn540  Zn    0.39547   0.16049   0.74377   0.00000  Uiso   1.00
F541   F     0.50699   0.21705   0.79901   0.00000  Uiso   1.00
C542   C     0.54083   0.04608   0.90332   0.00000  Uiso   1.00
O543   O     0.55571   0.05526   0.85889   0.00000  Uiso   1.00
O544   O     0.54780   0.33046   0.92650   0.00000  Uiso   1.00
H545   H     0.56534   0.30565   0.90235   0.00000  Uiso   1.00
F546   F     0.64266   0.22268   0.92700   0.00000  Uiso   1.00
C547   C     0.41759   0.06369   0.87367   0.00000  Uiso   1.00
O548   O     0.43438   0.04372   0.83423   0.00000  Uiso   1.00
O549   O     0.36098   0.04979   0.88068   0.00000  Uiso   1.00
H550   H     0.35271   0.06387   0.91732   0.00000  Uiso   1.00
C551   C     0.68086   0.26476   0.74677   0.00000  Uiso   1.00
C552   C     0.79973   0.16225   0.99460   0.00000  Uiso   1.00
C553   C     0.76996   0.14316   0.94118   0.00000  Uiso   1.00
C554   C     0.85750   0.14942   0.51323   0.00000  Uiso   1.00
C555   C     0.88262   0.11238   0.98237   0.00000  Uiso   1.00
C556   C     0.84926   0.08745   0.93324   0.00000  Uiso   1.00
C557   C     0.79137   0.10042   0.91443   0.00000  Uiso   1.00
C558   C     0.89129   0.17300   0.56219   0.00000  Uiso   1.00
C559   C     0.96991   0.11908   0.55525   0.00000  Uiso   1.00
C560   C     0.71989   0.16815   0.91622   0.00000  Uiso   1.00
C561   C     0.68681   0.31898   0.74113   0.00000  Uiso   1.00
C562   C     0.70217   0.16815   0.85523   0.00000  Uiso   1.00
C563   C     0.97615   0.01372   0.74861   0.00000  Uiso   1.00
C564   C     0.98460   0.06840   0.74958   0.00000  Uiso   1.00
C565   C     0.96429   0.16369   0.64499   0.00000  Uiso   1.00
C566   C     0.93996   0.09914   0.50329   0.00000  Uiso   1.00
C567   C     0.94413   0.15451   0.58540   0.00000  Uiso   1.00
C568   C     0.69205   0.20001   0.94928   0.00000  Uiso   1.00
C569   C     0.71627   0.21056   0.50538   0.00000  Uiso   1.00
C570   C     0.77014   0.19310   0.52777   0.00000  Uiso   1.00
H571   H     0.67814   0.10461   0.57307   0.00000  Uiso   1.00
H572   H     0.93494   0.33021   0.75659   0.00000  Uiso   1.00
H573   H     0.82350   0.12489   0.70881   0.00000  Uiso   1.00
H574   H     0.96069   0.07083   0.98176   0.00000  Uiso   1.00
H575   H     0.87631   0.20408   0.58524   0.00000  Uiso   1.00
H576   H     0.78674   0.20331   0.57153   0.00000  Uiso   1.00
H577   H     0.69444   0.23435   0.53112   0.00000  Uiso   1.00
H578   H     0.72766   0.00248   0.73233   0.00000  Uiso   1.00
N579   N     0.81160   0.15223   0.73542   0.00000  Uiso   1.00
N580   N     0.85507   0.18110   0.76457   0.00000  Uiso   1.00
O581   O     0.96435   0.24629   0.75357   0.00000  Uiso   1.00
O582   O     0.72408   0.23704   0.74424   0.00000  Uiso   1.00
O583   O     0.98157   0.17358   0.83380   0.00000  Uiso   1.00
O584   O     0.74130   0.16433   0.82446   0.00000  Uiso   1.00
O585   O     0.94258   0.09629   0.75576   0.00000  Uiso   1.00
O586   O     0.70231   0.08704   0.74643   0.00000  Uiso   1.00
O587   O     0.92537   0.16901   0.67554   0.00000  Uiso   1.00
O588   O     0.68510   0.15976   0.66620   0.00000  Uiso   1.00
Zn589  Zn    0.93786   0.17284   0.75623   0.00000  Uiso   1.00
Zn590  Zn    0.72881   0.16049   0.74377   0.00000  Uiso   1.00
F591   F     0.84032   0.21705   0.79901   0.00000  Uiso   1.00
C592   C     0.87416   0.04608   0.90332   0.00000  Uiso   1.00
O593   O     0.88904   0.05526   0.85889   0.00000  Uiso   1.00
O594   O     0.88114   0.33046   0.92650   0.00000  Uiso   1.00
H595   H     0.89868   0.30565   0.90235   0.00000  Uiso   1.00
F596   F     0.97600   0.22268   0.92700   0.00000  Uiso   1.00
C597   C     0.75092   0.06369   0.87367   0.00000  Uiso   1.00
O598   O     0.76771   0.04372   0.83423   0.00000  Uiso   1.00
O599   O     0.69431   0.04979   0.88068   0.00000  Uiso   1.00
H600   H     0.68604   0.06387   0.91732   0.00000  Uiso   1.00
C601   C     0.01419   0.59810   0.74677   0.00000  Uiso   1.00
C602   C     0.13307   0.49558   0.99460   0.00000  Uiso   1.00
C603   C     0.10330   0.47649   0.94118   0.00000  Uiso   1.00
C604   C     0.19084   0.48275   0.51323   0.00000  Uiso   1.00
C605   C     0.21595   0.44572   0.98237   0.00000  Uiso   1.00
C606   C     0.18260   0.42079   0.93324   0.00000  Uiso   1.00
C607   C     0.12470   0.43376   0.91443   0.00000  Uiso   1.00
C608   C     0.22463   0.50633   0.56219   0.00000  Uiso   1.00
C609   C     0.30324   0.45241   0.55525   0.00000  Uiso   1.00
C610   C     0.05322   0.50149   0.91622   0.00000  Uiso   1.00
C611   C     0.02014   0.65232   0.74113   0.00000  Uiso   1.00
C612   C     0.03550   0.50148   0.85523   0.00000  Uiso   1.00
C613   C     0.30948   0.34705   0.74861   0.00000  Uiso   1.00
C614   C     0.31793   0.40173   0.74958   0.00000  Uiso   1.00
C615   C     0.29762   0.49702   0.64499   0.00000  Uiso   1.00
C616   C     0.27329   0.43248   0.50329   0.00000  Uiso   1.00
C617   C     0.27746   0.48784   0.58540   0.00000  Uiso   1.00
C618   C     0.02538   0.53335   0.94928   0.00000  Uiso   1.00
C619   C     0.04960   0.54390   0.50538   0.00000  Uiso   1.00
C620   C     0.10347   0.52643   0.52777   0.00000  Uiso   1.00
H621   H     0.01147   0.43794   0.57307   0.00000  Uiso   1.00
H622   H     0.26827   0.66355   0.75659   0.00000  Uiso   1.00
H623   H     0.15683   0.45823   0.70881   0.00000  Uiso   1.00
H624   H     0.29402   0.40416   0.98176   0.00000  Uiso   1.00
H625   H     0.20964   0.53741   0.58524   0.00000  Uiso   1.00
H626   H     0.12007   0.53665   0.57153   0.00000  Uiso   1.00
H627   H     0.02777   0.56768   0.53112   0.00000  Uiso   1.00
H628   H     0.06099   0.33581   0.73233   0.00000  Uiso   1.00
N629   N     0.14493   0.48556   0.73542   0.00000  Uiso   1.00
N630   N     0.18840   0.51444   0.76457   0.00000  Uiso   1.00
O631   O     0.29769   0.57963   0.75357   0.00000  Uiso   1.00
O632   O     0.05742   0.57038   0.74424   0.00000  Uiso   1.00
O633   O     0.31490   0.50691   0.83380   0.00000  Uiso   1.00
O634   O     0.07463   0.49766   0.82446   0.00000  Uiso   1.00
O635   O     0.27592   0.42962   0.75576   0.00000  Uiso   1.00
O636   O     0.03565   0.42037   0.74643   0.00000  Uiso   1.00
O637   O     0.25870   0.50234   0.67554   0.00000  Uiso   1.00
O638   O     0.01843   0.49309   0.66620   0.00000  Uiso   1.00
Zn639  Zn    0.27119   0.50618   0.75623   0.00000  Uiso   1.00
Zn640  Zn    0.06214   0.49382   0.74377   0.00000  Uiso   1.00
F641   F     0.17365   0.55039   0.79901   0.00000  Uiso   1.00
C642   C     0.20750   0.37942   0.90332   0.00000  Uiso   1.00
O643   O     0.22238   0.38859   0.85889   0.00000  Uiso   1.00
O644   O     0.21447   0.66379   0.92650   0.00000  Uiso   1.00
H645   H     0.23201   0.63898   0.90235   0.00000  Uiso   1.00
F646   F     0.30933   0.55601   0.92700   0.00000  Uiso   1.00
C647   C     0.08426   0.39702   0.87367   0.00000  Uiso   1.00
O648   O     0.10105   0.37705   0.83423   0.00000  Uiso   1.00
O649   O     0.02765   0.38312   0.88068   0.00000  Uiso   1.00
H650   H     0.01937   0.39721   0.91732   0.00000  Uiso   1.00
C651   C     0.34752   0.59810   0.74677   0.00000  Uiso   1.00
C652   C     0.46640   0.49558   0.99460   0.00000  Uiso   1.00
C653   C     0.43663   0.47649   0.94118   0.00000  Uiso   1.00
C654   C     0.52417   0.48275   0.51323   0.00000  Uiso   1.00
C655   C     0.54929   0.44572   0.98237   0.00000  Uiso   1.00
C656   C     0.51593   0.42079   0.93324   0.00000  Uiso   1.00
C657   C     0.45804   0.43376   0.91443   0.00000  Uiso   1.00
C658   C     0.55796   0.50633   0.56219   0.00000  Uiso   1.00
C659   C     0.63658   0.45241   0.55525   0.00000  Uiso   1.00
C660   C     0.38656   0.50149   0.91622   0.00000  Uiso   1.00
C661   C     0.35347   0.65232   0.74113   0.00000  Uiso   1.00
C662   C     0.36884   0.50148   0.85523   0.00000  Uiso   1.00
C663   C     0.64281   0.34705   0.74861   0.00000  Uiso   1.00
C664   C     0.65127   0.40173   0.74958   0.00000  Uiso   1.00
C665   C     0.63095   0.49702   0.64499   0.00000  Uiso   1.00
C666   C     0.60663   0.43248   0.50329   0.00000  Uiso   1.00
C667   C     0.61079   0.48784   0.58540   0.00000  Uiso   1.00
C668   C     0.35872   0.53335   0.94928   0.00000  Uiso   1.00
C669   C     0.38294   0.54390   0.50538   0.00000  Uiso   1.00
C670   C     0.43680   0.52643   0.52777   0.00000  Uiso   1.00
H671   H     0.34481   0.43794   0.57307   0.00000  Uiso   1.00
H672   H     0.60160   0.66355   0.75659   0.00000  Uiso   1.00
H673   H     0.49017   0.45823   0.70881   0.00000  Uiso   1.00
H674   H     0.62735   0.40416   0.98176   0.00000  Uiso   1.00
H675   H     0.54297   0.53741   0.58524   0.00000  Uiso   1.00
H676   H     0.45340   0.53665   0.57153   0.00000  Uiso   1.00
H677   H     0.36111   0.56768   0.53112   0.00000  Uiso   1.00
H678   H     0.39433   0.33581   0.73233   0.00000  Uiso   1.00
N679   N     0.47827   0.48556   0.73542   0.00000  Uiso   1.00
N680   N     0.52173   0.51444   0.76457   0.00000  Uiso   1.00
O681   O     0.63102   0.57963   0.75357   0.00000  Uiso   1.00
O682   O     0.39075   0.57038   0.74424   0.00000  Uiso   1.00
O683   O     0.64823   0.50691   0.83380   0.00000  Uiso   1.00
O684   O     0.40796   0.49766   0.82446   0.00000  Uiso   1.00
O685   O     0.60925   0.42962   0.75576   0.00000  Uiso   1.00
O686   O     0.36898   0.42037   0.74643   0.00000  Uiso   1.00
O687   O     0.59204   0.50234   0.67554   0.00000  Uiso   1.00
O688   O     0.35177   0.49309   0.66620   0.00000  Uiso   1.00
Zn689  Zn    0.60453   0.50618   0.75623   0.00000  Uiso   1.00
Zn690  Zn    0.39547   0.49382   0.74377   0.00000  Uiso   1.00
F691   F     0.50699   0.55039   0.79901   0.00000  Uiso   1.00
C692   C     0.54083   0.37942   0.90332   0.00000  Uiso   1.00
O693   O     0.55571   0.38859   0.85889   0.00000  Uiso   1.00
O694   O     0.54780   0.66379   0.92650   0.00000  Uiso   1.00
H695   H     0.56534   0.63898   0.90235   0.00000  Uiso   1.00
F696   F     0.64266   0.55601   0.92700   0.00000  Uiso   1.00
C697   C     0.41759   0.39702   0.87367   0.00000  Uiso   1.00
O698   O     0.43438   0.37705   0.83423   0.00000  Uiso   1.00
O699   O     0.36098   0.38312   0.88068   0.00000  Uiso   1.00
H700   H     0.35271   0.39721   0.91732   0.00000  Uiso   1.00
C701   C     0.68086   0.59810   0.74677   0.00000  Uiso   1.00
C702   C     0.79973   0.49558   0.99460   0.00000  Uiso   1.00
C703   C     0.76996   0.47649   0.94118   0.00000  Uiso   1.00
C704   C     0.85750   0.48275   0.51323   0.00000  Uiso   1.00
C705   C     0.88262   0.44572   0.98237   0.00000  Uiso   1.00
C706   C     0.84926   0.42079   0.93324   0.00000  Uiso   1.00
C707   C     0.79137   0.43376   0.91443   0.00000  Uiso   1.00
C708   C     0.89129   0.50633   0.56219   0.00000  Uiso   1.00
C709   C     0.96991   0.45241   0.55525   0.00000  Uiso   1.00
C710   C     0.71989   0.50149   0.91622   0.00000  Uiso   1.00
C711   C     0.68681   0.65232   0.74113   0.00000  Uiso   1.00
C712   C     0.70217   0.50148   0.85523   0.00000  Uiso   1.00
C713   C     0.97615   0.34705   0.74861   0.00000  Uiso   1.00
C714   C     0.98460   0.40173   0.74958   0.00000  Uiso   1.00
C715   C     0.96429   0.49702   0.64499   0.00000  Uiso   1.00
C716   C     0.93996   0.43248   0.50329   0.00000  Uiso   1.00
C717   C     0.94413   0.48784   0.58540   0.00000  Uiso   1.00
C718   C     0.69205   0.53335   0.94928   0.00000  Uiso   1.00
C719   C     0.71627   0.54390   0.50538   0.00000  Uiso   1.00
C720   C     0.77014   0.52643   0.52777   0.00000  Uiso   1.00
H721   H     0.67814   0.43794   0.57307   0.00000  Uiso   1.00
H722   H     0.93494   0.66355   0.75659   0.00000  Uiso   1.00
H723   H     0.82350   0.45823   0.70881   0.00000  Uiso   1.00
H724   H     0.96069   0.40416   0.98176   0.00000  Uiso   1.00
H725   H     0.87631   0.53741   0.58524   0.00000  Uiso   1.00
H726   H     0.78674   0.53665   0.57153   0.00000  Uiso   1.00
H727   H     0.69444   0.56768   0.53112   0.00000  Uiso   1.00
H728   H     0.72766   0.33581   0.73233   0.00000  Uiso   1.00
N729   N     0.81160   0.48556   0.73542   0.00000  Uiso   1.00
N730   N     0.85507   0.51444   0.76457   0.00000  Uiso   1.00
O731   O     0.96435   0.57963   0.75357   0.00000  Uiso   1.00
O732   O     0.72408   0.57038   0.74424   0.00000  Uiso   1.00
O733   O     0.98157   0.50691   0.83380   0.00000  Uiso   1.00
O734   O     0.74130   0.49766   0.82446   0.00000  Uiso   1.00
O735   O     0.94258   0.42962   0.75576   0.00000  Uiso   1.00
O736   O     0.70231   0.42037   0.74643   0.00000  Uiso   1.00
O737   O     0.92537   0.50234   0.67554   0.00000  Uiso   1.00
O738   O     0.68510   0.49309   0.66620   0.00000  Uiso   1.00
Zn739  Zn    0.93786   0.50618   0.75623   0.00000  Uiso   1.00
Zn740  Zn    0.72881   0.49382   0.74377   0.00000  Uiso   1.00
F741   F     0.84032   0.55039   0.79901   0.00000  Uiso   1.00
C742   C     0.87416   0.37942   0.90332   0.00000  Uiso   1.00
O743   O     0.88904   0.38859   0.85889   0.00000  Uiso   1.00
O744   O     0.88114   0.66379   0.92650   0.00000  Uiso   1.00
H745   H     0.89868   0.63898   0.90235   0.00000  Uiso   1.00
F746   F     0.97600   0.55601   0.92700   0.00000  Uiso   1.00
C747   C     0.75092   0.39702   0.87367   0.00000  Uiso   1.00
O748   O     0.76771   0.37705   0.83423   0.00000  Uiso   1.00
O749   O     0.69431   0.38312   0.88068   0.00000  Uiso   1.00
H750   H     0.68604   0.39721   0.91732   0.00000  Uiso   1.00
C751   C     0.01419   0.93143   0.74677   0.00000  Uiso   1.00
C752   C     0.13307   0.82892   0.99460   0.00000  Uiso   1.00
C753   C     0.10330   0.80982   0.94118   0.00000  Uiso   1.00
C754   C     0.19084   0.81609   0.51323   0.00000  Uiso   1.00
C755   C     0.21595   0.77905   0.98237   0.00000  Uiso   1.00
C756   C     0.18260   0.75412   0.93324   0.00000  Uiso   1.00
C757   C     0.12470   0.76709   0.91443   0.00000  Uiso   1.00
C758   C     0.22463   0.83967   0.56219   0.00000  Uiso   1.00
C759   C     0.30324   0.78575   0.55525   0.00000  Uiso   1.00
C760   C     0.05322   0.83482   0.91622   0.00000  Uiso   1.00
C761   C     0.02014   0.98565   0.74113   0.00000  Uiso   1.00
C762   C     0.03550   0.83481   0.85523   0.00000  Uiso   1.00
C763   C     0.30948   0.68039   0.74861   0.00000  Uiso   1.00
C764   C     0.31793   0.73506   0.74958   0.00000  Uiso   1.00
C765   C     0.29762   0.83036   0.64499   0.00000  Uiso   1.00
C766   C     0.27329   0.76581   0.50329   0.00000  Uiso   1.00
C767   C     0.27746   0.82118   0.58540   0.00000  Uiso   1.00
C768   C     0.02538   0.86668   0.94928   0.00000  Uiso   1.00
C769   C     0.04960   0.87723   0.50538   0.00000  Uiso   1.00
C770   C     0.10347   0.85976   0.52777   0.00000  Uiso   1.00
H771   H     0.01147   0.77127   0.57307   0.00000  Uiso   1.00
H772   H     0.26827   0.99688   0.75659   0.00000  Uiso   1.00
H773   H     0.15683   0.79156   0.70881   0.00000  Uiso   1.00
H774   H     0.29402   0.73750   0.98176   0.00000  Uiso   1.00
H775   H     0.20964   0.87075   0.58524   0.00000  Uiso   1.00
H776   H     0.12007   0.86998   0.57153   0.00000  Uiso   1.00
H777   H     0.02777   0.90102   0.53112   0.00000  Uiso   1.00
H778   H     0.06099   0.66914   0.73233   0.00000  Uiso   1.00
N779   N     0.14493   0.81890   0.73542   0.00000  Uiso   1.00
N780   N     0.18840   0.84777   0.76457   0.00000  Uiso   1.00
O781   O     0.29769   0.91296   0.75357   0.00000  Uiso   1.00
O782   O     0.05742   0.90371   0.74424   0.00000  Uiso   1.00
O783   O     0.31490   0.84024   0.83380   0.00000  Uiso   1.00
O784   O     0.07463   0.83099   0.82446   0.00000  Uiso   1.00
O785   O     0.27592   0.76296   0.75576   0.00000  Uiso   1.00
O786   O     0.03565   0.75371   0.74643   0.00000  Uiso   1.00
O787   O     0.25870   0.83567   0.67554   0.00000  Uiso   1.00
O788   O     0.01843   0.82642   0.66620   0.00000  Uiso   1.00
Zn789  Zn    0.27119   0.83951   0.75623   0.00000  Uiso   1.00
Zn790  Zn    0.06214   0.82716   0.74377   0.00000  Uiso   1.00
F791   F     0.17365   0.88372   0.79901   0.00000  Uiso   1.00
C792   C     0.20750   0.71275   0.90332   0.00000  Uiso   1.00
O793   O     0.22238   0.72193   0.85889   0.00000  Uiso   1.00
O794   O     0.21447   0.99712   0.92650   0.00000  Uiso   1.00
H795   H     0.23201   0.97232   0.90235   0.00000  Uiso   1.00
F796   F     0.30933   0.88934   0.92700   0.00000  Uiso   1.00
C797   C     0.08426   0.73035   0.87367   0.00000  Uiso   1.00
O798   O     0.10105   0.71039   0.83423   0.00000  Uiso   1.00
O799   O     0.02765   0.71645   0.88068   0.00000  Uiso   1.00
H800   H     0.01937   0.73054   0.91732   0.00000  Uiso   1.00
C801   C     0.34752   0.93143   0.74677   0.00000  Uiso   1.00
C802   C     0.46640   0.82892   0.99460   0.00000  Uiso   1.00
C803   C     0.43663   0.80982   0.94118   0.00000  Uiso   1.00
C804   C     0.52417   0.81609   0.51323   0.00000  Uiso   1.00
C805   C     0.54929   0.77905   0.98237   0.00000  Uiso   1.00
C806   C     0.51593   0.75412   0.93324   0.00000  Uiso   1.00
C807   C     0.45804   0.76709   0.91443   0.00000  Uiso   1.00
C808   C     0.55796   0.83967   0.56219   0.00000  Uiso   1.00
C809   C     0.63658   0.78575   0.55525   0.00000  Uiso   1.00
C810   C     0.38656   0.83482   0.91622   0.00000  Uiso   1.00
C811   C     0.35347   0.98565   0.74113   0.00000  Uiso   1.00
C812   C     0.36884   0.83481   0.85523   0.00000  Uiso   1.00
C813   C     0.64281   0.68039   0.74861   0.00000  Uiso   1.00
C814   C     0.65127   0.73506   0.74958   0.00000  Uiso   1.00
C815   C     0.63095   0.83036   0.64499   0.00000  Uiso   1.00
C816   C     0.60663   0.76581   0.50329   0.00000  Uiso   1.00
C817   C     0.61079   0.82118   0.58540   0.00000  Uiso   1.00
C818   C     0.35872   0.86668   0.94928   0.00000  Uiso   1.00
C819   C     0.38294   0.87723   0.50538   0.00000  Uiso   1.00
C820   C     0.43680   0.85976   0.52777   0.00000  Uiso   1.00
H821   H     0.34481   0.77127   0.57307   0.00000  Uiso   1.00
H822   H     0.60160   0.99688   0.75659   0.00000  Uiso   1.00
H823   H     0.49017   0.79156   0.70881   0.00000  Uiso   1.00
H824   H     0.62735   0.73750   0.98176   0.00000  Uiso   1.00
H825   H     0.54297   0.87075   0.58524   0.00000  Uiso   1.00
H826   H     0.45340   0.86998   0.57153   0.00000  Uiso   1.00
H827   H     0.36111   0.90102   0.53112   0.00000  Uiso   1.00
H828   H     0.39433   0.66914   0.73233   0.00000  Uiso   1.00
N829   N     0.47827   0.81890   0.73542   0.00000  Uiso   1.00
N830   N     0.52173   0.84777   0.76457   0.00000  Uiso   1.00
O831   O     0.63102   0.91296   0.75357   0.00000  Uiso   1.00
O832   O     0.39075   0.90371   0.74424   0.00000  Uiso   1.00
O833   O     0.64823   0.84024   0.83380   0.00000  Uiso   1.00
O834   O     0.40796   0.83099   0.82446   0.00000  Uiso   1.00
O835   O     0.60925   0.76296   0.75576   0.00000  Uiso   1.00
O836   O     0.36898   0.75371   0.74643   0.00000  Uiso   1.00
O837   O     0.59204   0.83567   0.67554   0.00000  Uiso   1.00
O838   O     0.35177   0.82642   0.66620   0.00000  Uiso   1.00
Zn839  Zn    0.60453   0.83951   0.75623   0.00000  Uiso   1.00
Zn840  Zn    0.39547   0.82716   0.74377   0.00000  Uiso   1.00
F841   F     0.50699   0.88372   0.79901   0.00000  Uiso   1.00
C842   C     0.54083   0.71275   0.90332   0.00000  Uiso   1.00
O843   O     0.55571   0.72193   0.85889   0.00000  Uiso   1.00
O844   O     0.54780   0.99712   0.92650   0.00000  Uiso   1.00
H845   H     0.56534   0.97232   0.90235   0.00000  Uiso   1.00
F846   F     0.64266   0.88934   0.92700   0.00000  Uiso   1.00
C847   C     0.41759   0.73035   0.87367   0.00000  Uiso   1.00
O848   O     0.43438   0.71039   0.83423   0.00000  Uiso   1.00
O849   O     0.36098   0.71645   0.88068   0.00000  Uiso   1.00
H850   H     0.35271   0.73054   0.91732   0.00000  Uiso   1.00
C851   C     0.68086   0.93143   0.74677   0.00000  Uiso   1.00
C852   C     0.79973   0.82892   0.99460   0.00000  Uiso   1.00
C853   C     0.76996   0.80982   0.94118   0.00000  Uiso   1.00
C854   C     0.85750   0.81609   0.51323   0.00000  Uiso   1.00
C855   C     0.88262   0.77905   0.98237   0.00000  Uiso   1.00
C856   C     0.84926   0.75412   0.93324   0.00000  Uiso   1.00
C857   C     0.79137   0.76709   0.91443   0.00000  Uiso   1.00
C858   C     0.89129   0.83967   0.56219   0.00000  Uiso   1.00
C859   C     0.96991   0.78575   0.55525   0.00000  Uiso   1.00
C860   C     0.71989   0.83482   0.91622   0.00000  Uiso   1.00
C861   C     0.68681   0.98565   0.74113   0.00000  Uiso   1.00
C862   C     0.70217   0.83481   0.85523   0.00000  Uiso   1.00
C863   C     0.97615   0.68039   0.74861   0.00000  Uiso   1.00
C864   C     0.98460   0.73506   0.74958   0.00000  Uiso   1.00
C865   C     0.96429   0.83036   0.64499   0.00000  Uiso   1.00
C866   C     0.93996   0.76581   0.50329   0.00000  Uiso   1.00
C867   C     0.94413   0.82118   0.58540   0.00000  Uiso   1.00
C868   C     0.69205   0.86668   0.94928   0.00000  Uiso   1.00
C869   C     0.71627   0.87723   0.50538   0.00000  Uiso   1.00
C870   C     0.77014   0.85976   0.52777   0.00000  Uiso   1.00
H871   H     0.67814   0.77127   0.57307   0.00000  Uiso   1.00
H872   H     0.93494   0.99688   0.75659   0.00000  Uiso   1.00
H873   H     0.82350   0.79156   0.70881   0.00000  Uiso   1.00
H874   H     0.96069   0.73750   0.98176   0.00000  Uiso   1.00
H875   H     0.87631   0.87075   0.58524   0.00000  Uiso   1.00
H876   H     0.78674   0.86998   0.57153   0.00000  Uiso   1.00
H877   H     0.69444   0.90102   0.53112   0.00000  Uiso   1.00
H878   H     0.72766   0.66914   0.73233   0.00000  Uiso   1.00
N879   N     0.81160   0.81890   0.73542   0.00000  Uiso   1.00
N880   N     0.85507   0.84777   0.76457   0.00000  Uiso   1.00
O881   O     0.96435   0.91296   0.75357   0.00000  Uiso   1.00
O882   O     0.72408   0.90371   0.74424   0.00000  Uiso   1.00
O883   O     0.98157   0.84024   0.83380   0.00000  Uiso   1.00
O884   O     0.74130   0.83099   0.82446   0.00000  Uiso   1.00
O885   O     0.94258   0.76296   0.75576   0.00000  Uiso   1.00
O886   O     0.70231   0.75371   0.74643   0.00000  Uiso   1.00
O887   O     0.92537   0.83567   0.67554   0.00000  Uiso   1.00
O888   O     0.68510   0.82642   0.66620   0.00000  Uiso   1.00
Zn889  Zn    0.93786   0.83951   0.75623   0.00000  Uiso   1.00
Zn890  Zn    0.72881   0.82716   0.74377   0.00000  Uiso   1.00
F891   F     0.84032   0.88372   0.79901   0.00000  Uiso   1.00
C892   C     0.87416   0.71275   0.90332   0.00000  Uiso   1.00
O893   O     0.88904   0.72193   0.85889   0.00000  Uiso   1.00
O894   O     0.88114   0.99712   0.92650   0.00000  Uiso   1.00
H895   H     0.89868   0.97232   0.90235   0.00000  Uiso   1.00
F896   F     0.97600   0.88934   0.92700   0.00000  Uiso   1.00
C897   C     0.75092   0.73035   0.87367   0.00000  Uiso   1.00
O898   O     0.76771   0.71039   0.83423   0.00000  Uiso   1.00
O899   O     0.69431   0.71645   0.88068   0.00000  Uiso   1.00
H900   H     0.68604   0.73054   0.91732   0.00000  Uiso   1.00
loop_
_geom_bond_atom_site_label_1
_geom_bond_atom_site_label_2
_geom_bond_distance
_geom_bond_site_symmetry_2
_ccdc_geom_bond_type
C1     C11     1.401   .     S
C1     O32     1.289   .     A
C1     O131    1.276   1_455 S
C2     C3      1.407   .     A
C2     C454    1.410   .     S
C2     C470    1.420   .     S
C3     C10     1.418   .     A
C3     C7      1.428   .     A
C4     C8      1.393   .     A
C4     C452    1.410   1_554 S
C4     C455    1.422   1_554 S
C5     C6      1.405   .     A
C5     C454    1.422   .     S
C5     C466    1.413   .     S
C6     C7      1.414   .     A
C6     C42     1.484   .     S
C7     C47     1.494   .     S
C8     C17     1.381   .     A
C8     H25     1.078   .     S
C9     C17     1.393   .     A
C9     C16     1.386   .     A
C9     H71     1.083   .     S
C10    C18     1.408   .     A
C10    C12     1.460   .     S
C11    C263    1.337   1_455 S
C11    H178    1.088   .     S
C12    O34     1.300   .     A
C12    O133    1.292   1_455 S
C13    C14     1.401   .     S
C13    C361    1.337   1_545 S
C13    H322    1.088   1_545 S
C14    O35     1.287   .     A
C14    O86     1.278   .     S
C15    C17     1.441   .     S
C15    O37     1.297   .     A
C15    O88     1.289   .     S
C16    C455    1.413   1_554 S
C16    H474    1.079   1_554 S
C18    C469    1.384   .     S
C18    F146    1.358   1_455 S
C19    H27     1.083   .     S
C19    C20     1.387   .     A
C19    C468    1.384   1_554 S
C20    H26     1.078   .     S
C20    C452    1.420   1_554 S
H21    C109    1.083   1_455 S
H22    C163    1.088   .     S
H23    N29     1.029   .     S
H24    C466    1.079   .     S
H28    C311    1.088   1_545 S
N29    N30     1.296   .     D
N29    Zn40    2.020   .     S
N30    Zn39    2.020   .     S
N30    F41     1.335   .     S
O31    Zn39    1.950   .     S
O31    C51     1.276   .     S
O32    Zn40    1.973   .     S
O33    Zn39    1.963   .     S
O33    C62     1.292   .     S
O34    Zn40    1.925   .     S
O35    Zn39    1.973   .     S
O36    Zn40    1.950   .     S
O36    C114    1.278   1_455 S
O37    Zn39    1.925   .     S
O38    Zn40    1.963   .     S
O38    C115    1.289   1_455 S
C42    O43     1.223   .     D
C42    O344    1.397   1_545 S
O44    H45     1.014   .     S
O44    C192    1.397   .     S
F46    C68     1.358   .     S
C47    O49     1.398   .     S
C47    O48     1.218   .     D
O49    H50     1.010   .     S
C51    C61     1.401   .     S
C51    O82     1.289   .     A
C52    C53     1.407   .     A
C52    C504    1.410   .     S
C52    C520    1.420   .     S
C53    C60     1.418   .     A
C53    C57     1.428   .     A
C54    C58     1.393   .     A
C54    C502    1.410   1_554 S
C54    C505    1.422   1_554 S
C55    C56     1.405   .     A
C55    C504    1.422   .     S
C55    C516    1.413   .     S
C56    C57     1.414   .     A
C56    C92     1.484   .     S
C57    C97     1.494   .     S
C58    C67     1.381   .     A
C58    H75     1.078   .     S
C59    C67     1.393   .     A
C59    C66     1.386   .     A
C59    H121    1.083   .     S
C60    C68     1.408   .     A
C60    C62     1.460   .     S
C61    C163    1.337   .     S
C61    H228    1.088   .     S
C62    O84     1.300   .     A
C63    C64     1.401   .     S
C63    C411    1.337   1_545 S
C63    H372    1.088   1_545 S
C64    O85     1.287   .     A
C64    O136    1.278   .     S
C65    C67     1.441   .     S
C65    O87     1.297   .     A
C65    O138    1.289   .     S
C66    C505    1.413   1_554 S
C66    H524    1.079   1_554 S
C68    C519    1.384   .     S
C69    H77     1.083   .     S
C69    C70     1.387   .     A
C69    C518    1.384   1_554 S
C70    H76     1.078   .     S
C70    C502    1.420   1_554 S
H72    C213    1.088   .     S
H73    N79     1.029   .     S
H74    C516    1.079   .     S
H78    C361    1.088   1_545 S
N79    N80     1.296   .     D
N79    Zn90    2.020   .     S
N80    Zn89    2.020   .     S
N80    F91     1.335   .     S
O81    Zn89    1.950   .     S
O81    C101    1.276   .     S
O82    Zn90    1.973   .     S
O83    Zn89    1.963   .     S
O83    C112    1.292   .     S
O84    Zn90    1.925   .     S
O85    Zn89    1.973   .     S
O86    Zn90    1.950   .     S
O87    Zn89    1.925   .     S
O88    Zn90    1.963   .     S
C92    O93     1.223   .     D
C92    O394    1.397   1_545 S
O94    H95     1.014   .     S
O94    C242    1.397   .     S
F96    C118    1.358   .     S
C97    O99     1.398   .     S
C97    O98     1.218   .     D
O99    H100    1.010   .     S
C101   C111    1.401   .     S
C101   O132    1.289   .     A
C102   C103    1.407   .     A
C102   C554    1.410   .     S
C102   C570    1.420   .     S
C103   C110    1.418   .     A
C103   C107    1.428   .     A
C104   C108    1.393   .     A
C104   C552    1.410   1_554 S
C104   C555    1.422   1_554 S
C105   C106    1.405   .     A
C105   C554    1.422   .     S
C105   C566    1.413   .     S
C106   C107    1.414   .     A
C106   C142    1.484   .     S
C107   C147    1.494   .     S
C108   C117    1.381   .     A
C108   H125    1.078   .     S
C109   C117    1.393   .     A
C109   C116    1.386   .     A
C109   H21     1.083   1_655 S
C110   C118    1.408   .     A
C110   C112    1.460   .     S
C111   C213    1.337   .     S
C111   H278    1.088   .     S
C112   O134    1.300   .     A
C113   C114    1.401   .     S
C113   C311    1.337   1_645 S
C113   H422    1.088   1_545 S
C114   O135    1.287   .     A
C114   O36     1.278   1_655 S
C115   C117    1.441   .     S
C115   O137    1.297   .     A
C115   O38     1.289   1_655 S
C116   C555    1.413   1_554 S
C116   H574    1.079   1_554 S
C118   C569    1.384   .     S
C119   H127    1.083   .     S
C119   C120    1.387   .     A
C119   C568    1.384   1_554 S
C120   H126    1.078   .     S
C120   C552    1.420   1_554 S
H122   C263    1.088   .     S
H123   N129    1.029   .     S
H124   C566    1.079   .     S
H128   C411    1.088   1_545 S
N129   N130    1.296   .     D
N129   Zn140   2.020   .     S
N130   Zn139   2.020   .     S
N130   F141    1.335   .     S
O131   Zn139   1.950   .     S
O131   C1      1.276   1_655 S
O132   Zn140   1.973   .     S
O133   Zn139   1.963   .     S
O133   C12     1.292   1_655 S
O134   Zn140   1.925   .     S
O135   Zn139   1.973   .     S
O136   Zn140   1.950   .     S
O137   Zn139   1.925   .     S
O138   Zn140   1.963   .     S
C142   O143    1.223   .     D
C142   O444    1.397   1_545 S
O144   H145    1.014   .     S
O144   C292    1.397   .     S
F146   C18     1.358   1_655 S
C147   O149    1.398   .     S
C147   O148    1.218   .     D
O149   H150    1.010   .     S
C151   C161    1.401   .     S
C151   O182    1.289   .     A
C151   O281    1.276   1_455 S
C152   C153    1.407   .     A
C152   C604    1.410   .     S
C152   C620    1.420   .     S
C153   C160    1.418   .     A
C153   C157    1.428   .     A
C154   C158    1.393   .     A
C154   C602    1.410   1_554 S
C154   C605    1.422   1_554 S
C155   C156    1.405   .     A
C155   C604    1.422   .     S
C155   C616    1.413   .     S
C156   C157    1.414   .     A
C156   C192    1.484   .     S
C157   C197    1.494   .     S
C158   C167    1.381   .     A
C158   H175    1.078   .     S
C159   C167    1.393   .     A
C159   C166    1.386   .     A
C159   H221    1.083   .     S
C160   C168    1.408   .     A
C160   C162    1.460   .     S
C161   C413    1.337   1_455 S
C161   H328    1.088   .     S
C162   O184    1.300   .     A
C162   O283    1.292   1_455 S
C163   C164    1.401   .     S
C164   O185    1.287   .     A
C164   O236    1.278   .     S
C165   C167    1.441   .     S
C165   O187    1.297   .     A
C165   O238    1.289   .     S
C166   C605    1.413   1_554 S
C166   H624    1.079   1_554 S
C168   C619    1.384   .     S
C168   F296    1.358   1_455 S
C169   H177    1.083   .     S
C169   C170    1.387   .     A
C169   C618    1.384   1_554 S
C170   H176    1.078   .     S
C170   C602    1.420   1_554 S
H171   C259    1.083   1_455 S
H172   C313    1.088   .     S
H173   N179    1.029   .     S
H174   C616    1.079   .     S
N179   N180    1.296   .     D
N179   Zn190   2.020   .     S
N180   Zn189   2.020   .     S
N180   F191    1.335   .     S
O181   Zn189   1.950   .     S
O181   C201    1.276   .     S
O182   Zn190   1.973   .     S
O183   Zn189   1.963   .     S
O183   C212    1.292   .     S
O184   Zn190   1.925   .     S
O185   Zn189   1.973   .     S
O186   Zn190   1.950   .     S
O186   C264    1.278   1_455 S
O187   Zn189   1.925   .     S
O188   Zn190   1.963   .     S
O188   C265    1.289   1_455 S
C192   O193    1.223   .     D
O194   H195    1.014   .     S
O194   C342    1.397   .     S
F196   C218    1.358   .     S
C197   O199    1.398   .     S
C197   O198    1.218   .     D
O199   H200    1.010   .     S
C201   C211    1.401   .     S
C201   O232    1.289   .     A
C202   C203    1.407   .     A
C202   C654    1.410   .     S
C202   C670    1.420   .     S
C203   C210    1.418   .     A
C203   C207    1.428   .     A
C204   C208    1.393   .     A
C204   C652    1.410   1_554 S
C204   C655    1.422   1_554 S
C205   C206    1.405   .     A
C205   C654    1.422   .     S
C205   C666    1.413   .     S
C206   C207    1.414   .     A
C206   C242    1.484   .     S
C207   C247    1.494   .     S
C208   C217    1.381   .     A
C208   H225    1.078   .     S
C209   C217    1.393   .     A
C209   C216    1.386   .     A
C209   H271    1.083   .     S
C210   C218    1.408   .     A
C210   C212    1.460   .     S
C211   C313    1.337   .     S
C211   H378    1.088   .     S
C212   O234    1.300   .     A
C213   C214    1.401   .     S
C214   O235    1.287   .     A
C214   O286    1.278   .     S
C215   C217    1.441   .     S
C215   O237    1.297   .     A
C215   O288    1.289   .     S
C216   C655    1.413   1_554 S
C216   H674    1.079   1_554 S
C218   C669    1.384   .     S
C219   H227    1.083   .     S
C219   C220    1.387   .     A
C219   C668    1.384   1_554 S
C220   H226    1.078   .     S
C220   C652    1.420   1_554 S
H222   C363    1.088   .     S
H223   N229    1.029   .     S
H224   C666    1.079   .     S
N229   N230    1.296   .     D
N229   Zn240   2.020   .     S
N230   Zn239   2.020   .     S
N230   F241    1.335   .     S
O231   Zn239   1.950   .     S
O231   C251    1.276   .     S
O232   Zn240   1.973   .     S
O233   Zn239   1.963   .     S
O233   C262    1.292   .     S
O234   Zn240   1.925   .     S
O235   Zn239   1.973   .     S
O236   Zn240   1.950   .     S
O237   Zn239   1.925   .     S
O238   Zn240   1.963   .     S
C242   O243    1.223   .     D
O244   H245    1.014   .     S
O244   C392    1.397   .     S
F246   C268    1.358   .     S
C247   O249    1.398   .     S
C247   O248    1.218   .     D
O249   H250    1.010   .     S
C251   C261    1.401   .     S
C251   O282    1.289   .     A
C252   C253    1.407   .     A
C252   C704    1.410   .     S
C252   C720    1.420   .     S
C253   C260    1.418   .     A
C253   C257    1.428   .     A
C254   C258    1.393   .     A
C254   C702    1.410   1_554 S
C254   C705    1.422   1_554 S
C255   C256    1.405   .     A
C255   C704    1.422   .     S
C255   C716    1.413   .     S
C256   C257    1.414   .     A
C256   C292    1.484   .     S
C257   C297    1.494   .     S
C258   C267    1.381   .     A
C258   H275    1.078   .     S
C259   C267    1.393   .     A
C259   C266    1.386   .     A
C259   H171    1.083   1_655 S
C260   C268    1.408   .     A
C260   C262    1.460   .     S
C261   C363    1.337   .     S
C261   H428    1.088   .     S
C262   O284    1.300   .     A
C263   C264    1.401   .     S
C263   C11     1.337   1_655 S
C264   O285    1.287   .     A
C264   O186    1.278   1_655 S
C265   C267    1.441   .     S
C265   O287    1.297   .     A
C265   O188    1.289   1_655 S
C266   C705    1.413   1_554 S
C266   H724    1.079   1_554 S
C268   C719    1.384   .     S
C269   H277    1.083   .     S
C269   C270    1.387   .     A
C269   C718    1.384   1_554 S
C270   H276    1.078   .     S
C270   C702    1.420   1_554 S
H272   C413    1.088   .     S
H273   N279    1.029   .     S
H274   C716    1.079   .     S
N279   N280    1.296   .     D
N279   Zn290   2.020   .     S
N280   Zn289   2.020   .     S
N280   F291    1.335   .     S
O281   Zn289   1.950   .     S
O281   C151    1.276   1_655 S
O282   Zn290   1.973   .     S
O283   Zn289   1.963   .     S
O283   C162    1.292   1_655 S
O284   Zn290   1.925   .     S
O285   Zn289   1.973   .     S
O286   Zn290   1.950   .     S
O287   Zn289   1.925   .     S
O288   Zn290   1.963   .     S
C292   O293    1.223   .     D
O294   H295    1.014   .     S
O294   C442    1.397   .     S
F296   C168    1.358   1_655 S
C297   O299    1.398   .     S
C297   O298    1.218   .     D
O299   H300    1.010   .     S
C301   C311    1.401   .     S
C301   O332    1.289   .     A
C301   O431    1.276   1_455 S
C302   C303    1.407   .     A
C302   C754    1.410   .     S
C302   C770    1.420   .     S
C303   C310    1.418   .     A
C303   C307    1.428   .     A
C304   C308    1.393   .     A
C304   C752    1.410   1_554 S
C304   C755    1.422   1_554 S
C305   C306    1.405   .     A
C305   C754    1.422   .     S
C305   C766    1.413   .     S
C306   C307    1.414   .     A
C306   C342    1.484   .     S
C307   C347    1.494   .     S
C308   C317    1.381   .     A
C308   H325    1.078   .     S
C309   C317    1.393   .     A
C309   C316    1.386   .     A
C309   H371    1.083   .     S
C310   C318    1.408   .     A
C310   C312    1.460   .     S
C311   C113    1.337   1_465 S
C311   H28     1.088   1_565 S
C312   O334    1.300   .     A
C312   O433    1.292   1_455 S
C313   C314    1.401   .     S
C314   O335    1.287   .     A
C314   O386    1.278   .     S
C315   C317    1.441   .     S
C315   O337    1.297   .     A
C315   O388    1.289   .     S
C316   C755    1.413   1_554 S
C316   H774    1.079   1_554 S
C318   C769    1.384   .     S
C318   F446    1.358   1_455 S
C319   H327    1.083   .     S
C319   C320    1.387   .     A
C319   C768    1.384   1_554 S
C320   H326    1.078   .     S
C320   C752    1.420   1_554 S
H321   C409    1.083   1_455 S
H322   C13     1.088   1_565 S
H323   N329    1.029   .     S
H324   C766    1.079   .     S
N329   N330    1.296   .     D
N329   Zn340   2.020   .     S
N330   Zn339   2.020   .     S
N330   F341    1.335   .     S
O331   Zn339   1.950   .     S
O331   C351    1.276   .     S
O332   Zn340   1.973   .     S
O333   Zn339   1.963   .     S
O333   C362    1.292   .     S
O334   Zn340   1.925   .     S
O335   Zn339   1.973   .     S
O336   Zn340   1.950   .     S
O336   C414    1.278   1_455 S
O337   Zn339   1.925   .     S
O338   Zn340   1.963   .     S
O338   C415    1.289   1_455 S
C342   O343    1.223   .     D
O344   H345    1.014   .     S
O344   C42     1.397   1_565 S
F346   C368    1.358   .     S
C347   O349    1.398   .     S
C347   O348    1.218   .     D
O349   H350    1.010   .     S
C351   C361    1.401   .     S
C351   O382    1.289   .     A
C352   C353    1.407   .     A
C352   C804    1.410   .     S
C352   C820    1.420   .     S
C353   C360    1.418   .     A
C353   C357    1.428   .     A
C354   C358    1.393   .     A
C354   C802    1.410   1_554 S
C354   C805    1.422   1_554 S
C355   C356    1.405   .     A
C355   C804    1.422   .     S
C355   C816    1.413   .     S
C356   C357    1.414   .     A
C356   C392    1.484   .     S
C357   C397    1.494   .     S
C358   C367    1.381   .     A
C358   H375    1.078   .     S
C359   C367    1.393   .     A
C359   C366    1.386   .     A
C359   H421    1.083   .     S
C360   C368    1.408   .     A
C360   C362    1.460   .     S
C361   C13     1.337   1_565 S
C361   H78     1.088   1_565 S
C362   O384    1.300   .     A
C363   C364    1.401   .     S
C364   O385    1.287   .     A
C364   O436    1.278   .     S
C365   C367    1.441   .     S
C365   O387    1.297   .     A
C365   O438    1.289   .     S
C366   C805    1.413   1_554 S
C366   H824    1.079   1_554 S
C368   C819    1.384   .     S
C369   H377    1.083   .     S
C369   C370    1.387   .     A
C369   C818    1.384   1_554 S
C370   H376    1.078   .     S
C370   C802    1.420   1_554 S
H372   C63     1.088   1_565 S
H373   N379    1.029   .     S
H374   C816    1.079   .     S
N379   N380    1.296   .     D
N379   Zn390   2.020   .     S
N380   Zn389   2.020   .     S
N380   F391    1.335   .     S
O381   Zn389   1.950   .     S
O381   C401    1.276   .     S
O382   Zn390   1.973   .     S
O383   Zn389   1.963   .     S
O383   C412    1.292   .     S
O384   Zn390   1.925   .     S
O385   Zn389   1.973   .     S
O386   Zn390   1.950   .     S
O387   Zn389   1.925   .     S
O388   Zn390   1.963   .     S
C392   O393    1.223   .     D
O394   H395    1.014   .     S
O394   C92     1.397   1_565 S
F396   C418    1.358   .     S
C397   O399    1.398   .     S
C397   O398    1.218   .     D
O399   H400    1.010   .     S
C401   C411    1.401   .     S
C401   O432    1.289   .     A
C402   C403    1.407   .     A
C402   C854    1.410   .     S
C402   C870    1.420   .     S
C403   C410    1.418   .     A
C403   C407    1.428   .     A
C404   C408    1.393   .     A
C404   C852    1.410   1_554 S
C404   C855    1.422   1_554 S
C405   C406    1.405   .     A
C405   C854    1.422   .     S
C405   C866    1.413   .     S
C406   C407    1.414   .     A
C406   C442    1.484   .     S
C407   C447    1.494   .     S
C408   C417    1.381   .     A
C408   H425    1.078   .     S
C409   C417    1.393   .     A
C409   C416    1.386   .     A
C409   H321    1.083   1_655 S
C410   C418    1.408   .     A
C410   C412    1.460   .     S
C411   C63     1.337   1_565 S
C411   H128    1.088   1_565 S
C412   O434    1.300   .     A
C413   C414    1.401   .     S
C413   C161    1.337   1_655 S
C414   O435    1.287   .     A
C414   O336    1.278   1_655 S
C415   C417    1.441   .     S
C415   O437    1.297   .     A
C415   O338    1.289   1_655 S
C416   C855    1.413   1_554 S
C416   H874    1.079   1_554 S
C418   C869    1.384   .     S
C419   H427    1.083   .     S
C419   C420    1.387   .     A
C419   C868    1.384   1_554 S
C420   H426    1.078   .     S
C420   C852    1.420   1_554 S
H422   C113    1.088   1_565 S
H423   N429    1.029   .     S
H424   C866    1.079   .     S
N429   N430    1.296   .     D
N429   Zn440   2.020   .     S
N430   Zn439   2.020   .     S
N430   F441    1.335   .     S
O431   Zn439   1.950   .     S
O431   C301    1.276   1_655 S
O432   Zn440   1.973   .     S
O433   Zn439   1.963   .     S
O433   C312    1.292   1_655 S
O434   Zn440   1.925   .     S
O435   Zn439   1.973   .     S
O436   Zn440   1.950   .     S
O437   Zn439   1.925   .     S
O438   Zn440   1.963   .     S
C442   O443    1.223   .     D
O444   H445    1.014   .     S
O444   C142    1.397   1_565 S
F446   C318    1.358   1_655 S
C447   O449    1.398   .     S
C447   O448    1.218   .     D
O449   H450    1.010   .     S
C451   C461    1.401   .     S
C451   O482    1.289   .     A
C451   O581    1.276   1_455 S
C452   C453    1.407   .     A
C452   C4      1.410   1_556 S
C452   C20     1.420   1_556 S
C453   C460    1.418   .     A
C453   C457    1.428   .     A
C454   C458    1.393   .     A
C455   C456    1.405   .     A
C455   C4      1.422   1_556 S
C455   C16     1.413   1_556 S
C456   C457    1.414   .     A
C456   C492    1.484   .     S
C457   C497    1.494   .     S
C458   C467    1.381   .     A
C458   H475    1.078   .     S
C459   C467    1.393   .     A
C459   C466    1.386   .     A
C459   H521    1.083   .     S
C460   C468    1.408   .     A
C460   C462    1.460   .     S
C461   C713    1.337   1_455 S
C461   H628    1.088   .     S
C462   O484    1.300   .     A
C462   O583    1.292   1_455 S
C463   C464    1.401   .     S
C463   C811    1.337   1_545 S
C463   H772    1.088   1_545 S
C464   O485    1.287   .     A
C464   O536    1.278   .     S
C465   C467    1.441   .     S
C465   O487    1.297   .     A
C465   O538    1.289   .     S
C468   C19     1.384   1_556 S
C468   F596    1.358   1_455 S
C469   H477    1.083   .     S
C469   C470    1.387   .     A
C470   H476    1.078   .     S
H471   C559    1.083   1_455 S
H472   C613    1.088   .     S
H473   N479    1.029   .     S
H474   C16     1.079   1_556 S
H478   C761    1.088   1_545 S
N479   N480    1.296   .     D
N479   Zn490   2.020   .     S
N480   Zn489   2.020   .     S
N480   F491    1.335   .     S
O481   Zn489   1.950   .     S
O481   C501    1.276   .     S
O482   Zn490   1.973   .     S
O483   Zn489   1.963   .     S
O483   C512    1.292   .     S
O484   Zn490   1.925   .     S
O485   Zn489   1.973   .     S
O486   Zn490   1.950   .     S
O486   C564    1.278   1_455 S
O487   Zn489   1.925   .     S
O488   Zn490   1.963   .     S
O488   C565    1.289   1_455 S
C492   O493    1.223   .     D
C492   O794    1.397   1_545 S
O494   H495    1.014   .     S
O494   C642    1.397   .     S
F496   C518    1.358   .     S
C497   O499    1.398   .     S
C497   O498    1.218   .     D
O499   H500    1.010   .     S
C501   C511    1.401   .     S
C501   O532    1.289   .     A
C502   C503    1.407   .     A
C502   C54     1.410   1_556 S
C502   C70     1.420   1_556 S
C503   C510    1.418   .     A
C503   C507    1.428   .     A
C504   C508    1.393   .     A
C505   C506    1.405   .     A
C505   C54     1.422   1_556 S
C505   C66     1.413   1_556 S
C506   C507    1.414   .     A
C506   C542    1.484   .     S
C507   C547    1.494   .     S
C508   C517    1.381   .     A
C508   H525    1.078   .     S
C509   C517    1.393   .     A
C509   C516    1.386   .     A
C509   H571    1.083   .     S
C510   C518    1.408   .     A
C510   C512    1.460   .     S
C511   C613    1.337   .     S
C511   H678    1.088   .     S
C512   O534    1.300   .     A
C513   C514    1.401   .     S
C513   C861    1.337   1_545 S
C513   H822    1.088   1_545 S
C514   O535    1.287   .     A
C514   O586    1.278   .     S
C515   C517    1.441   .     S
C515   O537    1.297   .     A
C515   O588    1.289   .     S
C518   C69     1.384   1_556 S
C519   H527    1.083   .     S
C519   C520    1.387   .     A
C520   H526    1.078   .     S
H522   C663    1.088   .     S
H523   N529    1.029   .     S
H524   C66     1.079   1_556 S
H528   C811    1.088   1_545 S
N529   N530    1.296   .     D
N529   Zn540   2.020   .     S
N530   Zn539   2.020   .     S
N530   F541    1.335   .     S
O531   Zn539   1.950   .     S
O531   C551    1.276   .     S
O532   Zn540   1.973   .     S
O533   Zn539   1.963   .     S
O533   C562    1.292   .     S
O534   Zn540   1.925   .     S
O535   Zn539   1.973   .     S
O536   Zn540   1.950   .     S
O537   Zn539   1.925   .     S
O538   Zn540   1.963   .     S
C542   O543    1.223   .     D
C542   O844    1.397   1_545 S
O544   H545    1.014   .     S
O544   C692    1.397   .     S
F546   C568    1.358   .     S
C547   O549    1.398   .     S
C547   O548    1.218   .     D
O549   H550    1.010   .     S
C551   C561    1.401   .     S
C551   O582    1.289   .     A
C552   C553    1.407   .     A
C552   C104    1.410   1_556 S
C552   C120    1.420   1_556 S
C553   C560    1.418   .     A
C553   C557    1.428   .     A
C554   C558    1.393   .     A
C555   C556    1.405   .     A
C555   C104    1.422   1_556 S
C555   C116    1.413   1_556 S
C556   C557    1.414   .     A
C556   C592    1.484   .     S
C557   C597    1.494   .     S
C558   C567    1.381   .     A
C558   H575    1.078   .     S
C559   C567    1.393   .     A
C559   C566    1.386   .     A
C559   H471    1.083   1_655 S
C560   C568    1.408   .     A
C560   C562    1.460   .     S
C561   C663    1.337   .     S
C561   H728    1.088   .     S
C562   O584    1.300   .     A
C563   C564    1.401   .     S
C563   C761    1.337   1_645 S
C563   H872    1.088   1_545 S
C564   O585    1.287   .     A
C564   O486    1.278   1_655 S
C565   C567    1.441   .     S
C565   O587    1.297   .     A
C565   O488    1.289   1_655 S
C568   C119    1.384   1_556 S
C569   H577    1.083   .     S
C569   C570    1.387   .     A
C570   H576    1.078   .     S
H572   C713    1.088   .     S
H573   N579    1.029   .     S
H574   C116    1.079   1_556 S
H578   C861    1.088   1_545 S
N579   N580    1.296   .     D
N579   Zn590   2.020   .     S
N580   Zn589   2.020   .     S
N580   F591    1.335   .     S
O581   Zn589   1.950   .     S
O581   C451    1.276   1_655 S
O582   Zn590   1.973   .     S
O583   Zn589   1.963   .     S
O583   C462    1.292   1_655 S
O584   Zn590   1.925   .     S
O585   Zn589   1.973   .     S
O586   Zn590   1.950   .     S
O587   Zn589   1.925   .     S
O588   Zn590   1.963   .     S
C592   O593    1.223   .     D
C592   O894    1.397   1_545 S
O594   H595    1.014   .     S
O594   C742    1.397   .     S
F596   C468    1.358   1_655 S
C597   O599    1.398   .     S
C597   O598    1.218   .     D
O599   H600    1.010   .     S
C601   C611    1.401   .     S
C601   O632    1.289   .     A
C601   O731    1.276   1_455 S
C602   C603    1.407   .     A
C602   C154    1.410   1_556 S
C602   C170    1.420   1_556 S
C603   C610    1.418   .     A
C603   C607    1.428   .     A
C604   C608    1.393   .     A
C605   C606    1.405   .     A
C605   C154    1.422   1_556 S
C605   C166    1.413   1_556 S
C606   C607    1.414   .     A
C606   C642    1.484   .     S
C607   C647    1.494   .     S
C608   C617    1.381   .     A
C608   H625    1.078   .     S
C609   C617    1.393   .     A
C609   C616    1.386   .     A
C609   H671    1.083   .     S
C610   C618    1.408   .     A
C610   C612    1.460   .     S
C611   C863    1.337   1_455 S
C611   H778    1.088   .     S
C612   O634    1.300   .     A
C612   O733    1.292   1_455 S
C613   C614    1.401   .     S
C614   O635    1.287   .     A
C614   O686    1.278   .     S
C615   C617    1.441   .     S
C615   O637    1.297   .     A
C615   O688    1.289   .     S
C618   C169    1.384   1_556 S
C618   F746    1.358   1_455 S
C619   H627    1.083   .     S
C619   C620    1.387   .     A
C620   H626    1.078   .     S
H621   C709    1.083   1_455 S
H622   C763    1.088   .     S
H623   N629    1.029   .     S
H624   C166    1.079   1_556 S
N629   N630    1.296   .     D
N629   Zn640   2.020   .     S
N630   Zn639   2.020   .     S
N630   F641    1.335   .     S
O631   Zn639   1.950   .     S
O631   C651    1.276   .     S
O632   Zn640   1.973   .     S
O633   Zn639   1.963   .     S
O633   C662    1.292   .     S
O634   Zn640   1.925   .     S
O635   Zn639   1.973   .     S
O636   Zn640   1.950   .     S
O636   C714    1.278   1_455 S
O637   Zn639   1.925   .     S
O638   Zn640   1.963   .     S
O638   C715    1.289   1_455 S
C642   O643    1.223   .     D
O644   H645    1.014   .     S
O644   C792    1.397   .     S
F646   C668    1.358   .     S
C647   O649    1.398   .     S
C647   O648    1.218   .     D
O649   H650    1.010   .     S
C651   C661    1.401   .     S
C651   O682    1.289   .     A
C652   C653    1.407   .     A
C652   C204    1.410   1_556 S
C652   C220    1.420   1_556 S
C653   C660    1.418   .     A
C653   C657    1.428   .     A
C654   C658    1.393   .     A
C655   C656    1.405   .     A
C655   C204    1.422   1_556 S
C655   C216    1.413   1_556 S
C656   C657    1.414   .     A
C656   C692    1.484   .     S
C657   C697    1.494   .     S
C658   C667    1.381   .     A
C658   H675    1.078   .     S
C659   C667    1.393   .     A
C659   C666    1.386   .     A
C659   H721    1.083   .     S
C660   C668    1.408   .     A
C660   C662    1.460   .     S
C661   C763    1.337   .     S
C661   H828    1.088   .     S
C662   O684    1.300   .     A
C663   C664    1.401   .     S
C664   O685    1.287   .     A
C664   O736    1.278   .     S
C665   C667    1.441   .     S
C665   O687    1.297   .     A
C665   O738    1.289   .     S
C668   C219    1.384   1_556 S
C669   H677    1.083   .     S
C669   C670    1.387   .     A
C670   H676    1.078   .     S
H672   C813    1.088   .     S
H673   N679    1.029   .     S
H674   C216    1.079   1_556 S
N679   N680    1.296   .     D
N679   Zn690   2.020   .     S
N680   Zn689   2.020   .     S
N680   F691    1.335   .     S
O681   Zn689   1.950   .     S
O681   C701    1.276   .     S
O682   Zn690   1.973   .     S
O683   Zn689   1.963   .     S
O683   C712    1.292   .     S
O684   Zn690   1.925   .     S
O685   Zn689   1.973   .     S
O686   Zn690   1.950   .     S
O687   Zn689   1.925   .     S
O688   Zn690   1.963   .     S
C692   O693    1.223   .     D
O694   H695    1.014   .     S
O694   C842    1.397   .     S
F696   C718    1.358   .     S
C697   O699    1.398   .     S
C697   O698    1.218   .     D
O699   H700    1.010   .     S
C701   C711    1.401   .     S
C701   O732    1.289   .     A
C702   C703    1.407   .     A
C702   C254    1.410   1_556 S
C702   C270    1.420   1_556 S
C703   C710    1.418   .     A
C703   C707    1.428   .     A
C704   C708    1.393   .     A
C705   C706    1.405   .     A
C705   C254    1.422   1_556 S
C705   C266    1.413   1_556 S
C706   C707    1.414   .     A
C706   C742    1.484   .     S
C707   C747    1.494   .     S
C708   C717    1.381   .     A
C708   H725    1.078   .     S
C709   C717    1.393   .     A
C709   C716    1.386   .     A
C709   H621    1.083   1_655 S
C710   C718    1.408   .     A
C710   C712    1.460   .     S
C711   C813    1.337   .     S
C711   H878    1.088   .     S
C712   O734    1.300   .     A
C713   C714    1.401   .     S
C713   C461    1.337   1_655 S
C714   O735    1.287   .     A
C714   O636    1.278   1_655 S
C715   C717    1.441   .     S
C715   O737    1.297   .     A
C715   O638    1.289   1_655 S
C718   C269    1.384   1_556 S
C719   H727    1.083   .     S
C719   C720    1.387   .     A
C720   H726    1.078   .     S
H722   C863    1.088   .     S
H723   N729    1.029   .     S
H724   C266    1.079   1_556 S
N729   N730    1.296   .     D
N729   Zn740   2.020   .     S
N730   Zn739   2.020   .     S
N730   F741    1.335   .     S
O731   Zn739   1.950   .     S
O731   C601    1.276   1_655 S
O732   Zn740   1.973   .     S
O733   Zn739   1.963   .     S
O733   C612    1.292   1_655 S
O734   Zn740   1.925   .     S
O735   Zn739   1.973   .     S
O736   Zn740   1.950   .     S
O737   Zn739   1.925   .     S
O738   Zn740   1.963   .     S
C742   O743    1.223   .     D
O744   H745    1.014   .     S
O744   C892    1.397   .     S
F746   C618    1.358   1_655 S
C747   O749    1.398   .     S
C747   O748    1.218   .     D
O749   H750    1.010   .     S
C751   C761    1.401   .     S
C751   O782    1.289   .     A
C751   O881    1.276   1_455 S
C752   C753    1.407   .     A
C752   C304    1.410   1_556 S
C752   C320    1.420   1_556 S
C753   C760    1.418   .     A
C753   C757    1.428   .     A
C754   C758    1.393   .     A
C755   C756    1.405   .     A
C755   C304    1.422   1_556 S
C755   C316    1.413   1_556 S
C756   C757    1.414   .     A
C756   C792    1.484   .     S
C757   C797    1.494   .     S
C758   C767    1.381   .     A
C758   H775    1.078   .     S
C759   C767    1.393   .     A
C759   C766    1.386   .     A
C759   H821    1.083   .     S
C760   C768    1.408   .     A
C760   C762    1.460   .     S
C761   C563    1.337   1_465 S
C761   H478    1.088   1_565 S
C762   O784    1.300   .     A
C762   O883    1.292   1_455 S
C763   C764    1.401   .     S
C764   O785    1.287   .     A
C764   O836    1.278   .     S
C765   C767    1.441   .     S
C765   O787    1.297   .     A
C765   O838    1.289   .     S
C768   C319    1.384   1_556 S
C768   F896    1.358   1_455 S
C769   H777    1.083   .     S
C769   C770    1.387   .     A
C770   H776    1.078   .     S
H771   C859    1.083   1_455 S
H772   C463    1.088   1_565 S
H773   N779    1.029   .     S
H774   C316    1.079   1_556 S
N779   N780    1.296   .     D
N779   Zn790   2.020   .     S
N780   Zn789   2.020   .     S
N780   F791    1.335   .     S
O781   Zn789   1.950   .     S
O781   C801    1.276   .     S
O782   Zn790   1.973   .     S
O783   Zn789   1.963   .     S
O783   C812    1.292   .     S
O784   Zn790   1.925   .     S
O785   Zn789   1.973   .     S
O786   Zn790   1.950   .     S
O786   C864    1.278   1_455 S
O787   Zn789   1.925   .     S
O788   Zn790   1.963   .     S
O788   C865    1.289   1_455 S
C792   O793    1.223   .     D
O794   H795    1.014   .     S
O794   C492    1.397   1_565 S
F796   C818    1.358   .     S
C797   O799    1.398   .     S
C797   O798    1.218   .     D
O799   H800    1.010   .     S
C801   C811    1.401   .     S
C801   O832    1.289   .     A
C802   C803    1.407   .     A
C802   C354    1.410   1_556 S
C802   C370    1.420   1_556 S
C803   C810    1.418   .     A
C803   C807    1.428   .     A
C804   C808    1.393   .     A
C805   C806    1.405   .     A
C805   C354    1.422   1_556 S
C805   C366    1.413   1_556 S
C806   C807    1.414   .     A
C806   C842    1.484   .     S
C807   C847    1.494   .     S
C808   C817    1.381   .     A
C808   H825    1.078   .     S
C809   C817    1.393   .     A
C809   C816    1.386   .     A
C809   H871    1.083   .     S
C810   C818    1.408   .     A
C810   C812    1.460   .     S
C811   C463    1.337   1_565 S
C811   H528    1.088   1_565 S
C812   O834    1.300   .     A
C813   C814    1.401   .     S
C814   O835    1.287   .     A
C814   O886    1.278   .     S
C815   C817    1.441   .     S
C815   O837    1.297   .     A
C815   O888    1.289   .     S
C818   C369    1.384   1_556 S
C819   H827    1.083   .     S
C819   C820    1.387   .     A
C820   H826    1.078   .     S
H822   C513    1.088   1_565 S
H823   N829    1.029   .     S
H824   C366    1.079   1_556 S
N829   N830    1.296   .     D
N829   Zn840   2.020   .     S
N830   Zn839   2.020   .     S
N830   F841    1.335   .     S
O831   Zn839   1.950   .     S
O831   C851    1.276   .     S
O832   Zn840   1.973   .     S
O833   Zn839   1.963   .     S
O833   C862    1.292   .     S
O834   Zn840   1.925   .     S
O835   Zn839   1.973   .     S
O836   Zn840   1.950   .     S
O837   Zn839   1.925   .     S
O838   Zn840   1.963   .     S
C842   O843    1.223   .     D
O844   H845    1.014   .     S
O844   C542    1.397   1_565 S
F846   C868    1.358   .     S
C847   O849    1.398   .     S
C847   O848    1.218   .     D
O849   H850    1.010   .     S
C851   C861    1.401   .     S
C851   O882    1.289   .     A
C852   C853    1.407   .     A
C852   C404    1.410   1_556 S
C852   C420    1.420   1_556 S
C853   C860    1.418   .     A
C853   C857    1.428   .     A
C854   C858    1.393   .     A
C855   C856    1.405   .     A
C855   C404    1.422   1_556 S
C855   C416    1.413   1_556 S
C856   C857    1.414   .     A
C856   C892    1.484   .     S
C857   C897    1.494   .     S
C858   C867    1.381   .     A
C858   H875    1.078   .     S
C859   C867    1.393   .     A
C859   C866    1.386   .     A
C859   H771    1.083   1_655 S
C860   C868    1.408   .     A
C860   C862    1.460   .     S
C861   C513    1.337   1_565 S
C861   H578    1.088   1_565 S
C862   O884    1.300   .     A
C863   C864    1.401   .     S
C863   C611    1.337   1_655 S
C864   O885    1.287   .     A
C864   O786    1.278   1_655 S
C865   C867    1.441   .     S
C865   O887    1.297   .     A
C865   O788    1.289   1_655 S
C868   C419    1.384   1_556 S
C869   H877    1.083   .     S
C869   C870    1.387   .     A
C870   H876    1.078   .     S
H872   C563    1.088   1_565 S
H873   N879    1.029   .     S
H874   C416    1.079   1_556 S
N879   N880    1.296   .     D
N879   Zn890   2.020   .     S
N880   Zn889   2.020   .     S
N880   F891    1.335   .     S
O881   Zn889   1.950   .     S
O881   C751    1.276   1_655 S
O882   Zn890   1.973   .     S
O883   Zn889   1.963   .     S
O883   C762    1.292   1_655 S
O884   Zn890   1.925   .     S
O885   Zn889   1.973   .     S
O886   Zn890   1.950   .     S
O887   Zn889   1.925   .     S
O888   Zn890   1.963   .     S
C892   O893    1.223   .     D
O894   H895    1.014   .     S
O894   C592    1.397   1_565 S
F896   C768    1.358   1_655 S
C897   O899    1.398   .     S
C897   O898    1.218   .     D
O899   H900    1.010   .     S
