data_str_m3_o1_o18_pcu_sym.152
_audit_creation_date              2020-01-03
_audit_creation_method            'Materials Studio'
_symmetry_space_group_name_H-M    'P1'
_symmetry_Int_Tables_number       1
_symmetry_cell_setting            triclinic
loop_
_symmetry_equiv_pos_as_xyz
  x,y,z
_cell_length_a                    29.5778
_cell_length_b                    31.9171
_cell_length_c                    31.0069
_cell_angle_alpha                 90.2170
_cell_angle_beta                  67.8025
_cell_angle_gamma                 90.1361
loop_
_atom_site_label
_atom_site_type_symbol
_atom_site_fract_x
_atom_site_fract_y
_atom_site_fract_z
_atom_site_U_iso_or_equiv
_atom_site_adp_type
_atom_site_occupancy
C1     C     0.16724   0.24655   0.24872   0.00000  Uiso   1.00
C2     C     0.16608   0.08679   0.25130   0.00000  Uiso   1.00
C3     C     0.10504   0.15981   0.05408   0.00000  Uiso   1.00
C4     C     0.21397   0.12177   0.45476   0.00000  Uiso   1.00
C5     C     0.07109   0.16488   0.03353   0.00000  Uiso   1.00
C6     C     0.24777   0.11671   0.47563   0.00000  Uiso   1.00
C7     C     0.17845   0.31084   0.28291   0.00000  Uiso   1.00
C8     C     0.15488   0.02252   0.21713   0.00000  Uiso   1.00
C9     C     0.17707   0.02068   0.28587   0.00000  Uiso   1.00
C10    C     0.15624   0.31268   0.21418   0.00000  Uiso   1.00
C11    C     0.16556   0.04264   0.25215   0.00000  Uiso   1.00
C12    C     0.16777   0.29071   0.24789   0.00000  Uiso   1.00
C13    C     0.32154   0.14246   0.21910   0.00000  Uiso   1.00
C14    C     0.01181   0.19090   0.28087   0.00000  Uiso   1.00
C15    C     0.03611   0.14245   0.21912   0.00000  Uiso   1.00
C16    C     0.29724   0.19092   0.28084   0.00000  Uiso   1.00
C17    C     0.13615   0.16599   0.33799   0.00000  Uiso   1.00
C18    C     0.19714   0.16618   0.16198   0.00000  Uiso   1.00
C19    C     0.11687   0.16249   0.38859   0.00000  Uiso   1.00
C20    C     0.21534   0.15946   0.11179   0.00000  Uiso   1.00
C21    C     0.05270   0.17172   0.46424   0.00000  Uiso   1.00
C22    C     0.27166   0.12686   0.04168   0.00000  Uiso   1.00
C23    C     0.06826   0.17208   0.41588   0.00000  Uiso   1.00
C24    C     0.26047   0.14046   0.08739   0.00000  Uiso   1.00
C25    C     0.14880   0.15008   0.40961   0.00000  Uiso   1.00
C26    C     0.18245   0.16572   0.09009   0.00000  Uiso   1.00
C27    C     0.13407   0.14919   0.45798   0.00000  Uiso   1.00
C28    C     0.19073   0.14867   0.04634   0.00000  Uiso   1.00
C29    C     0.08559   0.16152   0.48544   0.00000  Uiso   1.00
C30    C     0.23701   0.13077   0.02098   0.00000  Uiso   1.00
C31    C     0.16758   0.13994   0.47939   0.00000  Uiso   1.00
C32    C     0.15435   0.14981   0.02706   0.00000  Uiso   1.00
H33    H     0.03390   0.17327   0.05515   0.00000  Uiso   1.00
H34    H     0.28276   0.10241   0.45590   0.00000  Uiso   1.00
H35    H     0.14977   0.18345   0.10858   0.00000  Uiso   1.00
H36    H     0.18610   0.14356   0.38746   0.00000  Uiso   1.00
H37    H     0.28615   0.13488   0.10404   0.00000  Uiso   1.00
H38    H     0.04296   0.18133   0.39994   0.00000  Uiso   1.00
H39    H     0.01560   0.18105   0.48497   0.00000  Uiso   1.00
H40    H     0.30668   0.11219   0.02303   0.00000  Uiso   1.00
H41    H     0.09140   0.16296   0.09150   0.00000  Uiso   1.00
H42    H     0.22455   0.10980   0.41975   0.00000  Uiso   1.00
H43    H     0.18644   0.29255   0.30861   0.00000  Uiso   1.00
H44    H     0.14692   0.04080   0.19141   0.00000  Uiso   1.00
H45    H     0.31315   0.12310   0.19437   0.00000  Uiso   1.00
H46    H     0.02020   0.21028   0.30557   0.00000  Uiso   1.00
H47    H     0.06394   0.12304   0.19441   0.00000  Uiso   1.00
H48    H     0.26943   0.21036   0.30551   0.00000  Uiso   1.00
N49    N     0.04759   0.16668   0.25001   0.00000  Uiso   1.00
N50    N     0.28574   0.16666   0.24999   0.00000  Uiso   1.00
O51    O     0.12846   0.22775   0.25000   0.00000  Uiso   1.00
O52    O     0.20488   0.10558   0.25000   0.00000  Uiso   1.00
O53    O     0.20490   0.22774   0.25000   0.00000  Uiso   1.00
O54    O     0.12843   0.10559   0.25000   0.00000  Uiso   1.00
O55    O     0.10661   0.16667   0.31612   0.00000  Uiso   1.00
O56    O     0.22672   0.16666   0.18388   0.00000  Uiso   1.00
O57    O     0.18305   0.16666   0.31612   0.00000  Uiso   1.00
O58    O     0.15028   0.16667   0.18388   0.00000  Uiso   1.00
Zn59   Zn    0.11562   0.16667   0.25000   0.00000  Uiso   1.00
Zn60   Zn    0.21771   0.16666   0.25000   0.00000  Uiso   1.00
C61    C     0.18550   0.04201   0.32500   0.00000  Uiso   1.00
H62    H     0.17862   0.07526   0.33128   0.00000  Uiso   1.00
O63    O     0.19987   0.02251   0.35116   0.00000  Uiso   1.00
C64    C     0.14777   0.29136   0.17508   0.00000  Uiso   1.00
H65    H     0.15466   0.25812   0.16875   0.00000  Uiso   1.00
O66    O     0.13332   0.31088   0.14898   0.00000  Uiso   1.00
C67    C     0.50058   0.24655   0.24872   0.00000  Uiso   1.00
C68    C     0.49942   0.08679   0.25130   0.00000  Uiso   1.00
C69    C     0.43837   0.15981   0.05408   0.00000  Uiso   1.00
C70    C     0.54731   0.12177   0.45476   0.00000  Uiso   1.00
C71    C     0.40443   0.16488   0.03353   0.00000  Uiso   1.00
C72    C     0.58110   0.11671   0.47563   0.00000  Uiso   1.00
C73    C     0.51179   0.31084   0.28291   0.00000  Uiso   1.00
C74    C     0.48822   0.02252   0.21713   0.00000  Uiso   1.00
C75    C     0.51041   0.02068   0.28587   0.00000  Uiso   1.00
C76    C     0.48957   0.31268   0.21418   0.00000  Uiso   1.00
C77    C     0.49889   0.04264   0.25215   0.00000  Uiso   1.00
C78    C     0.50110   0.29071   0.24789   0.00000  Uiso   1.00
C79    C     0.65487   0.14246   0.21910   0.00000  Uiso   1.00
C80    C     0.34514   0.19090   0.28087   0.00000  Uiso   1.00
C81    C     0.36945   0.14245   0.21912   0.00000  Uiso   1.00
C82    C     0.63057   0.19092   0.28084   0.00000  Uiso   1.00
C83    C     0.46949   0.16599   0.33799   0.00000  Uiso   1.00
C84    C     0.53047   0.16618   0.16198   0.00000  Uiso   1.00
C85    C     0.45020   0.16249   0.38859   0.00000  Uiso   1.00
C86    C     0.54867   0.15946   0.11179   0.00000  Uiso   1.00
C87    C     0.38604   0.17172   0.46424   0.00000  Uiso   1.00
C88    C     0.60499   0.12686   0.04168   0.00000  Uiso   1.00
C89    C     0.40159   0.17208   0.41588   0.00000  Uiso   1.00
C90    C     0.59381   0.14046   0.08739   0.00000  Uiso   1.00
C91    C     0.48213   0.15008   0.40961   0.00000  Uiso   1.00
C92    C     0.51578   0.16572   0.09009   0.00000  Uiso   1.00
C93    C     0.46740   0.14919   0.45798   0.00000  Uiso   1.00
C94    C     0.52407   0.14867   0.04634   0.00000  Uiso   1.00
C95    C     0.41893   0.16152   0.48544   0.00000  Uiso   1.00
C96    C     0.57035   0.13077   0.02098   0.00000  Uiso   1.00
C97    C     0.50091   0.13994   0.47939   0.00000  Uiso   1.00
C98    C     0.48768   0.14981   0.02706   0.00000  Uiso   1.00
H99    H     0.36723   0.17327   0.05515   0.00000  Uiso   1.00
H100   H     0.61609   0.10241   0.45590   0.00000  Uiso   1.00
H101   H     0.48310   0.18345   0.10858   0.00000  Uiso   1.00
H102   H     0.51944   0.14356   0.38746   0.00000  Uiso   1.00
H103   H     0.61948   0.13488   0.10404   0.00000  Uiso   1.00
H104   H     0.37629   0.18133   0.39994   0.00000  Uiso   1.00
H105   H     0.34894   0.18105   0.48497   0.00000  Uiso   1.00
H106   H     0.64001   0.11219   0.02303   0.00000  Uiso   1.00
H107   H     0.42473   0.16296   0.09150   0.00000  Uiso   1.00
H108   H     0.55788   0.10980   0.41975   0.00000  Uiso   1.00
H109   H     0.51977   0.29255   0.30861   0.00000  Uiso   1.00
H110   H     0.48025   0.04080   0.19141   0.00000  Uiso   1.00
H111   H     0.64649   0.12310   0.19437   0.00000  Uiso   1.00
H112   H     0.35354   0.21028   0.30557   0.00000  Uiso   1.00
H113   H     0.39727   0.12304   0.19441   0.00000  Uiso   1.00
H114   H     0.60276   0.21036   0.30551   0.00000  Uiso   1.00
N115   N     0.38093   0.16668   0.25001   0.00000  Uiso   1.00
N116   N     0.61907   0.16666   0.24999   0.00000  Uiso   1.00
O117   O     0.46179   0.22775   0.25000   0.00000  Uiso   1.00
O118   O     0.53821   0.10558   0.25000   0.00000  Uiso   1.00
O119   O     0.53823   0.22774   0.25000   0.00000  Uiso   1.00
O120   O     0.46177   0.10559   0.25000   0.00000  Uiso   1.00
O121   O     0.43994   0.16667   0.31612   0.00000  Uiso   1.00
O122   O     0.56006   0.16666   0.18388   0.00000  Uiso   1.00
O123   O     0.51639   0.16666   0.31612   0.00000  Uiso   1.00
O124   O     0.48361   0.16667   0.18388   0.00000  Uiso   1.00
Zn125  Zn    0.44896   0.16667   0.25000   0.00000  Uiso   1.00
Zn126  Zn    0.55104   0.16666   0.25000   0.00000  Uiso   1.00
C127   C     0.51883   0.04201   0.32500   0.00000  Uiso   1.00
H128   H     0.51196   0.07526   0.33128   0.00000  Uiso   1.00
O129   O     0.53320   0.02251   0.35116   0.00000  Uiso   1.00
C130   C     0.48110   0.29136   0.17508   0.00000  Uiso   1.00
H131   H     0.48799   0.25812   0.16875   0.00000  Uiso   1.00
O132   O     0.46666   0.31088   0.14898   0.00000  Uiso   1.00
C133   C     0.83391   0.24655   0.24872   0.00000  Uiso   1.00
C134   C     0.83275   0.08679   0.25130   0.00000  Uiso   1.00
C135   C     0.77171   0.15981   0.05408   0.00000  Uiso   1.00
C136   C     0.88064   0.12177   0.45476   0.00000  Uiso   1.00
C137   C     0.73776   0.16488   0.03353   0.00000  Uiso   1.00
C138   C     0.91443   0.11671   0.47563   0.00000  Uiso   1.00
C139   C     0.84512   0.31084   0.28291   0.00000  Uiso   1.00
C140   C     0.82155   0.02252   0.21713   0.00000  Uiso   1.00
C141   C     0.84374   0.02068   0.28587   0.00000  Uiso   1.00
C142   C     0.82290   0.31268   0.21418   0.00000  Uiso   1.00
C143   C     0.83222   0.04264   0.25215   0.00000  Uiso   1.00
C144   C     0.83443   0.29071   0.24789   0.00000  Uiso   1.00
C145   C     0.98820   0.14246   0.21910   0.00000  Uiso   1.00
C146   C     0.67847   0.19090   0.28087   0.00000  Uiso   1.00
C147   C     0.70278   0.14245   0.21912   0.00000  Uiso   1.00
C148   C     0.96390   0.19092   0.28084   0.00000  Uiso   1.00
C149   C     0.80282   0.16599   0.33799   0.00000  Uiso   1.00
C150   C     0.86380   0.16618   0.16198   0.00000  Uiso   1.00
C151   C     0.78353   0.16249   0.38859   0.00000  Uiso   1.00
C152   C     0.88200   0.15946   0.11179   0.00000  Uiso   1.00
C153   C     0.71937   0.17172   0.46424   0.00000  Uiso   1.00
C154   C     0.93832   0.12686   0.04168   0.00000  Uiso   1.00
C155   C     0.73493   0.17208   0.41588   0.00000  Uiso   1.00
C156   C     0.92714   0.14046   0.08739   0.00000  Uiso   1.00
C157   C     0.81547   0.15008   0.40961   0.00000  Uiso   1.00
C158   C     0.84912   0.16572   0.09009   0.00000  Uiso   1.00
C159   C     0.80074   0.14919   0.45798   0.00000  Uiso   1.00
C160   C     0.85740   0.14867   0.04634   0.00000  Uiso   1.00
C161   C     0.75226   0.16152   0.48544   0.00000  Uiso   1.00
C162   C     0.90368   0.13077   0.02098   0.00000  Uiso   1.00
C163   C     0.83425   0.13994   0.47939   0.00000  Uiso   1.00
C164   C     0.82102   0.14981   0.02706   0.00000  Uiso   1.00
H165   H     0.70056   0.17327   0.05515   0.00000  Uiso   1.00
H166   H     0.94942   0.10241   0.45590   0.00000  Uiso   1.00
H167   H     0.81644   0.18345   0.10858   0.00000  Uiso   1.00
H168   H     0.85277   0.14356   0.38746   0.00000  Uiso   1.00
H169   H     0.95281   0.13488   0.10404   0.00000  Uiso   1.00
H170   H     0.70963   0.18133   0.39994   0.00000  Uiso   1.00
H171   H     0.68227   0.18105   0.48497   0.00000  Uiso   1.00
H172   H     0.97334   0.11219   0.02303   0.00000  Uiso   1.00
H173   H     0.75807   0.16296   0.09150   0.00000  Uiso   1.00
H174   H     0.89121   0.10980   0.41975   0.00000  Uiso   1.00
H175   H     0.85311   0.29255   0.30861   0.00000  Uiso   1.00
H176   H     0.81358   0.04080   0.19141   0.00000  Uiso   1.00
H177   H     0.97982   0.12310   0.19437   0.00000  Uiso   1.00
H178   H     0.68687   0.21028   0.30557   0.00000  Uiso   1.00
H179   H     0.73061   0.12304   0.19441   0.00000  Uiso   1.00
H180   H     0.93609   0.21036   0.30551   0.00000  Uiso   1.00
N181   N     0.71426   0.16668   0.25001   0.00000  Uiso   1.00
N182   N     0.95241   0.16666   0.24999   0.00000  Uiso   1.00
O183   O     0.79512   0.22775   0.25000   0.00000  Uiso   1.00
O184   O     0.87154   0.10558   0.25000   0.00000  Uiso   1.00
O185   O     0.87157   0.22774   0.25000   0.00000  Uiso   1.00
O186   O     0.79510   0.10559   0.25000   0.00000  Uiso   1.00
O187   O     0.77328   0.16667   0.31612   0.00000  Uiso   1.00
O188   O     0.89339   0.16666   0.18388   0.00000  Uiso   1.00
O189   O     0.84972   0.16666   0.31612   0.00000  Uiso   1.00
O190   O     0.81695   0.16667   0.18388   0.00000  Uiso   1.00
Zn191  Zn    0.78229   0.16667   0.25000   0.00000  Uiso   1.00
Zn192  Zn    0.88438   0.16666   0.25000   0.00000  Uiso   1.00
C193   C     0.85216   0.04201   0.32500   0.00000  Uiso   1.00
H194   H     0.84529   0.07526   0.33128   0.00000  Uiso   1.00
O195   O     0.86654   0.02251   0.35116   0.00000  Uiso   1.00
C196   C     0.81443   0.29136   0.17508   0.00000  Uiso   1.00
H197   H     0.82133   0.25812   0.16875   0.00000  Uiso   1.00
O198   O     0.79999   0.31088   0.14898   0.00000  Uiso   1.00
C199   C     0.16724   0.57989   0.24872   0.00000  Uiso   1.00
C200   C     0.16608   0.42012   0.25130   0.00000  Uiso   1.00
C201   C     0.10504   0.49314   0.05408   0.00000  Uiso   1.00
C202   C     0.21397   0.45510   0.45476   0.00000  Uiso   1.00
C203   C     0.07109   0.49821   0.03353   0.00000  Uiso   1.00
C204   C     0.24777   0.45004   0.47563   0.00000  Uiso   1.00
C205   C     0.17845   0.64417   0.28291   0.00000  Uiso   1.00
C206   C     0.15488   0.35585   0.21713   0.00000  Uiso   1.00
C207   C     0.17707   0.35402   0.28587   0.00000  Uiso   1.00
C208   C     0.15624   0.64601   0.21418   0.00000  Uiso   1.00
C209   C     0.16556   0.37597   0.25215   0.00000  Uiso   1.00
C210   C     0.16777   0.62405   0.24789   0.00000  Uiso   1.00
C211   C     0.32154   0.47579   0.21910   0.00000  Uiso   1.00
C212   C     0.01181   0.52424   0.28087   0.00000  Uiso   1.00
C213   C     0.03611   0.47578   0.21912   0.00000  Uiso   1.00
C214   C     0.29724   0.52425   0.28084   0.00000  Uiso   1.00
C215   C     0.13615   0.49933   0.33799   0.00000  Uiso   1.00
C216   C     0.19714   0.49951   0.16198   0.00000  Uiso   1.00
C217   C     0.11687   0.49583   0.38859   0.00000  Uiso   1.00
C218   C     0.21534   0.49280   0.11179   0.00000  Uiso   1.00
C219   C     0.05270   0.50505   0.46424   0.00000  Uiso   1.00
C220   C     0.27166   0.46019   0.04168   0.00000  Uiso   1.00
C221   C     0.06826   0.50541   0.41588   0.00000  Uiso   1.00
C222   C     0.26047   0.47379   0.08739   0.00000  Uiso   1.00
C223   C     0.14880   0.48341   0.40961   0.00000  Uiso   1.00
C224   C     0.18245   0.49906   0.09009   0.00000  Uiso   1.00
C225   C     0.13407   0.48253   0.45798   0.00000  Uiso   1.00
C226   C     0.19073   0.48201   0.04634   0.00000  Uiso   1.00
C227   C     0.08559   0.49485   0.48544   0.00000  Uiso   1.00
C228   C     0.23701   0.46410   0.02098   0.00000  Uiso   1.00
C229   C     0.16758   0.47327   0.47939   0.00000  Uiso   1.00
C230   C     0.15435   0.48314   0.02706   0.00000  Uiso   1.00
H231   H     0.03390   0.50660   0.05515   0.00000  Uiso   1.00
H232   H     0.28276   0.43575   0.45590   0.00000  Uiso   1.00
H233   H     0.14977   0.51678   0.10858   0.00000  Uiso   1.00
H234   H     0.18610   0.47689   0.38746   0.00000  Uiso   1.00
H235   H     0.28615   0.46821   0.10404   0.00000  Uiso   1.00
H236   H     0.04296   0.51466   0.39994   0.00000  Uiso   1.00
H237   H     0.01560   0.51438   0.48497   0.00000  Uiso   1.00
H238   H     0.30668   0.44552   0.02303   0.00000  Uiso   1.00
H239   H     0.09140   0.49629   0.09150   0.00000  Uiso   1.00
H240   H     0.22455   0.44314   0.41975   0.00000  Uiso   1.00
H241   H     0.18644   0.62589   0.30861   0.00000  Uiso   1.00
H242   H     0.14692   0.37414   0.19141   0.00000  Uiso   1.00
H243   H     0.31315   0.45644   0.19437   0.00000  Uiso   1.00
H244   H     0.02020   0.54362   0.30557   0.00000  Uiso   1.00
H245   H     0.06394   0.45637   0.19441   0.00000  Uiso   1.00
H246   H     0.26943   0.54370   0.30551   0.00000  Uiso   1.00
N247   N     0.04759   0.50001   0.25001   0.00000  Uiso   1.00
N248   N     0.28574   0.49999   0.24999   0.00000  Uiso   1.00
O249   O     0.12846   0.56108   0.25000   0.00000  Uiso   1.00
O250   O     0.20488   0.43892   0.25000   0.00000  Uiso   1.00
O251   O     0.20490   0.56107   0.25000   0.00000  Uiso   1.00
O252   O     0.12843   0.43893   0.25000   0.00000  Uiso   1.00
O253   O     0.10661   0.50001   0.31612   0.00000  Uiso   1.00
O254   O     0.22672   0.49999   0.18388   0.00000  Uiso   1.00
O255   O     0.18305   0.50000   0.31612   0.00000  Uiso   1.00
O256   O     0.15028   0.50000   0.18388   0.00000  Uiso   1.00
Zn257  Zn    0.11562   0.50001   0.25000   0.00000  Uiso   1.00
Zn258  Zn    0.21771   0.49999   0.25000   0.00000  Uiso   1.00
C259   C     0.18550   0.37535   0.32500   0.00000  Uiso   1.00
H260   H     0.17862   0.40859   0.33128   0.00000  Uiso   1.00
O261   O     0.19987   0.35584   0.35116   0.00000  Uiso   1.00
C262   C     0.14777   0.62469   0.17508   0.00000  Uiso   1.00
H263   H     0.15466   0.59145   0.16875   0.00000  Uiso   1.00
O264   O     0.13332   0.64422   0.14898   0.00000  Uiso   1.00
C265   C     0.50058   0.57989   0.24872   0.00000  Uiso   1.00
C266   C     0.49942   0.42012   0.25130   0.00000  Uiso   1.00
C267   C     0.43837   0.49314   0.05408   0.00000  Uiso   1.00
C268   C     0.54731   0.45510   0.45476   0.00000  Uiso   1.00
C269   C     0.40443   0.49821   0.03353   0.00000  Uiso   1.00
C270   C     0.58110   0.45004   0.47563   0.00000  Uiso   1.00
C271   C     0.51179   0.64417   0.28291   0.00000  Uiso   1.00
C272   C     0.48822   0.35585   0.21713   0.00000  Uiso   1.00
C273   C     0.51041   0.35402   0.28587   0.00000  Uiso   1.00
C274   C     0.48957   0.64601   0.21418   0.00000  Uiso   1.00
C275   C     0.49889   0.37597   0.25215   0.00000  Uiso   1.00
C276   C     0.50110   0.62405   0.24789   0.00000  Uiso   1.00
C277   C     0.65487   0.47579   0.21910   0.00000  Uiso   1.00
C278   C     0.34514   0.52424   0.28087   0.00000  Uiso   1.00
C279   C     0.36945   0.47578   0.21912   0.00000  Uiso   1.00
C280   C     0.63057   0.52425   0.28084   0.00000  Uiso   1.00
C281   C     0.46949   0.49933   0.33799   0.00000  Uiso   1.00
C282   C     0.53047   0.49951   0.16198   0.00000  Uiso   1.00
C283   C     0.45020   0.49583   0.38859   0.00000  Uiso   1.00
C284   C     0.54867   0.49280   0.11179   0.00000  Uiso   1.00
C285   C     0.38604   0.50505   0.46424   0.00000  Uiso   1.00
C286   C     0.60499   0.46019   0.04168   0.00000  Uiso   1.00
C287   C     0.40159   0.50541   0.41588   0.00000  Uiso   1.00
C288   C     0.59381   0.47379   0.08739   0.00000  Uiso   1.00
C289   C     0.48213   0.48341   0.40961   0.00000  Uiso   1.00
C290   C     0.51578   0.49906   0.09009   0.00000  Uiso   1.00
C291   C     0.46740   0.48253   0.45798   0.00000  Uiso   1.00
C292   C     0.52407   0.48201   0.04634   0.00000  Uiso   1.00
C293   C     0.41893   0.49485   0.48544   0.00000  Uiso   1.00
C294   C     0.57035   0.46410   0.02098   0.00000  Uiso   1.00
C295   C     0.50091   0.47327   0.47939   0.00000  Uiso   1.00
C296   C     0.48768   0.48314   0.02706   0.00000  Uiso   1.00
H297   H     0.36723   0.50660   0.05515   0.00000  Uiso   1.00
H298   H     0.61609   0.43575   0.45590   0.00000  Uiso   1.00
H299   H     0.48310   0.51678   0.10858   0.00000  Uiso   1.00
H300   H     0.51944   0.47689   0.38746   0.00000  Uiso   1.00
H301   H     0.61948   0.46821   0.10404   0.00000  Uiso   1.00
H302   H     0.37629   0.51466   0.39994   0.00000  Uiso   1.00
H303   H     0.34894   0.51438   0.48497   0.00000  Uiso   1.00
H304   H     0.64001   0.44552   0.02303   0.00000  Uiso   1.00
H305   H     0.42473   0.49629   0.09150   0.00000  Uiso   1.00
H306   H     0.55788   0.44314   0.41975   0.00000  Uiso   1.00
H307   H     0.51977   0.62589   0.30861   0.00000  Uiso   1.00
H308   H     0.48025   0.37414   0.19141   0.00000  Uiso   1.00
H309   H     0.64649   0.45644   0.19437   0.00000  Uiso   1.00
H310   H     0.35354   0.54362   0.30557   0.00000  Uiso   1.00
H311   H     0.39727   0.45637   0.19441   0.00000  Uiso   1.00
H312   H     0.60276   0.54370   0.30551   0.00000  Uiso   1.00
N313   N     0.38093   0.50001   0.25001   0.00000  Uiso   1.00
N314   N     0.61907   0.49999   0.24999   0.00000  Uiso   1.00
O315   O     0.46179   0.56108   0.25000   0.00000  Uiso   1.00
O316   O     0.53821   0.43892   0.25000   0.00000  Uiso   1.00
O317   O     0.53823   0.56107   0.25000   0.00000  Uiso   1.00
O318   O     0.46177   0.43893   0.25000   0.00000  Uiso   1.00
O319   O     0.43994   0.50001   0.31612   0.00000  Uiso   1.00
O320   O     0.56006   0.49999   0.18388   0.00000  Uiso   1.00
O321   O     0.51639   0.50000   0.31612   0.00000  Uiso   1.00
O322   O     0.48361   0.50000   0.18388   0.00000  Uiso   1.00
Zn323  Zn    0.44896   0.50001   0.25000   0.00000  Uiso   1.00
Zn324  Zn    0.55104   0.49999   0.25000   0.00000  Uiso   1.00
C325   C     0.51883   0.37535   0.32500   0.00000  Uiso   1.00
H326   H     0.51196   0.40859   0.33128   0.00000  Uiso   1.00
O327   O     0.53320   0.35584   0.35116   0.00000  Uiso   1.00
C328   C     0.48110   0.62469   0.17508   0.00000  Uiso   1.00
H329   H     0.48799   0.59145   0.16875   0.00000  Uiso   1.00
O330   O     0.46666   0.64422   0.14898   0.00000  Uiso   1.00
C331   C     0.83391   0.57989   0.24872   0.00000  Uiso   1.00
C332   C     0.83275   0.42012   0.25130   0.00000  Uiso   1.00
C333   C     0.77171   0.49314   0.05408   0.00000  Uiso   1.00
C334   C     0.88064   0.45510   0.45476   0.00000  Uiso   1.00
C335   C     0.73776   0.49821   0.03353   0.00000  Uiso   1.00
C336   C     0.91443   0.45004   0.47563   0.00000  Uiso   1.00
C337   C     0.84512   0.64417   0.28291   0.00000  Uiso   1.00
C338   C     0.82155   0.35585   0.21713   0.00000  Uiso   1.00
C339   C     0.84374   0.35402   0.28587   0.00000  Uiso   1.00
C340   C     0.82290   0.64601   0.21418   0.00000  Uiso   1.00
C341   C     0.83222   0.37597   0.25215   0.00000  Uiso   1.00
C342   C     0.83443   0.62405   0.24789   0.00000  Uiso   1.00
C343   C     0.98820   0.47579   0.21910   0.00000  Uiso   1.00
C344   C     0.67847   0.52424   0.28087   0.00000  Uiso   1.00
C345   C     0.70278   0.47578   0.21912   0.00000  Uiso   1.00
C346   C     0.96390   0.52425   0.28084   0.00000  Uiso   1.00
C347   C     0.80282   0.49933   0.33799   0.00000  Uiso   1.00
C348   C     0.86380   0.49951   0.16198   0.00000  Uiso   1.00
C349   C     0.78353   0.49583   0.38859   0.00000  Uiso   1.00
C350   C     0.88200   0.49280   0.11179   0.00000  Uiso   1.00
C351   C     0.71937   0.50505   0.46424   0.00000  Uiso   1.00
C352   C     0.93832   0.46019   0.04168   0.00000  Uiso   1.00
C353   C     0.73493   0.50541   0.41588   0.00000  Uiso   1.00
C354   C     0.92714   0.47379   0.08739   0.00000  Uiso   1.00
C355   C     0.81547   0.48341   0.40961   0.00000  Uiso   1.00
C356   C     0.84912   0.49906   0.09009   0.00000  Uiso   1.00
C357   C     0.80074   0.48253   0.45798   0.00000  Uiso   1.00
C358   C     0.85740   0.48201   0.04634   0.00000  Uiso   1.00
C359   C     0.75226   0.49485   0.48544   0.00000  Uiso   1.00
C360   C     0.90368   0.46410   0.02098   0.00000  Uiso   1.00
C361   C     0.83425   0.47327   0.47939   0.00000  Uiso   1.00
C362   C     0.82102   0.48314   0.02706   0.00000  Uiso   1.00
H363   H     0.70056   0.50660   0.05515   0.00000  Uiso   1.00
H364   H     0.94942   0.43575   0.45590   0.00000  Uiso   1.00
H365   H     0.81644   0.51678   0.10858   0.00000  Uiso   1.00
H366   H     0.85277   0.47689   0.38746   0.00000  Uiso   1.00
H367   H     0.95281   0.46821   0.10404   0.00000  Uiso   1.00
H368   H     0.70963   0.51466   0.39994   0.00000  Uiso   1.00
H369   H     0.68227   0.51438   0.48497   0.00000  Uiso   1.00
H370   H     0.97334   0.44552   0.02303   0.00000  Uiso   1.00
H371   H     0.75807   0.49629   0.09150   0.00000  Uiso   1.00
H372   H     0.89121   0.44314   0.41975   0.00000  Uiso   1.00
H373   H     0.85311   0.62589   0.30861   0.00000  Uiso   1.00
H374   H     0.81358   0.37414   0.19141   0.00000  Uiso   1.00
H375   H     0.97982   0.45644   0.19437   0.00000  Uiso   1.00
H376   H     0.68687   0.54362   0.30557   0.00000  Uiso   1.00
H377   H     0.73061   0.45637   0.19441   0.00000  Uiso   1.00
H378   H     0.93609   0.54370   0.30551   0.00000  Uiso   1.00
N379   N     0.71426   0.50001   0.25001   0.00000  Uiso   1.00
N380   N     0.95241   0.49999   0.24999   0.00000  Uiso   1.00
O381   O     0.79512   0.56108   0.25000   0.00000  Uiso   1.00
O382   O     0.87154   0.43892   0.25000   0.00000  Uiso   1.00
O383   O     0.87157   0.56107   0.25000   0.00000  Uiso   1.00
O384   O     0.79510   0.43893   0.25000   0.00000  Uiso   1.00
O385   O     0.77328   0.50001   0.31612   0.00000  Uiso   1.00
O386   O     0.89339   0.49999   0.18388   0.00000  Uiso   1.00
O387   O     0.84972   0.50000   0.31612   0.00000  Uiso   1.00
O388   O     0.81695   0.50000   0.18388   0.00000  Uiso   1.00
Zn389  Zn    0.78229   0.50001   0.25000   0.00000  Uiso   1.00
Zn390  Zn    0.88438   0.49999   0.25000   0.00000  Uiso   1.00
C391   C     0.85216   0.37535   0.32500   0.00000  Uiso   1.00
H392   H     0.84529   0.40859   0.33128   0.00000  Uiso   1.00
O393   O     0.86654   0.35584   0.35116   0.00000  Uiso   1.00
C394   C     0.81443   0.62469   0.17508   0.00000  Uiso   1.00
H395   H     0.82133   0.59145   0.16875   0.00000  Uiso   1.00
O396   O     0.79999   0.64422   0.14898   0.00000  Uiso   1.00
C397   C     0.16724   0.91322   0.24872   0.00000  Uiso   1.00
C398   C     0.16608   0.75345   0.25130   0.00000  Uiso   1.00
C399   C     0.10504   0.82648   0.05408   0.00000  Uiso   1.00
C400   C     0.21397   0.78844   0.45476   0.00000  Uiso   1.00
C401   C     0.07109   0.83155   0.03353   0.00000  Uiso   1.00
C402   C     0.24777   0.78338   0.47563   0.00000  Uiso   1.00
C403   C     0.17845   0.97751   0.28291   0.00000  Uiso   1.00
C404   C     0.15488   0.68918   0.21713   0.00000  Uiso   1.00
C405   C     0.17707   0.68735   0.28587   0.00000  Uiso   1.00
C406   C     0.15624   0.97934   0.21418   0.00000  Uiso   1.00
C407   C     0.16556   0.70930   0.25215   0.00000  Uiso   1.00
C408   C     0.16777   0.95738   0.24789   0.00000  Uiso   1.00
C409   C     0.32154   0.80912   0.21910   0.00000  Uiso   1.00
C410   C     0.01181   0.85757   0.28087   0.00000  Uiso   1.00
C411   C     0.03611   0.80911   0.21912   0.00000  Uiso   1.00
C412   C     0.29724   0.85758   0.28084   0.00000  Uiso   1.00
C413   C     0.13615   0.83266   0.33799   0.00000  Uiso   1.00
C414   C     0.19714   0.83285   0.16198   0.00000  Uiso   1.00
C415   C     0.11687   0.82916   0.38859   0.00000  Uiso   1.00
C416   C     0.21534   0.82613   0.11179   0.00000  Uiso   1.00
C417   C     0.05270   0.83838   0.46424   0.00000  Uiso   1.00
C418   C     0.27166   0.79352   0.04168   0.00000  Uiso   1.00
C419   C     0.06826   0.83875   0.41588   0.00000  Uiso   1.00
C420   C     0.26047   0.80713   0.08739   0.00000  Uiso   1.00
C421   C     0.14880   0.81675   0.40961   0.00000  Uiso   1.00
C422   C     0.18245   0.83239   0.09009   0.00000  Uiso   1.00
C423   C     0.13407   0.81586   0.45798   0.00000  Uiso   1.00
C424   C     0.19073   0.81534   0.04634   0.00000  Uiso   1.00
C425   C     0.08559   0.82819   0.48544   0.00000  Uiso   1.00
C426   C     0.23701   0.79743   0.02098   0.00000  Uiso   1.00
C427   C     0.16758   0.80661   0.47939   0.00000  Uiso   1.00
C428   C     0.15435   0.81648   0.02706   0.00000  Uiso   1.00
H429   H     0.03390   0.83993   0.05515   0.00000  Uiso   1.00
H430   H     0.28276   0.76908   0.45590   0.00000  Uiso   1.00
H431   H     0.14977   0.85012   0.10858   0.00000  Uiso   1.00
H432   H     0.18610   0.81022   0.38746   0.00000  Uiso   1.00
H433   H     0.28615   0.80154   0.10404   0.00000  Uiso   1.00
H434   H     0.04296   0.84799   0.39994   0.00000  Uiso   1.00
H435   H     0.01560   0.84771   0.48497   0.00000  Uiso   1.00
H436   H     0.30668   0.77886   0.02303   0.00000  Uiso   1.00
H437   H     0.09140   0.82962   0.09150   0.00000  Uiso   1.00
H438   H     0.22455   0.77647   0.41975   0.00000  Uiso   1.00
H439   H     0.18644   0.95922   0.30861   0.00000  Uiso   1.00
H440   H     0.14692   0.70747   0.19141   0.00000  Uiso   1.00
H441   H     0.31315   0.78977   0.19437   0.00000  Uiso   1.00
H442   H     0.02020   0.87695   0.30557   0.00000  Uiso   1.00
H443   H     0.06394   0.78971   0.19441   0.00000  Uiso   1.00
H444   H     0.26943   0.87703   0.30551   0.00000  Uiso   1.00
N445   N     0.04759   0.83334   0.25001   0.00000  Uiso   1.00
N446   N     0.28574   0.83332   0.24999   0.00000  Uiso   1.00
O447   O     0.12846   0.89442   0.25000   0.00000  Uiso   1.00
O448   O     0.20488   0.77225   0.25000   0.00000  Uiso   1.00
O449   O     0.20490   0.89441   0.25000   0.00000  Uiso   1.00
O450   O     0.12843   0.77226   0.25000   0.00000  Uiso   1.00
O451   O     0.10661   0.83334   0.31612   0.00000  Uiso   1.00
O452   O     0.22672   0.83333   0.18388   0.00000  Uiso   1.00
O453   O     0.18305   0.83333   0.31612   0.00000  Uiso   1.00
O454   O     0.15028   0.83334   0.18388   0.00000  Uiso   1.00
Zn455  Zn    0.11562   0.83334   0.25000   0.00000  Uiso   1.00
Zn456  Zn    0.21771   0.83333   0.25000   0.00000  Uiso   1.00
C457   C     0.18550   0.70868   0.32500   0.00000  Uiso   1.00
H458   H     0.17862   0.74192   0.33128   0.00000  Uiso   1.00
O459   O     0.19987   0.68918   0.35116   0.00000  Uiso   1.00
C460   C     0.14777   0.95803   0.17508   0.00000  Uiso   1.00
H461   H     0.15466   0.92479   0.16875   0.00000  Uiso   1.00
O462   O     0.13332   0.97755   0.14898   0.00000  Uiso   1.00
C463   C     0.50058   0.91322   0.24872   0.00000  Uiso   1.00
C464   C     0.49942   0.75345   0.25130   0.00000  Uiso   1.00
C465   C     0.43837   0.82648   0.05408   0.00000  Uiso   1.00
C466   C     0.54731   0.78844   0.45476   0.00000  Uiso   1.00
C467   C     0.40443   0.83155   0.03353   0.00000  Uiso   1.00
C468   C     0.58110   0.78338   0.47563   0.00000  Uiso   1.00
C469   C     0.51179   0.97751   0.28291   0.00000  Uiso   1.00
C470   C     0.48822   0.68918   0.21713   0.00000  Uiso   1.00
C471   C     0.51041   0.68735   0.28587   0.00000  Uiso   1.00
C472   C     0.48957   0.97934   0.21418   0.00000  Uiso   1.00
C473   C     0.49889   0.70930   0.25215   0.00000  Uiso   1.00
C474   C     0.50110   0.95738   0.24789   0.00000  Uiso   1.00
C475   C     0.65487   0.80912   0.21910   0.00000  Uiso   1.00
C476   C     0.34514   0.85757   0.28087   0.00000  Uiso   1.00
C477   C     0.36945   0.80911   0.21912   0.00000  Uiso   1.00
C478   C     0.63057   0.85758   0.28084   0.00000  Uiso   1.00
C479   C     0.46949   0.83266   0.33799   0.00000  Uiso   1.00
C480   C     0.53047   0.83285   0.16198   0.00000  Uiso   1.00
C481   C     0.45020   0.82916   0.38859   0.00000  Uiso   1.00
C482   C     0.54867   0.82613   0.11179   0.00000  Uiso   1.00
C483   C     0.38604   0.83838   0.46424   0.00000  Uiso   1.00
C484   C     0.60499   0.79352   0.04168   0.00000  Uiso   1.00
C485   C     0.40159   0.83875   0.41588   0.00000  Uiso   1.00
C486   C     0.59381   0.80713   0.08739   0.00000  Uiso   1.00
C487   C     0.48213   0.81675   0.40961   0.00000  Uiso   1.00
C488   C     0.51578   0.83239   0.09009   0.00000  Uiso   1.00
C489   C     0.46740   0.81586   0.45798   0.00000  Uiso   1.00
C490   C     0.52407   0.81534   0.04634   0.00000  Uiso   1.00
C491   C     0.41893   0.82819   0.48544   0.00000  Uiso   1.00
C492   C     0.57035   0.79743   0.02098   0.00000  Uiso   1.00
C493   C     0.50091   0.80661   0.47939   0.00000  Uiso   1.00
C494   C     0.48768   0.81648   0.02706   0.00000  Uiso   1.00
H495   H     0.36723   0.83993   0.05515   0.00000  Uiso   1.00
H496   H     0.61609   0.76908   0.45590   0.00000  Uiso   1.00
H497   H     0.48310   0.85012   0.10858   0.00000  Uiso   1.00
H498   H     0.51944   0.81022   0.38746   0.00000  Uiso   1.00
H499   H     0.61948   0.80154   0.10404   0.00000  Uiso   1.00
H500   H     0.37629   0.84799   0.39994   0.00000  Uiso   1.00
H501   H     0.34894   0.84771   0.48497   0.00000  Uiso   1.00
H502   H     0.64001   0.77886   0.02303   0.00000  Uiso   1.00
H503   H     0.42473   0.82962   0.09150   0.00000  Uiso   1.00
H504   H     0.55788   0.77647   0.41975   0.00000  Uiso   1.00
H505   H     0.51977   0.95922   0.30861   0.00000  Uiso   1.00
H506   H     0.48025   0.70747   0.19141   0.00000  Uiso   1.00
H507   H     0.64649   0.78977   0.19437   0.00000  Uiso   1.00
H508   H     0.35354   0.87695   0.30557   0.00000  Uiso   1.00
H509   H     0.39727   0.78971   0.19441   0.00000  Uiso   1.00
H510   H     0.60276   0.87703   0.30551   0.00000  Uiso   1.00
N511   N     0.38093   0.83334   0.25001   0.00000  Uiso   1.00
N512   N     0.61907   0.83332   0.24999   0.00000  Uiso   1.00
O513   O     0.46179   0.89442   0.25000   0.00000  Uiso   1.00
O514   O     0.53821   0.77225   0.25000   0.00000  Uiso   1.00
O515   O     0.53823   0.89441   0.25000   0.00000  Uiso   1.00
O516   O     0.46177   0.77226   0.25000   0.00000  Uiso   1.00
O517   O     0.43994   0.83334   0.31612   0.00000  Uiso   1.00
O518   O     0.56006   0.83333   0.18388   0.00000  Uiso   1.00
O519   O     0.51639   0.83333   0.31612   0.00000  Uiso   1.00
O520   O     0.48361   0.83334   0.18388   0.00000  Uiso   1.00
Zn521  Zn    0.44896   0.83334   0.25000   0.00000  Uiso   1.00
Zn522  Zn    0.55104   0.83333   0.25000   0.00000  Uiso   1.00
C523   C     0.51883   0.70868   0.32500   0.00000  Uiso   1.00
H524   H     0.51196   0.74192   0.33128   0.00000  Uiso   1.00
O525   O     0.53320   0.68918   0.35116   0.00000  Uiso   1.00
C526   C     0.48110   0.95803   0.17508   0.00000  Uiso   1.00
H527   H     0.48799   0.92479   0.16875   0.00000  Uiso   1.00
O528   O     0.46666   0.97755   0.14898   0.00000  Uiso   1.00
C529   C     0.83391   0.91322   0.24872   0.00000  Uiso   1.00
C530   C     0.83275   0.75345   0.25130   0.00000  Uiso   1.00
C531   C     0.77171   0.82648   0.05408   0.00000  Uiso   1.00
C532   C     0.88064   0.78844   0.45476   0.00000  Uiso   1.00
C533   C     0.73776   0.83155   0.03353   0.00000  Uiso   1.00
C534   C     0.91443   0.78338   0.47563   0.00000  Uiso   1.00
C535   C     0.84512   0.97751   0.28291   0.00000  Uiso   1.00
C536   C     0.82155   0.68918   0.21713   0.00000  Uiso   1.00
C537   C     0.84374   0.68735   0.28587   0.00000  Uiso   1.00
C538   C     0.82290   0.97934   0.21418   0.00000  Uiso   1.00
C539   C     0.83222   0.70930   0.25215   0.00000  Uiso   1.00
C540   C     0.83443   0.95738   0.24789   0.00000  Uiso   1.00
C541   C     0.98820   0.80912   0.21910   0.00000  Uiso   1.00
C542   C     0.67847   0.85757   0.28087   0.00000  Uiso   1.00
C543   C     0.70278   0.80911   0.21912   0.00000  Uiso   1.00
C544   C     0.96390   0.85758   0.28084   0.00000  Uiso   1.00
C545   C     0.80282   0.83266   0.33799   0.00000  Uiso   1.00
C546   C     0.86380   0.83285   0.16198   0.00000  Uiso   1.00
C547   C     0.78353   0.82916   0.38859   0.00000  Uiso   1.00
C548   C     0.88200   0.82613   0.11179   0.00000  Uiso   1.00
C549   C     0.71937   0.83838   0.46424   0.00000  Uiso   1.00
C550   C     0.93832   0.79352   0.04168   0.00000  Uiso   1.00
C551   C     0.73493   0.83875   0.41588   0.00000  Uiso   1.00
C552   C     0.92714   0.80713   0.08739   0.00000  Uiso   1.00
C553   C     0.81547   0.81675   0.40961   0.00000  Uiso   1.00
C554   C     0.84912   0.83239   0.09009   0.00000  Uiso   1.00
C555   C     0.80074   0.81586   0.45798   0.00000  Uiso   1.00
C556   C     0.85740   0.81534   0.04634   0.00000  Uiso   1.00
C557   C     0.75226   0.82819   0.48544   0.00000  Uiso   1.00
C558   C     0.90368   0.79743   0.02098   0.00000  Uiso   1.00
C559   C     0.83425   0.80661   0.47939   0.00000  Uiso   1.00
C560   C     0.82102   0.81648   0.02706   0.00000  Uiso   1.00
H561   H     0.70056   0.83993   0.05515   0.00000  Uiso   1.00
H562   H     0.94942   0.76908   0.45590   0.00000  Uiso   1.00
H563   H     0.81644   0.85012   0.10858   0.00000  Uiso   1.00
H564   H     0.85277   0.81022   0.38746   0.00000  Uiso   1.00
H565   H     0.95281   0.80154   0.10404   0.00000  Uiso   1.00
H566   H     0.70963   0.84799   0.39994   0.00000  Uiso   1.00
H567   H     0.68227   0.84771   0.48497   0.00000  Uiso   1.00
H568   H     0.97334   0.77886   0.02303   0.00000  Uiso   1.00
H569   H     0.75807   0.82962   0.09150   0.00000  Uiso   1.00
H570   H     0.89121   0.77647   0.41975   0.00000  Uiso   1.00
H571   H     0.85311   0.95922   0.30861   0.00000  Uiso   1.00
H572   H     0.81358   0.70747   0.19141   0.00000  Uiso   1.00
H573   H     0.97982   0.78977   0.19437   0.00000  Uiso   1.00
H574   H     0.68687   0.87695   0.30557   0.00000  Uiso   1.00
H575   H     0.73061   0.78971   0.19441   0.00000  Uiso   1.00
H576   H     0.93609   0.87703   0.30551   0.00000  Uiso   1.00
N577   N     0.71426   0.83334   0.25001   0.00000  Uiso   1.00
N578   N     0.95241   0.83332   0.24999   0.00000  Uiso   1.00
O579   O     0.79512   0.89442   0.25000   0.00000  Uiso   1.00
O580   O     0.87154   0.77225   0.25000   0.00000  Uiso   1.00
O581   O     0.87157   0.89441   0.25000   0.00000  Uiso   1.00
O582   O     0.79510   0.77226   0.25000   0.00000  Uiso   1.00
O583   O     0.77328   0.83334   0.31612   0.00000  Uiso   1.00
O584   O     0.89339   0.83333   0.18388   0.00000  Uiso   1.00
O585   O     0.84972   0.83333   0.31612   0.00000  Uiso   1.00
O586   O     0.81695   0.83334   0.18388   0.00000  Uiso   1.00
Zn587  Zn    0.78229   0.83334   0.25000   0.00000  Uiso   1.00
Zn588  Zn    0.88438   0.83333   0.25000   0.00000  Uiso   1.00
C589   C     0.85216   0.70868   0.32500   0.00000  Uiso   1.00
H590   H     0.84529   0.74192   0.33128   0.00000  Uiso   1.00
O591   O     0.86654   0.68918   0.35116   0.00000  Uiso   1.00
C592   C     0.81443   0.95803   0.17508   0.00000  Uiso   1.00
H593   H     0.82133   0.92479   0.16875   0.00000  Uiso   1.00
O594   O     0.79999   0.97755   0.14898   0.00000  Uiso   1.00
C595   C     0.16724   0.24655   0.74872   0.00000  Uiso   1.00
C596   C     0.16608   0.08679   0.75130   0.00000  Uiso   1.00
C597   C     0.10504   0.15981   0.55408   0.00000  Uiso   1.00
C598   C     0.21397   0.12177   0.95476   0.00000  Uiso   1.00
C599   C     0.07109   0.16488   0.53353   0.00000  Uiso   1.00
C600   C     0.24777   0.11671   0.97563   0.00000  Uiso   1.00
C601   C     0.17845   0.31084   0.78291   0.00000  Uiso   1.00
C602   C     0.15488   0.02252   0.71713   0.00000  Uiso   1.00
C603   C     0.17707   0.02068   0.78587   0.00000  Uiso   1.00
C604   C     0.15624   0.31268   0.71418   0.00000  Uiso   1.00
C605   C     0.16556   0.04264   0.75215   0.00000  Uiso   1.00
C606   C     0.16777   0.29071   0.74789   0.00000  Uiso   1.00
C607   C     0.32154   0.14246   0.71910   0.00000  Uiso   1.00
C608   C     0.01181   0.19090   0.78087   0.00000  Uiso   1.00
C609   C     0.03611   0.14245   0.71912   0.00000  Uiso   1.00
C610   C     0.29724   0.19092   0.78084   0.00000  Uiso   1.00
C611   C     0.13615   0.16599   0.83799   0.00000  Uiso   1.00
C612   C     0.19714   0.16618   0.66198   0.00000  Uiso   1.00
C613   C     0.11687   0.16249   0.88859   0.00000  Uiso   1.00
C614   C     0.21534   0.15946   0.61179   0.00000  Uiso   1.00
C615   C     0.05270   0.17172   0.96424   0.00000  Uiso   1.00
C616   C     0.27166   0.12686   0.54168   0.00000  Uiso   1.00
C617   C     0.06826   0.17208   0.91588   0.00000  Uiso   1.00
C618   C     0.26047   0.14046   0.58739   0.00000  Uiso   1.00
C619   C     0.14880   0.15008   0.90961   0.00000  Uiso   1.00
C620   C     0.18245   0.16572   0.59009   0.00000  Uiso   1.00
C621   C     0.13407   0.14919   0.95798   0.00000  Uiso   1.00
C622   C     0.19073   0.14867   0.54634   0.00000  Uiso   1.00
C623   C     0.08559   0.16152   0.98544   0.00000  Uiso   1.00
C624   C     0.23701   0.13077   0.52098   0.00000  Uiso   1.00
C625   C     0.16758   0.13994   0.97939   0.00000  Uiso   1.00
C626   C     0.15435   0.14981   0.52706   0.00000  Uiso   1.00
H627   H     0.03390   0.17327   0.55515   0.00000  Uiso   1.00
H628   H     0.28276   0.10241   0.95590   0.00000  Uiso   1.00
H629   H     0.14977   0.18345   0.60858   0.00000  Uiso   1.00
H630   H     0.18610   0.14356   0.88746   0.00000  Uiso   1.00
H631   H     0.28615   0.13488   0.60404   0.00000  Uiso   1.00
H632   H     0.04296   0.18133   0.89994   0.00000  Uiso   1.00
H633   H     0.01560   0.18105   0.98497   0.00000  Uiso   1.00
H634   H     0.30668   0.11219   0.52303   0.00000  Uiso   1.00
H635   H     0.09140   0.16296   0.59150   0.00000  Uiso   1.00
H636   H     0.22455   0.10980   0.91975   0.00000  Uiso   1.00
H637   H     0.18644   0.29255   0.80861   0.00000  Uiso   1.00
H638   H     0.14692   0.04080   0.69141   0.00000  Uiso   1.00
H639   H     0.31315   0.12310   0.69437   0.00000  Uiso   1.00
H640   H     0.02020   0.21028   0.80557   0.00000  Uiso   1.00
H641   H     0.06394   0.12304   0.69441   0.00000  Uiso   1.00
H642   H     0.26943   0.21036   0.80551   0.00000  Uiso   1.00
N643   N     0.04759   0.16668   0.75001   0.00000  Uiso   1.00
N644   N     0.28574   0.16666   0.74999   0.00000  Uiso   1.00
O645   O     0.12846   0.22775   0.75000   0.00000  Uiso   1.00
O646   O     0.20488   0.10558   0.75000   0.00000  Uiso   1.00
O647   O     0.20490   0.22774   0.75000   0.00000  Uiso   1.00
O648   O     0.12843   0.10559   0.75000   0.00000  Uiso   1.00
O649   O     0.10661   0.16667   0.81612   0.00000  Uiso   1.00
O650   O     0.22672   0.16666   0.68388   0.00000  Uiso   1.00
O651   O     0.18305   0.16666   0.81612   0.00000  Uiso   1.00
O652   O     0.15028   0.16667   0.68388   0.00000  Uiso   1.00
Zn653  Zn    0.11562   0.16667   0.75000   0.00000  Uiso   1.00
Zn654  Zn    0.21771   0.16666   0.75000   0.00000  Uiso   1.00
C655   C     0.18550   0.04201   0.82500   0.00000  Uiso   1.00
H656   H     0.17862   0.07526   0.83128   0.00000  Uiso   1.00
O657   O     0.19987   0.02251   0.85116   0.00000  Uiso   1.00
C658   C     0.14777   0.29136   0.67508   0.00000  Uiso   1.00
H659   H     0.15466   0.25812   0.66875   0.00000  Uiso   1.00
O660   O     0.13332   0.31088   0.64898   0.00000  Uiso   1.00
C661   C     0.50058   0.24655   0.74872   0.00000  Uiso   1.00
C662   C     0.49942   0.08679   0.75130   0.00000  Uiso   1.00
C663   C     0.43837   0.15981   0.55408   0.00000  Uiso   1.00
C664   C     0.54731   0.12177   0.95476   0.00000  Uiso   1.00
C665   C     0.40443   0.16488   0.53353   0.00000  Uiso   1.00
C666   C     0.58110   0.11671   0.97563   0.00000  Uiso   1.00
C667   C     0.51179   0.31084   0.78291   0.00000  Uiso   1.00
C668   C     0.48822   0.02252   0.71713   0.00000  Uiso   1.00
C669   C     0.51041   0.02068   0.78587   0.00000  Uiso   1.00
C670   C     0.48957   0.31268   0.71418   0.00000  Uiso   1.00
C671   C     0.49889   0.04264   0.75215   0.00000  Uiso   1.00
C672   C     0.50110   0.29071   0.74789   0.00000  Uiso   1.00
C673   C     0.65487   0.14246   0.71910   0.00000  Uiso   1.00
C674   C     0.34514   0.19090   0.78087   0.00000  Uiso   1.00
C675   C     0.36945   0.14245   0.71912   0.00000  Uiso   1.00
C676   C     0.63057   0.19092   0.78084   0.00000  Uiso   1.00
C677   C     0.46949   0.16599   0.83799   0.00000  Uiso   1.00
C678   C     0.53047   0.16618   0.66198   0.00000  Uiso   1.00
C679   C     0.45020   0.16249   0.88859   0.00000  Uiso   1.00
C680   C     0.54867   0.15946   0.61179   0.00000  Uiso   1.00
C681   C     0.38604   0.17172   0.96424   0.00000  Uiso   1.00
C682   C     0.60499   0.12686   0.54168   0.00000  Uiso   1.00
C683   C     0.40159   0.17208   0.91588   0.00000  Uiso   1.00
C684   C     0.59381   0.14046   0.58739   0.00000  Uiso   1.00
C685   C     0.48213   0.15008   0.90961   0.00000  Uiso   1.00
C686   C     0.51578   0.16572   0.59009   0.00000  Uiso   1.00
C687   C     0.46740   0.14919   0.95798   0.00000  Uiso   1.00
C688   C     0.52407   0.14867   0.54634   0.00000  Uiso   1.00
C689   C     0.41893   0.16152   0.98544   0.00000  Uiso   1.00
C690   C     0.57035   0.13077   0.52098   0.00000  Uiso   1.00
C691   C     0.50091   0.13994   0.97939   0.00000  Uiso   1.00
C692   C     0.48768   0.14981   0.52706   0.00000  Uiso   1.00
H693   H     0.36723   0.17327   0.55515   0.00000  Uiso   1.00
H694   H     0.61609   0.10241   0.95590   0.00000  Uiso   1.00
H695   H     0.48310   0.18345   0.60858   0.00000  Uiso   1.00
H696   H     0.51944   0.14356   0.88746   0.00000  Uiso   1.00
H697   H     0.61948   0.13488   0.60404   0.00000  Uiso   1.00
H698   H     0.37629   0.18133   0.89994   0.00000  Uiso   1.00
H699   H     0.34894   0.18105   0.98497   0.00000  Uiso   1.00
H700   H     0.64001   0.11219   0.52303   0.00000  Uiso   1.00
H701   H     0.42473   0.16296   0.59150   0.00000  Uiso   1.00
H702   H     0.55788   0.10980   0.91975   0.00000  Uiso   1.00
H703   H     0.51977   0.29255   0.80861   0.00000  Uiso   1.00
H704   H     0.48025   0.04080   0.69141   0.00000  Uiso   1.00
H705   H     0.64649   0.12310   0.69437   0.00000  Uiso   1.00
H706   H     0.35354   0.21028   0.80557   0.00000  Uiso   1.00
H707   H     0.39727   0.12304   0.69441   0.00000  Uiso   1.00
H708   H     0.60276   0.21036   0.80551   0.00000  Uiso   1.00
N709   N     0.38093   0.16668   0.75001   0.00000  Uiso   1.00
N710   N     0.61907   0.16666   0.74999   0.00000  Uiso   1.00
O711   O     0.46179   0.22775   0.75000   0.00000  Uiso   1.00
O712   O     0.53821   0.10558   0.75000   0.00000  Uiso   1.00
O713   O     0.53823   0.22774   0.75000   0.00000  Uiso   1.00
O714   O     0.46177   0.10559   0.75000   0.00000  Uiso   1.00
O715   O     0.43994   0.16667   0.81612   0.00000  Uiso   1.00
O716   O     0.56006   0.16666   0.68388   0.00000  Uiso   1.00
O717   O     0.51639   0.16666   0.81612   0.00000  Uiso   1.00
O718   O     0.48361   0.16667   0.68388   0.00000  Uiso   1.00
Zn719  Zn    0.44896   0.16667   0.75000   0.00000  Uiso   1.00
Zn720  Zn    0.55104   0.16666   0.75000   0.00000  Uiso   1.00
C721   C     0.51883   0.04201   0.82500   0.00000  Uiso   1.00
H722   H     0.51196   0.07526   0.83128   0.00000  Uiso   1.00
O723   O     0.53320   0.02251   0.85116   0.00000  Uiso   1.00
C724   C     0.48110   0.29136   0.67508   0.00000  Uiso   1.00
H725   H     0.48799   0.25812   0.66875   0.00000  Uiso   1.00
O726   O     0.46666   0.31088   0.64898   0.00000  Uiso   1.00
C727   C     0.83391   0.24655   0.74872   0.00000  Uiso   1.00
C728   C     0.83275   0.08679   0.75130   0.00000  Uiso   1.00
C729   C     0.77171   0.15981   0.55408   0.00000  Uiso   1.00
C730   C     0.88064   0.12177   0.95476   0.00000  Uiso   1.00
C731   C     0.73776   0.16488   0.53353   0.00000  Uiso   1.00
C732   C     0.91443   0.11671   0.97563   0.00000  Uiso   1.00
C733   C     0.84512   0.31084   0.78291   0.00000  Uiso   1.00
C734   C     0.82155   0.02252   0.71713   0.00000  Uiso   1.00
C735   C     0.84374   0.02068   0.78587   0.00000  Uiso   1.00
C736   C     0.82290   0.31268   0.71418   0.00000  Uiso   1.00
C737   C     0.83222   0.04264   0.75215   0.00000  Uiso   1.00
C738   C     0.83443   0.29071   0.74789   0.00000  Uiso   1.00
C739   C     0.98820   0.14246   0.71910   0.00000  Uiso   1.00
C740   C     0.67847   0.19090   0.78087   0.00000  Uiso   1.00
C741   C     0.70278   0.14245   0.71912   0.00000  Uiso   1.00
C742   C     0.96390   0.19092   0.78084   0.00000  Uiso   1.00
C743   C     0.80282   0.16599   0.83799   0.00000  Uiso   1.00
C744   C     0.86380   0.16618   0.66198   0.00000  Uiso   1.00
C745   C     0.78353   0.16249   0.88859   0.00000  Uiso   1.00
C746   C     0.88200   0.15946   0.61179   0.00000  Uiso   1.00
C747   C     0.71937   0.17172   0.96424   0.00000  Uiso   1.00
C748   C     0.93832   0.12686   0.54168   0.00000  Uiso   1.00
C749   C     0.73493   0.17208   0.91588   0.00000  Uiso   1.00
C750   C     0.92714   0.14046   0.58739   0.00000  Uiso   1.00
C751   C     0.81547   0.15008   0.90961   0.00000  Uiso   1.00
C752   C     0.84912   0.16572   0.59009   0.00000  Uiso   1.00
C753   C     0.80074   0.14919   0.95798   0.00000  Uiso   1.00
C754   C     0.85740   0.14867   0.54634   0.00000  Uiso   1.00
C755   C     0.75226   0.16152   0.98544   0.00000  Uiso   1.00
C756   C     0.90368   0.13077   0.52098   0.00000  Uiso   1.00
C757   C     0.83425   0.13994   0.97939   0.00000  Uiso   1.00
C758   C     0.82102   0.14981   0.52706   0.00000  Uiso   1.00
H759   H     0.70056   0.17327   0.55515   0.00000  Uiso   1.00
H760   H     0.94942   0.10241   0.95590   0.00000  Uiso   1.00
H761   H     0.81644   0.18345   0.60858   0.00000  Uiso   1.00
H762   H     0.85277   0.14356   0.88746   0.00000  Uiso   1.00
H763   H     0.95281   0.13488   0.60404   0.00000  Uiso   1.00
H764   H     0.70963   0.18133   0.89994   0.00000  Uiso   1.00
H765   H     0.68227   0.18105   0.98497   0.00000  Uiso   1.00
H766   H     0.97334   0.11219   0.52303   0.00000  Uiso   1.00
H767   H     0.75807   0.16296   0.59150   0.00000  Uiso   1.00
H768   H     0.89121   0.10980   0.91975   0.00000  Uiso   1.00
H769   H     0.85311   0.29255   0.80861   0.00000  Uiso   1.00
H770   H     0.81358   0.04080   0.69141   0.00000  Uiso   1.00
H771   H     0.97982   0.12310   0.69437   0.00000  Uiso   1.00
H772   H     0.68687   0.21028   0.80557   0.00000  Uiso   1.00
H773   H     0.73061   0.12304   0.69441   0.00000  Uiso   1.00
H774   H     0.93609   0.21036   0.80551   0.00000  Uiso   1.00
N775   N     0.71426   0.16668   0.75001   0.00000  Uiso   1.00
N776   N     0.95241   0.16666   0.74999   0.00000  Uiso   1.00
O777   O     0.79512   0.22775   0.75000   0.00000  Uiso   1.00
O778   O     0.87154   0.10558   0.75000   0.00000  Uiso   1.00
O779   O     0.87157   0.22774   0.75000   0.00000  Uiso   1.00
O780   O     0.79510   0.10559   0.75000   0.00000  Uiso   1.00
O781   O     0.77328   0.16667   0.81612   0.00000  Uiso   1.00
O782   O     0.89339   0.16666   0.68388   0.00000  Uiso   1.00
O783   O     0.84972   0.16666   0.81612   0.00000  Uiso   1.00
O784   O     0.81695   0.16667   0.68388   0.00000  Uiso   1.00
Zn785  Zn    0.78229   0.16667   0.75000   0.00000  Uiso   1.00
Zn786  Zn    0.88438   0.16666   0.75000   0.00000  Uiso   1.00
C787   C     0.85216   0.04201   0.82500   0.00000  Uiso   1.00
H788   H     0.84529   0.07526   0.83128   0.00000  Uiso   1.00
O789   O     0.86654   0.02251   0.85116   0.00000  Uiso   1.00
C790   C     0.81443   0.29136   0.67508   0.00000  Uiso   1.00
H791   H     0.82133   0.25812   0.66875   0.00000  Uiso   1.00
O792   O     0.79999   0.31088   0.64898   0.00000  Uiso   1.00
C793   C     0.16724   0.57989   0.74872   0.00000  Uiso   1.00
C794   C     0.16608   0.42012   0.75130   0.00000  Uiso   1.00
C795   C     0.10504   0.49314   0.55408   0.00000  Uiso   1.00
C796   C     0.21397   0.45510   0.95476   0.00000  Uiso   1.00
C797   C     0.07109   0.49821   0.53353   0.00000  Uiso   1.00
C798   C     0.24777   0.45004   0.97563   0.00000  Uiso   1.00
C799   C     0.17845   0.64417   0.78291   0.00000  Uiso   1.00
C800   C     0.15488   0.35585   0.71713   0.00000  Uiso   1.00
C801   C     0.17707   0.35402   0.78587   0.00000  Uiso   1.00
C802   C     0.15624   0.64601   0.71418   0.00000  Uiso   1.00
C803   C     0.16556   0.37597   0.75215   0.00000  Uiso   1.00
C804   C     0.16777   0.62405   0.74789   0.00000  Uiso   1.00
C805   C     0.32154   0.47579   0.71910   0.00000  Uiso   1.00
C806   C     0.01181   0.52424   0.78087   0.00000  Uiso   1.00
C807   C     0.03611   0.47578   0.71912   0.00000  Uiso   1.00
C808   C     0.29724   0.52425   0.78084   0.00000  Uiso   1.00
C809   C     0.13615   0.49933   0.83799   0.00000  Uiso   1.00
C810   C     0.19714   0.49951   0.66198   0.00000  Uiso   1.00
C811   C     0.11687   0.49583   0.88859   0.00000  Uiso   1.00
C812   C     0.21534   0.49280   0.61179   0.00000  Uiso   1.00
C813   C     0.05270   0.50505   0.96424   0.00000  Uiso   1.00
C814   C     0.27166   0.46019   0.54168   0.00000  Uiso   1.00
C815   C     0.06826   0.50541   0.91588   0.00000  Uiso   1.00
C816   C     0.26047   0.47379   0.58739   0.00000  Uiso   1.00
C817   C     0.14880   0.48341   0.90961   0.00000  Uiso   1.00
C818   C     0.18245   0.49906   0.59009   0.00000  Uiso   1.00
C819   C     0.13407   0.48253   0.95798   0.00000  Uiso   1.00
C820   C     0.19073   0.48201   0.54634   0.00000  Uiso   1.00
C821   C     0.08559   0.49485   0.98544   0.00000  Uiso   1.00
C822   C     0.23701   0.46410   0.52098   0.00000  Uiso   1.00
C823   C     0.16758   0.47327   0.97939   0.00000  Uiso   1.00
C824   C     0.15435   0.48314   0.52706   0.00000  Uiso   1.00
H825   H     0.03390   0.50660   0.55515   0.00000  Uiso   1.00
H826   H     0.28276   0.43575   0.95590   0.00000  Uiso   1.00
H827   H     0.14977   0.51678   0.60858   0.00000  Uiso   1.00
H828   H     0.18610   0.47689   0.88746   0.00000  Uiso   1.00
H829   H     0.28615   0.46821   0.60404   0.00000  Uiso   1.00
H830   H     0.04296   0.51466   0.89994   0.00000  Uiso   1.00
H831   H     0.01560   0.51438   0.98497   0.00000  Uiso   1.00
H832   H     0.30668   0.44552   0.52303   0.00000  Uiso   1.00
H833   H     0.09140   0.49629   0.59150   0.00000  Uiso   1.00
H834   H     0.22455   0.44314   0.91975   0.00000  Uiso   1.00
H835   H     0.18644   0.62589   0.80861   0.00000  Uiso   1.00
H836   H     0.14692   0.37414   0.69141   0.00000  Uiso   1.00
H837   H     0.31315   0.45644   0.69437   0.00000  Uiso   1.00
H838   H     0.02020   0.54362   0.80557   0.00000  Uiso   1.00
H839   H     0.06394   0.45637   0.69441   0.00000  Uiso   1.00
H840   H     0.26943   0.54370   0.80551   0.00000  Uiso   1.00
N841   N     0.04759   0.50001   0.75001   0.00000  Uiso   1.00
N842   N     0.28574   0.49999   0.74999   0.00000  Uiso   1.00
O843   O     0.12846   0.56108   0.75000   0.00000  Uiso   1.00
O844   O     0.20488   0.43892   0.75000   0.00000  Uiso   1.00
O845   O     0.20490   0.56107   0.75000   0.00000  Uiso   1.00
O846   O     0.12843   0.43893   0.75000   0.00000  Uiso   1.00
O847   O     0.10661   0.50001   0.81612   0.00000  Uiso   1.00
O848   O     0.22672   0.49999   0.68388   0.00000  Uiso   1.00
O849   O     0.18305   0.50000   0.81612   0.00000  Uiso   1.00
O850   O     0.15028   0.50000   0.68388   0.00000  Uiso   1.00
Zn851  Zn    0.11562   0.50001   0.75000   0.00000  Uiso   1.00
Zn852  Zn    0.21771   0.49999   0.75000   0.00000  Uiso   1.00
C853   C     0.18550   0.37535   0.82500   0.00000  Uiso   1.00
H854   H     0.17862   0.40859   0.83128   0.00000  Uiso   1.00
O855   O     0.19987   0.35584   0.85116   0.00000  Uiso   1.00
C856   C     0.14777   0.62469   0.67508   0.00000  Uiso   1.00
H857   H     0.15466   0.59145   0.66875   0.00000  Uiso   1.00
O858   O     0.13332   0.64422   0.64898   0.00000  Uiso   1.00
C859   C     0.50058   0.57989   0.74872   0.00000  Uiso   1.00
C860   C     0.49942   0.42012   0.75130   0.00000  Uiso   1.00
C861   C     0.43837   0.49314   0.55408   0.00000  Uiso   1.00
C862   C     0.54731   0.45510   0.95476   0.00000  Uiso   1.00
C863   C     0.40443   0.49821   0.53353   0.00000  Uiso   1.00
C864   C     0.58110   0.45004   0.97563   0.00000  Uiso   1.00
C865   C     0.51179   0.64417   0.78291   0.00000  Uiso   1.00
C866   C     0.48822   0.35585   0.71713   0.00000  Uiso   1.00
C867   C     0.51041   0.35402   0.78587   0.00000  Uiso   1.00
C868   C     0.48957   0.64601   0.71418   0.00000  Uiso   1.00
C869   C     0.49889   0.37597   0.75215   0.00000  Uiso   1.00
C870   C     0.50110   0.62405   0.74789   0.00000  Uiso   1.00
C871   C     0.65487   0.47579   0.71910   0.00000  Uiso   1.00
C872   C     0.34514   0.52424   0.78087   0.00000  Uiso   1.00
C873   C     0.36945   0.47578   0.71912   0.00000  Uiso   1.00
C874   C     0.63057   0.52425   0.78084   0.00000  Uiso   1.00
C875   C     0.46949   0.49933   0.83799   0.00000  Uiso   1.00
C876   C     0.53047   0.49951   0.66198   0.00000  Uiso   1.00
C877   C     0.45020   0.49583   0.88859   0.00000  Uiso   1.00
C878   C     0.54867   0.49280   0.61179   0.00000  Uiso   1.00
C879   C     0.38604   0.50505   0.96424   0.00000  Uiso   1.00
C880   C     0.60499   0.46019   0.54168   0.00000  Uiso   1.00
C881   C     0.40159   0.50541   0.91588   0.00000  Uiso   1.00
C882   C     0.59381   0.47379   0.58739   0.00000  Uiso   1.00
C883   C     0.48213   0.48341   0.90961   0.00000  Uiso   1.00
C884   C     0.51578   0.49906   0.59009   0.00000  Uiso   1.00
C885   C     0.46740   0.48253   0.95798   0.00000  Uiso   1.00
C886   C     0.52407   0.48201   0.54634   0.00000  Uiso   1.00
C887   C     0.41893   0.49485   0.98544   0.00000  Uiso   1.00
C888   C     0.57035   0.46410   0.52098   0.00000  Uiso   1.00
C889   C     0.50091   0.47327   0.97939   0.00000  Uiso   1.00
C890   C     0.48768   0.48314   0.52706   0.00000  Uiso   1.00
H891   H     0.36723   0.50660   0.55515   0.00000  Uiso   1.00
H892   H     0.61609   0.43575   0.95590   0.00000  Uiso   1.00
H893   H     0.48310   0.51678   0.60858   0.00000  Uiso   1.00
H894   H     0.51944   0.47689   0.88746   0.00000  Uiso   1.00
H895   H     0.61948   0.46821   0.60404   0.00000  Uiso   1.00
H896   H     0.37629   0.51466   0.89994   0.00000  Uiso   1.00
H897   H     0.34894   0.51438   0.98497   0.00000  Uiso   1.00
H898   H     0.64001   0.44552   0.52303   0.00000  Uiso   1.00
H899   H     0.42473   0.49629   0.59150   0.00000  Uiso   1.00
H900   H     0.55788   0.44314   0.91975   0.00000  Uiso   1.00
H901   H     0.51977   0.62589   0.80861   0.00000  Uiso   1.00
H902   H     0.48025   0.37414   0.69141   0.00000  Uiso   1.00
H903   H     0.64649   0.45644   0.69437   0.00000  Uiso   1.00
H904   H     0.35354   0.54362   0.80557   0.00000  Uiso   1.00
H905   H     0.39727   0.45637   0.69441   0.00000  Uiso   1.00
H906   H     0.60276   0.54370   0.80551   0.00000  Uiso   1.00
N907   N     0.38093   0.50001   0.75001   0.00000  Uiso   1.00
N908   N     0.61907   0.49999   0.74999   0.00000  Uiso   1.00
O909   O     0.46179   0.56108   0.75000   0.00000  Uiso   1.00
O910   O     0.53821   0.43892   0.75000   0.00000  Uiso   1.00
O911   O     0.53823   0.56107   0.75000   0.00000  Uiso   1.00
O912   O     0.46177   0.43893   0.75000   0.00000  Uiso   1.00
O913   O     0.43994   0.50001   0.81612   0.00000  Uiso   1.00
O914   O     0.56006   0.49999   0.68388   0.00000  Uiso   1.00
O915   O     0.51639   0.50000   0.81612   0.00000  Uiso   1.00
O916   O     0.48361   0.50000   0.68388   0.00000  Uiso   1.00
Zn917  Zn    0.44896   0.50001   0.75000   0.00000  Uiso   1.00
Zn918  Zn    0.55104   0.49999   0.75000   0.00000  Uiso   1.00
C919   C     0.51883   0.37535   0.82500   0.00000  Uiso   1.00
H920   H     0.51196   0.40859   0.83128   0.00000  Uiso   1.00
O921   O     0.53320   0.35584   0.85116   0.00000  Uiso   1.00
C922   C     0.48110   0.62469   0.67508   0.00000  Uiso   1.00
H923   H     0.48799   0.59145   0.66875   0.00000  Uiso   1.00
O924   O     0.46666   0.64422   0.64898   0.00000  Uiso   1.00
C925   C     0.83391   0.57989   0.74872   0.00000  Uiso   1.00
C926   C     0.83275   0.42012   0.75130   0.00000  Uiso   1.00
C927   C     0.77171   0.49314   0.55408   0.00000  Uiso   1.00
C928   C     0.88064   0.45510   0.95476   0.00000  Uiso   1.00
C929   C     0.73776   0.49821   0.53353   0.00000  Uiso   1.00
C930   C     0.91443   0.45004   0.97563   0.00000  Uiso   1.00
C931   C     0.84512   0.64417   0.78291   0.00000  Uiso   1.00
C932   C     0.82155   0.35585   0.71713   0.00000  Uiso   1.00
C933   C     0.84374   0.35402   0.78587   0.00000  Uiso   1.00
C934   C     0.82290   0.64601   0.71418   0.00000  Uiso   1.00
C935   C     0.83222   0.37597   0.75215   0.00000  Uiso   1.00
C936   C     0.83443   0.62405   0.74789   0.00000  Uiso   1.00
C937   C     0.98820   0.47579   0.71910   0.00000  Uiso   1.00
C938   C     0.67847   0.52424   0.78087   0.00000  Uiso   1.00
C939   C     0.70278   0.47578   0.71912   0.00000  Uiso   1.00
C940   C     0.96390   0.52425   0.78084   0.00000  Uiso   1.00
C941   C     0.80282   0.49933   0.83799   0.00000  Uiso   1.00
C942   C     0.86380   0.49951   0.66198   0.00000  Uiso   1.00
C943   C     0.78353   0.49583   0.88859   0.00000  Uiso   1.00
C944   C     0.88200   0.49280   0.61179   0.00000  Uiso   1.00
C945   C     0.71937   0.50505   0.96424   0.00000  Uiso   1.00
C946   C     0.93832   0.46019   0.54168   0.00000  Uiso   1.00
C947   C     0.73493   0.50541   0.91588   0.00000  Uiso   1.00
C948   C     0.92714   0.47379   0.58739   0.00000  Uiso   1.00
C949   C     0.81547   0.48341   0.90961   0.00000  Uiso   1.00
C950   C     0.84912   0.49906   0.59009   0.00000  Uiso   1.00
C951   C     0.80074   0.48253   0.95798   0.00000  Uiso   1.00
C952   C     0.85740   0.48201   0.54634   0.00000  Uiso   1.00
C953   C     0.75226   0.49485   0.98544   0.00000  Uiso   1.00
C954   C     0.90368   0.46410   0.52098   0.00000  Uiso   1.00
C955   C     0.83425   0.47327   0.97939   0.00000  Uiso   1.00
C956   C     0.82102   0.48314   0.52706   0.00000  Uiso   1.00
H957   H     0.70056   0.50660   0.55515   0.00000  Uiso   1.00
H958   H     0.94942   0.43575   0.95590   0.00000  Uiso   1.00
H959   H     0.81644   0.51678   0.60858   0.00000  Uiso   1.00
H960   H     0.85277   0.47689   0.88746   0.00000  Uiso   1.00
H961   H     0.95281   0.46821   0.60404   0.00000  Uiso   1.00
H962   H     0.70963   0.51466   0.89994   0.00000  Uiso   1.00
H963   H     0.68227   0.51438   0.98497   0.00000  Uiso   1.00
H964   H     0.97334   0.44552   0.52303   0.00000  Uiso   1.00
H965   H     0.75807   0.49629   0.59150   0.00000  Uiso   1.00
H966   H     0.89121   0.44314   0.91975   0.00000  Uiso   1.00
H967   H     0.85311   0.62589   0.80861   0.00000  Uiso   1.00
H968   H     0.81358   0.37414   0.69141   0.00000  Uiso   1.00
H969   H     0.97982   0.45644   0.69437   0.00000  Uiso   1.00
H970   H     0.68687   0.54362   0.80557   0.00000  Uiso   1.00
H971   H     0.73061   0.45637   0.69441   0.00000  Uiso   1.00
H972   H     0.93609   0.54370   0.80551   0.00000  Uiso   1.00
N973   N     0.71426   0.50001   0.75001   0.00000  Uiso   1.00
N974   N     0.95241   0.49999   0.74999   0.00000  Uiso   1.00
O975   O     0.79512   0.56108   0.75000   0.00000  Uiso   1.00
O976   O     0.87154   0.43892   0.75000   0.00000  Uiso   1.00
O977   O     0.87157   0.56107   0.75000   0.00000  Uiso   1.00
O978   O     0.79510   0.43893   0.75000   0.00000  Uiso   1.00
O979   O     0.77328   0.50001   0.81612   0.00000  Uiso   1.00
O980   O     0.89339   0.49999   0.68388   0.00000  Uiso   1.00
O981   O     0.84972   0.50000   0.81612   0.00000  Uiso   1.00
O982   O     0.81695   0.50000   0.68388   0.00000  Uiso   1.00
Zn983  Zn    0.78229   0.50001   0.75000   0.00000  Uiso   1.00
Zn984  Zn    0.88438   0.49999   0.75000   0.00000  Uiso   1.00
C985   C     0.85216   0.37535   0.82500   0.00000  Uiso   1.00
H986   H     0.84529   0.40859   0.83128   0.00000  Uiso   1.00
O987   O     0.86654   0.35584   0.85116   0.00000  Uiso   1.00
C988   C     0.81443   0.62469   0.67508   0.00000  Uiso   1.00
H989   H     0.82133   0.59145   0.66875   0.00000  Uiso   1.00
O990   O     0.79999   0.64422   0.64898   0.00000  Uiso   1.00
C991   C     0.16724   0.91322   0.74872   0.00000  Uiso   1.00
C992   C     0.16608   0.75345   0.75130   0.00000  Uiso   1.00
C993   C     0.10504   0.82648   0.55408   0.00000  Uiso   1.00
C994   C     0.21397   0.78844   0.95476   0.00000  Uiso   1.00
C995   C     0.07109   0.83155   0.53353   0.00000  Uiso   1.00
C996   C     0.24777   0.78338   0.97563   0.00000  Uiso   1.00
C997   C     0.17845   0.97751   0.78291   0.00000  Uiso   1.00
C998   C     0.15488   0.68918   0.71713   0.00000  Uiso   1.00
C999   C     0.17707   0.68735   0.78587   0.00000  Uiso   1.00
C1000  C     0.15624   0.97934   0.71418   0.00000  Uiso   1.00
C1001  C     0.16556   0.70930   0.75215   0.00000  Uiso   1.00
C1002  C     0.16777   0.95738   0.74789   0.00000  Uiso   1.00
C1003  C     0.32154   0.80912   0.71910   0.00000  Uiso   1.00
C1004  C     0.01181   0.85757   0.78087   0.00000  Uiso   1.00
C1005  C     0.03611   0.80911   0.71912   0.00000  Uiso   1.00
C1006  C     0.29724   0.85758   0.78084   0.00000  Uiso   1.00
C1007  C     0.13615   0.83266   0.83799   0.00000  Uiso   1.00
C1008  C     0.19714   0.83285   0.66198   0.00000  Uiso   1.00
C1009  C     0.11687   0.82916   0.88859   0.00000  Uiso   1.00
C1010  C     0.21534   0.82613   0.61179   0.00000  Uiso   1.00
C1011  C     0.05270   0.83838   0.96424   0.00000  Uiso   1.00
C1012  C     0.27166   0.79352   0.54168   0.00000  Uiso   1.00
C1013  C     0.06826   0.83875   0.91588   0.00000  Uiso   1.00
C1014  C     0.26047   0.80713   0.58739   0.00000  Uiso   1.00
C1015  C     0.14880   0.81675   0.90961   0.00000  Uiso   1.00
C1016  C     0.18245   0.83239   0.59009   0.00000  Uiso   1.00
C1017  C     0.13407   0.81586   0.95798   0.00000  Uiso   1.00
C1018  C     0.19073   0.81534   0.54634   0.00000  Uiso   1.00
C1019  C     0.08559   0.82819   0.98544   0.00000  Uiso   1.00
C1020  C     0.23701   0.79743   0.52098   0.00000  Uiso   1.00
C1021  C     0.16758   0.80661   0.97939   0.00000  Uiso   1.00
C1022  C     0.15435   0.81648   0.52706   0.00000  Uiso   1.00
H1023  H     0.03390   0.83993   0.55515   0.00000  Uiso   1.00
H1024  H     0.28276   0.76908   0.95590   0.00000  Uiso   1.00
H1025  H     0.14977   0.85012   0.60858   0.00000  Uiso   1.00
H1026  H     0.18610   0.81022   0.88746   0.00000  Uiso   1.00
H1027  H     0.28615   0.80154   0.60404   0.00000  Uiso   1.00
H1028  H     0.04296   0.84799   0.89994   0.00000  Uiso   1.00
H1029  H     0.01560   0.84771   0.98497   0.00000  Uiso   1.00
H1030  H     0.30668   0.77886   0.52303   0.00000  Uiso   1.00
H1031  H     0.09140   0.82962   0.59150   0.00000  Uiso   1.00
H1032  H     0.22455   0.77647   0.91975   0.00000  Uiso   1.00
H1033  H     0.18644   0.95922   0.80861   0.00000  Uiso   1.00
H1034  H     0.14692   0.70747   0.69141   0.00000  Uiso   1.00
H1035  H     0.31315   0.78977   0.69437   0.00000  Uiso   1.00
H1036  H     0.02020   0.87695   0.80557   0.00000  Uiso   1.00
H1037  H     0.06394   0.78971   0.69441   0.00000  Uiso   1.00
H1038  H     0.26943   0.87703   0.80551   0.00000  Uiso   1.00
N1039  N     0.04759   0.83334   0.75001   0.00000  Uiso   1.00
N1040  N     0.28574   0.83332   0.74999   0.00000  Uiso   1.00
O1041  O     0.12846   0.89442   0.75000   0.00000  Uiso   1.00
O1042  O     0.20488   0.77225   0.75000   0.00000  Uiso   1.00
O1043  O     0.20490   0.89441   0.75000   0.00000  Uiso   1.00
O1044  O     0.12843   0.77226   0.75000   0.00000  Uiso   1.00
O1045  O     0.10661   0.83334   0.81612   0.00000  Uiso   1.00
O1046  O     0.22672   0.83333   0.68388   0.00000  Uiso   1.00
O1047  O     0.18305   0.83333   0.81612   0.00000  Uiso   1.00
O1048  O     0.15028   0.83334   0.68388   0.00000  Uiso   1.00
Zn1049 Zn    0.11562   0.83334   0.75000   0.00000  Uiso   1.00
Zn1050 Zn    0.21771   0.83333   0.75000   0.00000  Uiso   1.00
C1051  C     0.18550   0.70868   0.82500   0.00000  Uiso   1.00
H1052  H     0.17862   0.74192   0.83128   0.00000  Uiso   1.00
O1053  O     0.19987   0.68918   0.85116   0.00000  Uiso   1.00
C1054  C     0.14777   0.95803   0.67508   0.00000  Uiso   1.00
H1055  H     0.15466   0.92479   0.66875   0.00000  Uiso   1.00
O1056  O     0.13332   0.97755   0.64898   0.00000  Uiso   1.00
C1057  C     0.50058   0.91322   0.74872   0.00000  Uiso   1.00
C1058  C     0.49942   0.75345   0.75130   0.00000  Uiso   1.00
C1059  C     0.43837   0.82648   0.55408   0.00000  Uiso   1.00
C1060  C     0.54731   0.78844   0.95476   0.00000  Uiso   1.00
C1061  C     0.40443   0.83155   0.53353   0.00000  Uiso   1.00
C1062  C     0.58110   0.78338   0.97563   0.00000  Uiso   1.00
C1063  C     0.51179   0.97751   0.78291   0.00000  Uiso   1.00
C1064  C     0.48822   0.68918   0.71713   0.00000  Uiso   1.00
C1065  C     0.51041   0.68735   0.78587   0.00000  Uiso   1.00
C1066  C     0.48957   0.97934   0.71418   0.00000  Uiso   1.00
C1067  C     0.49889   0.70930   0.75215   0.00000  Uiso   1.00
C1068  C     0.50110   0.95738   0.74789   0.00000  Uiso   1.00
C1069  C     0.65487   0.80912   0.71910   0.00000  Uiso   1.00
C1070  C     0.34514   0.85757   0.78087   0.00000  Uiso   1.00
C1071  C     0.36945   0.80911   0.71912   0.00000  Uiso   1.00
C1072  C     0.63057   0.85758   0.78084   0.00000  Uiso   1.00
C1073  C     0.46949   0.83266   0.83799   0.00000  Uiso   1.00
C1074  C     0.53047   0.83285   0.66198   0.00000  Uiso   1.00
C1075  C     0.45020   0.82916   0.88859   0.00000  Uiso   1.00
C1076  C     0.54867   0.82613   0.61179   0.00000  Uiso   1.00
C1077  C     0.38604   0.83838   0.96424   0.00000  Uiso   1.00
C1078  C     0.60499   0.79352   0.54168   0.00000  Uiso   1.00
C1079  C     0.40159   0.83875   0.91588   0.00000  Uiso   1.00
C1080  C     0.59381   0.80713   0.58739   0.00000  Uiso   1.00
C1081  C     0.48213   0.81675   0.90961   0.00000  Uiso   1.00
C1082  C     0.51578   0.83239   0.59009   0.00000  Uiso   1.00
C1083  C     0.46740   0.81586   0.95798   0.00000  Uiso   1.00
C1084  C     0.52407   0.81534   0.54634   0.00000  Uiso   1.00
C1085  C     0.41893   0.82819   0.98544   0.00000  Uiso   1.00
C1086  C     0.57035   0.79743   0.52098   0.00000  Uiso   1.00
C1087  C     0.50091   0.80661   0.97939   0.00000  Uiso   1.00
C1088  C     0.48768   0.81648   0.52706   0.00000  Uiso   1.00
H1089  H     0.36723   0.83993   0.55515   0.00000  Uiso   1.00
H1090  H     0.61609   0.76908   0.95590   0.00000  Uiso   1.00
H1091  H     0.48310   0.85012   0.60858   0.00000  Uiso   1.00
H1092  H     0.51944   0.81022   0.88746   0.00000  Uiso   1.00
H1093  H     0.61948   0.80154   0.60404   0.00000  Uiso   1.00
H1094  H     0.37629   0.84799   0.89994   0.00000  Uiso   1.00
H1095  H     0.34894   0.84771   0.98497   0.00000  Uiso   1.00
H1096  H     0.64001   0.77886   0.52303   0.00000  Uiso   1.00
H1097  H     0.42473   0.82962   0.59150   0.00000  Uiso   1.00
H1098  H     0.55788   0.77647   0.91975   0.00000  Uiso   1.00
H1099  H     0.51977   0.95922   0.80861   0.00000  Uiso   1.00
H1100  H     0.48025   0.70747   0.69141   0.00000  Uiso   1.00
H1101  H     0.64649   0.78977   0.69437   0.00000  Uiso   1.00
H1102  H     0.35354   0.87695   0.80557   0.00000  Uiso   1.00
H1103  H     0.39727   0.78971   0.69441   0.00000  Uiso   1.00
H1104  H     0.60276   0.87703   0.80551   0.00000  Uiso   1.00
N1105  N     0.38093   0.83334   0.75001   0.00000  Uiso   1.00
N1106  N     0.61907   0.83332   0.74999   0.00000  Uiso   1.00
O1107  O     0.46179   0.89442   0.75000   0.00000  Uiso   1.00
O1108  O     0.53821   0.77225   0.75000   0.00000  Uiso   1.00
O1109  O     0.53823   0.89441   0.75000   0.00000  Uiso   1.00
O1110  O     0.46177   0.77226   0.75000   0.00000  Uiso   1.00
O1111  O     0.43994   0.83334   0.81612   0.00000  Uiso   1.00
O1112  O     0.56006   0.83333   0.68388   0.00000  Uiso   1.00
O1113  O     0.51639   0.83333   0.81612   0.00000  Uiso   1.00
O1114  O     0.48361   0.83334   0.68388   0.00000  Uiso   1.00
Zn1115 Zn    0.44896   0.83334   0.75000   0.00000  Uiso   1.00
Zn1116 Zn    0.55104   0.83333   0.75000   0.00000  Uiso   1.00
C1117  C     0.51883   0.70868   0.82500   0.00000  Uiso   1.00
H1118  H     0.51196   0.74192   0.83128   0.00000  Uiso   1.00
O1119  O     0.53320   0.68918   0.85116   0.00000  Uiso   1.00
C1120  C     0.48110   0.95803   0.67508   0.00000  Uiso   1.00
H1121  H     0.48799   0.92479   0.66875   0.00000  Uiso   1.00
O1122  O     0.46666   0.97755   0.64898   0.00000  Uiso   1.00
C1123  C     0.83391   0.91322   0.74872   0.00000  Uiso   1.00
C1124  C     0.83275   0.75345   0.75130   0.00000  Uiso   1.00
C1125  C     0.77171   0.82648   0.55408   0.00000  Uiso   1.00
C1126  C     0.88064   0.78844   0.95476   0.00000  Uiso   1.00
C1127  C     0.73776   0.83155   0.53353   0.00000  Uiso   1.00
C1128  C     0.91443   0.78338   0.97563   0.00000  Uiso   1.00
C1129  C     0.84512   0.97751   0.78291   0.00000  Uiso   1.00
C1130  C     0.82155   0.68918   0.71713   0.00000  Uiso   1.00
C1131  C     0.84374   0.68735   0.78587   0.00000  Uiso   1.00
C1132  C     0.82290   0.97934   0.71418   0.00000  Uiso   1.00
C1133  C     0.83222   0.70930   0.75215   0.00000  Uiso   1.00
C1134  C     0.83443   0.95738   0.74789   0.00000  Uiso   1.00
C1135  C     0.98820   0.80912   0.71910   0.00000  Uiso   1.00
C1136  C     0.67847   0.85757   0.78087   0.00000  Uiso   1.00
C1137  C     0.70278   0.80911   0.71912   0.00000  Uiso   1.00
C1138  C     0.96390   0.85758   0.78084   0.00000  Uiso   1.00
C1139  C     0.80282   0.83266   0.83799   0.00000  Uiso   1.00
C1140  C     0.86380   0.83285   0.66198   0.00000  Uiso   1.00
C1141  C     0.78353   0.82916   0.88859   0.00000  Uiso   1.00
C1142  C     0.88200   0.82613   0.61179   0.00000  Uiso   1.00
C1143  C     0.71937   0.83838   0.96424   0.00000  Uiso   1.00
C1144  C     0.93832   0.79352   0.54168   0.00000  Uiso   1.00
C1145  C     0.73493   0.83875   0.91588   0.00000  Uiso   1.00
C1146  C     0.92714   0.80713   0.58739   0.00000  Uiso   1.00
C1147  C     0.81547   0.81675   0.90961   0.00000  Uiso   1.00
C1148  C     0.84912   0.83239   0.59009   0.00000  Uiso   1.00
C1149  C     0.80074   0.81586   0.95798   0.00000  Uiso   1.00
C1150  C     0.85740   0.81534   0.54634   0.00000  Uiso   1.00
C1151  C     0.75226   0.82819   0.98544   0.00000  Uiso   1.00
C1152  C     0.90368   0.79743   0.52098   0.00000  Uiso   1.00
C1153  C     0.83425   0.80661   0.97939   0.00000  Uiso   1.00
C1154  C     0.82102   0.81648   0.52706   0.00000  Uiso   1.00
H1155  H     0.70056   0.83993   0.55515   0.00000  Uiso   1.00
H1156  H     0.94942   0.76908   0.95590   0.00000  Uiso   1.00
H1157  H     0.81644   0.85012   0.60858   0.00000  Uiso   1.00
H1158  H     0.85277   0.81022   0.88746   0.00000  Uiso   1.00
H1159  H     0.95281   0.80154   0.60404   0.00000  Uiso   1.00
H1160  H     0.70963   0.84799   0.89994   0.00000  Uiso   1.00
H1161  H     0.68227   0.84771   0.98497   0.00000  Uiso   1.00
H1162  H     0.97334   0.77886   0.52303   0.00000  Uiso   1.00
H1163  H     0.75807   0.82962   0.59150   0.00000  Uiso   1.00
H1164  H     0.89121   0.77647   0.91975   0.00000  Uiso   1.00
H1165  H     0.85311   0.95922   0.80861   0.00000  Uiso   1.00
H1166  H     0.81358   0.70747   0.69141   0.00000  Uiso   1.00
H1167  H     0.97982   0.78977   0.69437   0.00000  Uiso   1.00
H1168  H     0.68687   0.87695   0.80557   0.00000  Uiso   1.00
H1169  H     0.73061   0.78971   0.69441   0.00000  Uiso   1.00
H1170  H     0.93609   0.87703   0.80551   0.00000  Uiso   1.00
N1171  N     0.71426   0.83334   0.75001   0.00000  Uiso   1.00
N1172  N     0.95241   0.83332   0.74999   0.00000  Uiso   1.00
O1173  O     0.79512   0.89442   0.75000   0.00000  Uiso   1.00
O1174  O     0.87154   0.77225   0.75000   0.00000  Uiso   1.00
O1175  O     0.87157   0.89441   0.75000   0.00000  Uiso   1.00
O1176  O     0.79510   0.77226   0.75000   0.00000  Uiso   1.00
O1177  O     0.77328   0.83334   0.81612   0.00000  Uiso   1.00
O1178  O     0.89339   0.83333   0.68388   0.00000  Uiso   1.00
O1179  O     0.84972   0.83333   0.81612   0.00000  Uiso   1.00
O1180  O     0.81695   0.83334   0.68388   0.00000  Uiso   1.00
Zn1181 Zn    0.78229   0.83334   0.75000   0.00000  Uiso   1.00
Zn1182 Zn    0.88438   0.83333   0.75000   0.00000  Uiso   1.00
C1183  C     0.85216   0.70868   0.82500   0.00000  Uiso   1.00
H1184  H     0.84529   0.74192   0.83128   0.00000  Uiso   1.00
O1185  O     0.86654   0.68918   0.85116   0.00000  Uiso   1.00
C1186  C     0.81443   0.95803   0.67508   0.00000  Uiso   1.00
H1187  H     0.82133   0.92479   0.66875   0.00000  Uiso   1.00
O1188  O     0.79999   0.97755   0.64898   0.00000  Uiso   1.00
loop_
_geom_bond_atom_site_label_1
_geom_bond_atom_site_label_2
_geom_bond_distance
_geom_bond_site_symmetry_2
_ccdc_geom_bond_type
C1     O51     1.281   .     A
C1     C12     1.410   .     S
C1     O53     1.280   .     A
C2     O52     1.281   .     A
C2     C11     1.409   .     S
C2     O54     1.280   .     A
C3     C5      1.388   .     A
C3     C32     1.417   .     A
C3     H41     1.079   .     S
C4     C6      1.391   .     A
C4     H42     1.079   .     S
C4     C31     1.418   .     A
C5     H33     1.084   .     S
C5     C623    1.391   1_554 S
C6     H34     1.084   .     S
C6     C624    1.392   .     S
C7     H43     1.085   .     S
C7     C12     1.395   .     A
C7     C207    1.380   .     S
C8     H44     1.086   .     S
C8     C11     1.394   .     A
C8     C406    1.380   1_545 S
C9     C11     1.406   .     A
C9     C61     1.490   .     S
C9     C403    1.380   1_545 S
C10    C12     1.406   .     A
C10    C64     1.489   .     S
C10    C206    1.380   .     S
C13    H45     1.082   .     S
C13    N50     1.366   .     A
C13    C81     1.417   .     S
C14    H46     1.082   .     S
C14    N49     1.366   .     A
C14    C148    1.417   1_455 S
C15    N49     1.367   .     A
C15    H47     1.082   .     S
C15    C145    1.417   1_455 S
C16    H48     1.082   .     S
C16    N50     1.367   .     A
C16    C80     1.417   .     S
C17    O55     1.293   .     A
C17    C19     1.457   .     S
C17    O57     1.294   .     A
C18    O56     1.294   .     A
C18    C20     1.457   .     S
C18    O58     1.293   .     A
C19    C23     1.399   .     A
C19    C25     1.394   .     A
C20    C24     1.400   .     A
C20    C26     1.391   .     A
C21    C29     1.404   .     A
C21    C23     1.393   .     A
C21    H39     1.083   .     S
C22    H40     1.084   .     S
C22    C24     1.396   .     A
C22    C30     1.405   .     A
C23    H38     1.083   .     S
C24    H37     1.083   .     S
C25    H36     1.077   .     S
C25    C27     1.395   .     A
C26    H35     1.079   .     S
C26    C28     1.393   .     A
C27    C29     1.419   .     A
C27    C31     1.418   .     A
C28    C30     1.416   .     A
C28    C32     1.415   .     A
C29    C599    1.391   .     S
C30    C600    1.392   1_554 S
C31    C626    1.413   .     S
C32    C625    1.413   1_554 S
N49    Zn59    2.012   .     S
N50    Zn60    2.012   .     S
O51    Zn59    1.985   .     S
O52    Zn60    1.985   .     S
O53    Zn60    1.987   .     S
O54    Zn59    1.987   .     S
O55    Zn59    1.965   .     S
O56    Zn60    1.965   .     S
O57    Zn60    1.915   .     S
O58    Zn59    1.915   .     S
C61    H62     1.084   .     S
C61    O63     1.221   .     D
C64    H65     1.084   .     S
C64    O66     1.221   .     D
C67    O117    1.281   .     A
C67    C78     1.410   .     S
C67    O119    1.280   .     A
C68    O118    1.281   .     A
C68    C77     1.409   .     S
C68    O120    1.280   .     A
C69    C71     1.388   .     A
C69    C98     1.417   .     A
C69    H107    1.079   .     S
C70    C72     1.391   .     A
C70    H108    1.079   .     S
C70    C97     1.418   .     A
C71    H99     1.084   .     S
C71    C689    1.391   1_554 S
C72    H100    1.084   .     S
C72    C690    1.392   .     S
C73    H109    1.085   .     S
C73    C78     1.395   .     A
C73    C273    1.380   .     S
C74    H110    1.086   .     S
C74    C77     1.394   .     A
C74    C472    1.380   1_545 S
C75    C77     1.406   .     A
C75    C127    1.490   .     S
C75    C469    1.380   1_545 S
C76    C78     1.406   .     A
C76    C130    1.489   .     S
C76    C272    1.380   .     S
C79    H111    1.082   .     S
C79    N116    1.366   .     A
C79    C147    1.417   .     S
C80    H112    1.082   .     S
C80    N115    1.366   .     A
C81    N115    1.367   .     A
C81    H113    1.082   .     S
C82    H114    1.082   .     S
C82    N116    1.367   .     A
C82    C146    1.417   .     S
C83    O121    1.293   .     A
C83    C85     1.457   .     S
C83    O123    1.294   .     A
C84    O122    1.294   .     A
C84    C86     1.457   .     S
C84    O124    1.293   .     A
C85    C89     1.399   .     A
C85    C91     1.394   .     A
C86    C90     1.400   .     A
C86    C92     1.391   .     A
C87    C95     1.404   .     A
C87    C89     1.393   .     A
C87    H105    1.083   .     S
C88    H106    1.084   .     S
C88    C90     1.396   .     A
C88    C96     1.405   .     A
C89    H104    1.083   .     S
C90    H103    1.083   .     S
C91    H102    1.077   .     S
C91    C93     1.395   .     A
C92    H101    1.079   .     S
C92    C94     1.393   .     A
C93    C95     1.419   .     A
C93    C97     1.418   .     A
C94    C96     1.416   .     A
C94    C98     1.415   .     A
C95    C665    1.391   .     S
C96    C666    1.392   1_554 S
C97    C692    1.413   .     S
C98    C691    1.413   1_554 S
N115   Zn125   2.012   .     S
N116   Zn126   2.012   .     S
O117   Zn125   1.985   .     S
O118   Zn126   1.985   .     S
O119   Zn126   1.987   .     S
O120   Zn125   1.987   .     S
O121   Zn125   1.965   .     S
O122   Zn126   1.965   .     S
O123   Zn126   1.915   .     S
O124   Zn125   1.915   .     S
C127   H128    1.084   .     S
C127   O129    1.221   .     D
C130   H131    1.084   .     S
C130   O132    1.221   .     D
C133   O183    1.281   .     A
C133   C144    1.410   .     S
C133   O185    1.280   .     A
C134   O184    1.281   .     A
C134   C143    1.409   .     S
C134   O186    1.280   .     A
C135   C137    1.388   .     A
C135   C164    1.417   .     A
C135   H173    1.079   .     S
C136   C138    1.391   .     A
C136   H174    1.079   .     S
C136   C163    1.418   .     A
C137   H165    1.084   .     S
C137   C755    1.391   1_554 S
C138   H166    1.084   .     S
C138   C756    1.392   .     S
C139   H175    1.085   .     S
C139   C144    1.395   .     A
C139   C339    1.380   .     S
C140   H176    1.086   .     S
C140   C143    1.394   .     A
C140   C538    1.380   1_545 S
C141   C143    1.406   .     A
C141   C193    1.490   .     S
C141   C535    1.380   1_545 S
C142   C144    1.406   .     A
C142   C196    1.489   .     S
C142   C338    1.380   .     S
C145   H177    1.082   .     S
C145   N182    1.366   .     A
C145   C15     1.417   1_655 S
C146   H178    1.082   .     S
C146   N181    1.366   .     A
C147   N181    1.367   .     A
C147   H179    1.082   .     S
C148   H180    1.082   .     S
C148   N182    1.367   .     A
C148   C14     1.417   1_655 S
C149   O187    1.293   .     A
C149   C151    1.457   .     S
C149   O189    1.294   .     A
C150   O188    1.294   .     A
C150   C152    1.457   .     S
C150   O190    1.293   .     A
C151   C155    1.399   .     A
C151   C157    1.394   .     A
C152   C156    1.400   .     A
C152   C158    1.391   .     A
C153   C161    1.404   .     A
C153   C155    1.393   .     A
C153   H171    1.083   .     S
C154   H172    1.084   .     S
C154   C156    1.396   .     A
C154   C162    1.405   .     A
C155   H170    1.083   .     S
C156   H169    1.083   .     S
C157   H168    1.077   .     S
C157   C159    1.395   .     A
C158   H167    1.079   .     S
C158   C160    1.393   .     A
C159   C161    1.419   .     A
C159   C163    1.418   .     A
C160   C162    1.416   .     A
C160   C164    1.415   .     A
C161   C731    1.391   .     S
C162   C732    1.392   1_554 S
C163   C758    1.413   .     S
C164   C757    1.413   1_554 S
N181   Zn191   2.012   .     S
N182   Zn192   2.012   .     S
O183   Zn191   1.985   .     S
O184   Zn192   1.985   .     S
O185   Zn192   1.987   .     S
O186   Zn191   1.987   .     S
O187   Zn191   1.965   .     S
O188   Zn192   1.965   .     S
O189   Zn192   1.915   .     S
O190   Zn191   1.915   .     S
C193   H194    1.084   .     S
C193   O195    1.221   .     D
C196   H197    1.084   .     S
C196   O198    1.221   .     D
C199   O249    1.281   .     A
C199   C210    1.410   .     S
C199   O251    1.280   .     A
C200   O250    1.281   .     A
C200   C209    1.409   .     S
C200   O252    1.280   .     A
C201   C203    1.388   .     A
C201   C230    1.417   .     A
C201   H239    1.079   .     S
C202   C204    1.391   .     A
C202   H240    1.079   .     S
C202   C229    1.418   .     A
C203   H231    1.084   .     S
C203   C821    1.391   1_554 S
C204   H232    1.084   .     S
C204   C822    1.392   .     S
C205   H241    1.085   .     S
C205   C210    1.395   .     A
C205   C405    1.380   .     S
C206   H242    1.086   .     S
C206   C209    1.394   .     A
C207   C209    1.406   .     A
C207   C259    1.490   .     S
C208   C210    1.406   .     A
C208   C262    1.489   .     S
C208   C404    1.380   .     S
C211   H243    1.082   .     S
C211   N248    1.366   .     A
C211   C279    1.417   .     S
C212   H244    1.082   .     S
C212   N247    1.366   .     A
C212   C346    1.417   1_455 S
C213   N247    1.367   .     A
C213   H245    1.082   .     S
C213   C343    1.417   1_455 S
C214   H246    1.082   .     S
C214   N248    1.367   .     A
C214   C278    1.417   .     S
C215   O253    1.293   .     A
C215   C217    1.457   .     S
C215   O255    1.294   .     A
C216   O254    1.294   .     A
C216   C218    1.457   .     S
C216   O256    1.293   .     A
C217   C221    1.399   .     A
C217   C223    1.394   .     A
C218   C222    1.400   .     A
C218   C224    1.391   .     A
C219   C227    1.404   .     A
C219   C221    1.393   .     A
C219   H237    1.083   .     S
C220   H238    1.084   .     S
C220   C222    1.396   .     A
C220   C228    1.405   .     A
C221   H236    1.083   .     S
C222   H235    1.083   .     S
C223   H234    1.077   .     S
C223   C225    1.395   .     A
C224   H233    1.079   .     S
C224   C226    1.393   .     A
C225   C227    1.419   .     A
C225   C229    1.418   .     A
C226   C228    1.416   .     A
C226   C230    1.415   .     A
C227   C797    1.391   .     S
C228   C798    1.392   1_554 S
C229   C824    1.413   .     S
C230   C823    1.413   1_554 S
N247   Zn257   2.012   .     S
N248   Zn258   2.012   .     S
O249   Zn257   1.985   .     S
O250   Zn258   1.985   .     S
O251   Zn258   1.987   .     S
O252   Zn257   1.987   .     S
O253   Zn257   1.965   .     S
O254   Zn258   1.965   .     S
O255   Zn258   1.915   .     S
O256   Zn257   1.915   .     S
C259   H260    1.084   .     S
C259   O261    1.221   .     D
C262   H263    1.084   .     S
C262   O264    1.221   .     D
C265   O315    1.281   .     A
C265   C276    1.410   .     S
C265   O317    1.280   .     A
C266   O316    1.281   .     A
C266   C275    1.409   .     S
C266   O318    1.280   .     A
C267   C269    1.388   .     A
C267   C296    1.417   .     A
C267   H305    1.079   .     S
C268   C270    1.391   .     A
C268   H306    1.079   .     S
C268   C295    1.418   .     A
C269   H297    1.084   .     S
C269   C887    1.391   1_554 S
C270   H298    1.084   .     S
C270   C888    1.392   .     S
C271   H307    1.085   .     S
C271   C276    1.395   .     A
C271   C471    1.380   .     S
C272   H308    1.086   .     S
C272   C275    1.394   .     A
C273   C275    1.406   .     A
C273   C325    1.490   .     S
C274   C276    1.406   .     A
C274   C328    1.489   .     S
C274   C470    1.380   .     S
C277   H309    1.082   .     S
C277   N314    1.366   .     A
C277   C345    1.417   .     S
C278   H310    1.082   .     S
C278   N313    1.366   .     A
C279   N313    1.367   .     A
C279   H311    1.082   .     S
C280   H312    1.082   .     S
C280   N314    1.367   .     A
C280   C344    1.417   .     S
C281   O319    1.293   .     A
C281   C283    1.457   .     S
C281   O321    1.294   .     A
C282   O320    1.294   .     A
C282   C284    1.457   .     S
C282   O322    1.293   .     A
C283   C287    1.399   .     A
C283   C289    1.394   .     A
C284   C288    1.400   .     A
C284   C290    1.391   .     A
C285   C293    1.404   .     A
C285   C287    1.393   .     A
C285   H303    1.083   .     S
C286   H304    1.084   .     S
C286   C288    1.396   .     A
C286   C294    1.405   .     A
C287   H302    1.083   .     S
C288   H301    1.083   .     S
C289   H300    1.077   .     S
C289   C291    1.395   .     A
C290   H299    1.079   .     S
C290   C292    1.393   .     A
C291   C293    1.419   .     A
C291   C295    1.418   .     A
C292   C294    1.416   .     A
C292   C296    1.415   .     A
C293   C863    1.391   .     S
C294   C864    1.392   1_554 S
C295   C890    1.413   .     S
C296   C889    1.413   1_554 S
N313   Zn323   2.012   .     S
N314   Zn324   2.012   .     S
O315   Zn323   1.985   .     S
O316   Zn324   1.985   .     S
O317   Zn324   1.987   .     S
O318   Zn323   1.987   .     S
O319   Zn323   1.965   .     S
O320   Zn324   1.965   .     S
O321   Zn324   1.915   .     S
O322   Zn323   1.915   .     S
C325   H326    1.084   .     S
C325   O327    1.221   .     D
C328   H329    1.084   .     S
C328   O330    1.221   .     D
C331   O381    1.281   .     A
C331   C342    1.410   .     S
C331   O383    1.280   .     A
C332   O382    1.281   .     A
C332   C341    1.409   .     S
C332   O384    1.280   .     A
C333   C335    1.388   .     A
C333   C362    1.417   .     A
C333   H371    1.079   .     S
C334   C336    1.391   .     A
C334   H372    1.079   .     S
C334   C361    1.418   .     A
C335   H363    1.084   .     S
C335   C953    1.391   1_554 S
C336   H364    1.084   .     S
C336   C954    1.392   .     S
C337   H373    1.085   .     S
C337   C342    1.395   .     A
C337   C537    1.380   .     S
C338   H374    1.086   .     S
C338   C341    1.394   .     A
C339   C341    1.406   .     A
C339   C391    1.490   .     S
C340   C342    1.406   .     A
C340   C394    1.489   .     S
C340   C536    1.380   .     S
C343   H375    1.082   .     S
C343   N380    1.366   .     A
C343   C213    1.417   1_655 S
C344   H376    1.082   .     S
C344   N379    1.366   .     A
C345   N379    1.367   .     A
C345   H377    1.082   .     S
C346   H378    1.082   .     S
C346   N380    1.367   .     A
C346   C212    1.417   1_655 S
C347   O385    1.293   .     A
C347   C349    1.457   .     S
C347   O387    1.294   .     A
C348   O386    1.294   .     A
C348   C350    1.457   .     S
C348   O388    1.293   .     A
C349   C353    1.399   .     A
C349   C355    1.394   .     A
C350   C354    1.400   .     A
C350   C356    1.391   .     A
C351   C359    1.404   .     A
C351   C353    1.393   .     A
C351   H369    1.083   .     S
C352   H370    1.084   .     S
C352   C354    1.396   .     A
C352   C360    1.405   .     A
C353   H368    1.083   .     S
C354   H367    1.083   .     S
C355   H366    1.077   .     S
C355   C357    1.395   .     A
C356   H365    1.079   .     S
C356   C358    1.393   .     A
C357   C359    1.419   .     A
C357   C361    1.418   .     A
C358   C360    1.416   .     A
C358   C362    1.415   .     A
C359   C929    1.391   .     S
C360   C930    1.392   1_554 S
C361   C956    1.413   .     S
C362   C955    1.413   1_554 S
N379   Zn389   2.012   .     S
N380   Zn390   2.012   .     S
O381   Zn389   1.985   .     S
O382   Zn390   1.985   .     S
O383   Zn390   1.987   .     S
O384   Zn389   1.987   .     S
O385   Zn389   1.965   .     S
O386   Zn390   1.965   .     S
O387   Zn390   1.915   .     S
O388   Zn389   1.915   .     S
C391   H392    1.084   .     S
C391   O393    1.221   .     D
C394   H395    1.084   .     S
C394   O396    1.221   .     D
C397   O447    1.281   .     A
C397   C408    1.410   .     S
C397   O449    1.280   .     A
C398   O448    1.281   .     A
C398   C407    1.409   .     S
C398   O450    1.280   .     A
C399   C401    1.388   .     A
C399   C428    1.417   .     A
C399   H437    1.079   .     S
C400   C402    1.391   .     A
C400   H438    1.079   .     S
C400   C427    1.418   .     A
C401   H429    1.084   .     S
C401   C1019   1.391   1_554 S
C402   H430    1.084   .     S
C402   C1020   1.392   .     S
C403   H439    1.085   .     S
C403   C408    1.395   .     A
C403   C9      1.380   1_565 S
C404   H440    1.086   .     S
C404   C407    1.394   .     A
C405   C407    1.406   .     A
C405   C457    1.490   .     S
C406   C408    1.406   .     A
C406   C460    1.489   .     S
C406   C8      1.380   1_565 S
C409   H441    1.082   .     S
C409   N446    1.366   .     A
C409   C477    1.417   .     S
C410   H442    1.082   .     S
C410   N445    1.366   .     A
C410   C544    1.417   1_455 S
C411   N445    1.367   .     A
C411   H443    1.082   .     S
C411   C541    1.417   1_455 S
C412   H444    1.082   .     S
C412   N446    1.367   .     A
C412   C476    1.417   .     S
C413   O451    1.293   .     A
C413   C415    1.457   .     S
C413   O453    1.294   .     A
C414   O452    1.294   .     A
C414   C416    1.457   .     S
C414   O454    1.293   .     A
C415   C419    1.399   .     A
C415   C421    1.394   .     A
C416   C420    1.400   .     A
C416   C422    1.391   .     A
C417   C425    1.404   .     A
C417   C419    1.393   .     A
C417   H435    1.083   .     S
C418   H436    1.084   .     S
C418   C420    1.396   .     A
C418   C426    1.405   .     A
C419   H434    1.083   .     S
C420   H433    1.083   .     S
C421   H432    1.077   .     S
C421   C423    1.395   .     A
C422   H431    1.079   .     S
C422   C424    1.393   .     A
C423   C425    1.419   .     A
C423   C427    1.418   .     A
C424   C426    1.416   .     A
C424   C428    1.415   .     A
C425   C995    1.391   .     S
C426   C996    1.392   1_554 S
C427   C1022   1.413   .     S
C428   C1021   1.413   1_554 S
N445   Zn455   2.012   .     S
N446   Zn456   2.012   .     S
O447   Zn455   1.985   .     S
O448   Zn456   1.985   .     S
O449   Zn456   1.987   .     S
O450   Zn455   1.987   .     S
O451   Zn455   1.965   .     S
O452   Zn456   1.965   .     S
O453   Zn456   1.915   .     S
O454   Zn455   1.915   .     S
C457   H458    1.084   .     S
C457   O459    1.221   .     D
C460   H461    1.084   .     S
C460   O462    1.221   .     D
C463   O513    1.281   .     A
C463   C474    1.410   .     S
C463   O515    1.280   .     A
C464   O514    1.281   .     A
C464   C473    1.409   .     S
C464   O516    1.280   .     A
C465   C467    1.388   .     A
C465   C494    1.417   .     A
C465   H503    1.079   .     S
C466   C468    1.391   .     A
C466   H504    1.079   .     S
C466   C493    1.418   .     A
C467   H495    1.084   .     S
C467   C1085   1.391   1_554 S
C468   H496    1.084   .     S
C468   C1086   1.392   .     S
C469   H505    1.085   .     S
C469   C474    1.395   .     A
C469   C75     1.380   1_565 S
C470   H506    1.086   .     S
C470   C473    1.394   .     A
C471   C473    1.406   .     A
C471   C523    1.490   .     S
C472   C474    1.406   .     A
C472   C526    1.489   .     S
C472   C74     1.380   1_565 S
C475   H507    1.082   .     S
C475   N512    1.366   .     A
C475   C543    1.417   .     S
C476   H508    1.082   .     S
C476   N511    1.366   .     A
C477   N511    1.367   .     A
C477   H509    1.082   .     S
C478   H510    1.082   .     S
C478   N512    1.367   .     A
C478   C542    1.417   .     S
C479   O517    1.293   .     A
C479   C481    1.457   .     S
C479   O519    1.294   .     A
C480   O518    1.294   .     A
C480   C482    1.457   .     S
C480   O520    1.293   .     A
C481   C485    1.399   .     A
C481   C487    1.394   .     A
C482   C486    1.400   .     A
C482   C488    1.391   .     A
C483   C491    1.404   .     A
C483   C485    1.393   .     A
C483   H501    1.083   .     S
C484   H502    1.084   .     S
C484   C486    1.396   .     A
C484   C492    1.405   .     A
C485   H500    1.083   .     S
C486   H499    1.083   .     S
C487   H498    1.077   .     S
C487   C489    1.395   .     A
C488   H497    1.079   .     S
C488   C490    1.393   .     A
C489   C491    1.419   .     A
C489   C493    1.418   .     A
C490   C492    1.416   .     A
C490   C494    1.415   .     A
C491   C1061   1.391   .     S
C492   C1062   1.392   1_554 S
C493   C1088   1.413   .     S
C494   C1087   1.413   1_554 S
N511   Zn521   2.012   .     S
N512   Zn522   2.012   .     S
O513   Zn521   1.985   .     S
O514   Zn522   1.985   .     S
O515   Zn522   1.987   .     S
O516   Zn521   1.987   .     S
O517   Zn521   1.965   .     S
O518   Zn522   1.965   .     S
O519   Zn522   1.915   .     S
O520   Zn521   1.915   .     S
C523   H524    1.084   .     S
C523   O525    1.221   .     D
C526   H527    1.084   .     S
C526   O528    1.221   .     D
C529   O579    1.281   .     A
C529   C540    1.410   .     S
C529   O581    1.280   .     A
C530   O580    1.281   .     A
C530   C539    1.409   .     S
C530   O582    1.280   .     A
C531   C533    1.388   .     A
C531   C560    1.417   .     A
C531   H569    1.079   .     S
C532   C534    1.391   .     A
C532   H570    1.079   .     S
C532   C559    1.418   .     A
C533   H561    1.084   .     S
C533   C1151   1.391   1_554 S
C534   H562    1.084   .     S
C534   C1152   1.392   .     S
C535   H571    1.085   .     S
C535   C540    1.395   .     A
C535   C141    1.380   1_565 S
C536   H572    1.086   .     S
C536   C539    1.394   .     A
C537   C539    1.406   .     A
C537   C589    1.490   .     S
C538   C540    1.406   .     A
C538   C592    1.489   .     S
C538   C140    1.380   1_565 S
C541   H573    1.082   .     S
C541   N578    1.366   .     A
C541   C411    1.417   1_655 S
C542   H574    1.082   .     S
C542   N577    1.366   .     A
C543   N577    1.367   .     A
C543   H575    1.082   .     S
C544   H576    1.082   .     S
C544   N578    1.367   .     A
C544   C410    1.417   1_655 S
C545   O583    1.293   .     A
C545   C547    1.457   .     S
C545   O585    1.294   .     A
C546   O584    1.294   .     A
C546   C548    1.457   .     S
C546   O586    1.293   .     A
C547   C551    1.399   .     A
C547   C553    1.394   .     A
C548   C552    1.400   .     A
C548   C554    1.391   .     A
C549   C557    1.404   .     A
C549   C551    1.393   .     A
C549   H567    1.083   .     S
C550   H568    1.084   .     S
C550   C552    1.396   .     A
C550   C558    1.405   .     A
C551   H566    1.083   .     S
C552   H565    1.083   .     S
C553   H564    1.077   .     S
C553   C555    1.395   .     A
C554   H563    1.079   .     S
C554   C556    1.393   .     A
C555   C557    1.419   .     A
C555   C559    1.418   .     A
C556   C558    1.416   .     A
C556   C560    1.415   .     A
C557   C1127   1.391   .     S
C558   C1128   1.392   1_554 S
C559   C1154   1.413   .     S
C560   C1153   1.413   1_554 S
N577   Zn587   2.012   .     S
N578   Zn588   2.012   .     S
O579   Zn587   1.985   .     S
O580   Zn588   1.985   .     S
O581   Zn588   1.987   .     S
O582   Zn587   1.987   .     S
O583   Zn587   1.965   .     S
O584   Zn588   1.965   .     S
O585   Zn588   1.915   .     S
O586   Zn587   1.915   .     S
C589   H590    1.084   .     S
C589   O591    1.221   .     D
C592   H593    1.084   .     S
C592   O594    1.221   .     D
C595   O645    1.281   .     A
C595   C606    1.410   .     S
C595   O647    1.280   .     A
C596   O646    1.281   .     A
C596   C605    1.409   .     S
C596   O648    1.280   .     A
C597   C599    1.388   .     A
C597   C626    1.417   .     A
C597   H635    1.079   .     S
C598   C600    1.391   .     A
C598   H636    1.079   .     S
C598   C625    1.418   .     A
C599   H627    1.084   .     S
C600   H628    1.084   .     S
C600   C30     1.392   1_556 S
C601   H637    1.085   .     S
C601   C606    1.395   .     A
C601   C801    1.380   .     S
C602   H638    1.086   .     S
C602   C605    1.394   .     A
C602   C1000   1.380   1_545 S
C603   C605    1.406   .     A
C603   C655    1.490   .     S
C603   C997    1.380   1_545 S
C604   C606    1.406   .     A
C604   C658    1.489   .     S
C604   C800    1.380   .     S
C607   H639    1.082   .     S
C607   N644    1.366   .     A
C607   C675    1.417   .     S
C608   H640    1.082   .     S
C608   N643    1.366   .     A
C608   C742    1.417   1_455 S
C609   N643    1.367   .     A
C609   H641    1.082   .     S
C609   C739    1.417   1_455 S
C610   H642    1.082   .     S
C610   N644    1.367   .     A
C610   C674    1.417   .     S
C611   O649    1.293   .     A
C611   C613    1.457   .     S
C611   O651    1.294   .     A
C612   O650    1.294   .     A
C612   C614    1.457   .     S
C612   O652    1.293   .     A
C613   C617    1.399   .     A
C613   C619    1.394   .     A
C614   C618    1.400   .     A
C614   C620    1.391   .     A
C615   C623    1.404   .     A
C615   C617    1.393   .     A
C615   H633    1.083   .     S
C616   H634    1.084   .     S
C616   C618    1.396   .     A
C616   C624    1.405   .     A
C617   H632    1.083   .     S
C618   H631    1.083   .     S
C619   H630    1.077   .     S
C619   C621    1.395   .     A
C620   H629    1.079   .     S
C620   C622    1.393   .     A
C621   C623    1.419   .     A
C621   C625    1.418   .     A
C622   C624    1.416   .     A
C622   C626    1.415   .     A
C623   C5      1.391   1_556 S
C625   C32     1.413   1_556 S
N643   Zn653   2.012   .     S
N644   Zn654   2.012   .     S
O645   Zn653   1.985   .     S
O646   Zn654   1.985   .     S
O647   Zn654   1.987   .     S
O648   Zn653   1.987   .     S
O649   Zn653   1.965   .     S
O650   Zn654   1.965   .     S
O651   Zn654   1.915   .     S
O652   Zn653   1.915   .     S
C655   H656    1.084   .     S
C655   O657    1.221   .     D
C658   H659    1.084   .     S
C658   O660    1.221   .     D
C661   O711    1.281   .     A
C661   C672    1.410   .     S
C661   O713    1.280   .     A
C662   O712    1.281   .     A
C662   C671    1.409   .     S
C662   O714    1.280   .     A
C663   C665    1.388   .     A
C663   C692    1.417   .     A
C663   H701    1.079   .     S
C664   C666    1.391   .     A
C664   H702    1.079   .     S
C664   C691    1.418   .     A
C665   H693    1.084   .     S
C666   H694    1.084   .     S
C666   C96     1.392   1_556 S
C667   H703    1.085   .     S
C667   C672    1.395   .     A
C667   C867    1.380   .     S
C668   H704    1.086   .     S
C668   C671    1.394   .     A
C668   C1066   1.380   1_545 S
C669   C671    1.406   .     A
C669   C721    1.490   .     S
C669   C1063   1.380   1_545 S
C670   C672    1.406   .     A
C670   C724    1.489   .     S
C670   C866    1.380   .     S
C673   H705    1.082   .     S
C673   N710    1.366   .     A
C673   C741    1.417   .     S
C674   H706    1.082   .     S
C674   N709    1.366   .     A
C675   N709    1.367   .     A
C675   H707    1.082   .     S
C676   H708    1.082   .     S
C676   N710    1.367   .     A
C676   C740    1.417   .     S
C677   O715    1.293   .     A
C677   C679    1.457   .     S
C677   O717    1.294   .     A
C678   O716    1.294   .     A
C678   C680    1.457   .     S
C678   O718    1.293   .     A
C679   C683    1.399   .     A
C679   C685    1.394   .     A
C680   C684    1.400   .     A
C680   C686    1.391   .     A
C681   C689    1.404   .     A
C681   C683    1.393   .     A
C681   H699    1.083   .     S
C682   H700    1.084   .     S
C682   C684    1.396   .     A
C682   C690    1.405   .     A
C683   H698    1.083   .     S
C684   H697    1.083   .     S
C685   H696    1.077   .     S
C685   C687    1.395   .     A
C686   H695    1.079   .     S
C686   C688    1.393   .     A
C687   C689    1.419   .     A
C687   C691    1.418   .     A
C688   C690    1.416   .     A
C688   C692    1.415   .     A
C689   C71     1.391   1_556 S
C691   C98     1.413   1_556 S
N709   Zn719   2.012   .     S
N710   Zn720   2.012   .     S
O711   Zn719   1.985   .     S
O712   Zn720   1.985   .     S
O713   Zn720   1.987   .     S
O714   Zn719   1.987   .     S
O715   Zn719   1.965   .     S
O716   Zn720   1.965   .     S
O717   Zn720   1.915   .     S
O718   Zn719   1.915   .     S
C721   H722    1.084   .     S
C721   O723    1.221   .     D
C724   H725    1.084   .     S
C724   O726    1.221   .     D
C727   O777    1.281   .     A
C727   C738    1.410   .     S
C727   O779    1.280   .     A
C728   O778    1.281   .     A
C728   C737    1.409   .     S
C728   O780    1.280   .     A
C729   C731    1.388   .     A
C729   C758    1.417   .     A
C729   H767    1.079   .     S
C730   C732    1.391   .     A
C730   H768    1.079   .     S
C730   C757    1.418   .     A
C731   H759    1.084   .     S
C732   H760    1.084   .     S
C732   C162    1.392   1_556 S
C733   H769    1.085   .     S
C733   C738    1.395   .     A
C733   C933    1.380   .     S
C734   H770    1.086   .     S
C734   C737    1.394   .     A
C734   C1132   1.380   1_545 S
C735   C737    1.406   .     A
C735   C787    1.490   .     S
C735   C1129   1.380   1_545 S
C736   C738    1.406   .     A
C736   C790    1.489   .     S
C736   C932    1.380   .     S
C739   H771    1.082   .     S
C739   N776    1.366   .     A
C739   C609    1.417   1_655 S
C740   H772    1.082   .     S
C740   N775    1.366   .     A
C741   N775    1.367   .     A
C741   H773    1.082   .     S
C742   H774    1.082   .     S
C742   N776    1.367   .     A
C742   C608    1.417   1_655 S
C743   O781    1.293   .     A
C743   C745    1.457   .     S
C743   O783    1.294   .     A
C744   O782    1.294   .     A
C744   C746    1.457   .     S
C744   O784    1.293   .     A
C745   C749    1.399   .     A
C745   C751    1.394   .     A
C746   C750    1.400   .     A
C746   C752    1.391   .     A
C747   C755    1.404   .     A
C747   C749    1.393   .     A
C747   H765    1.083   .     S
C748   H766    1.084   .     S
C748   C750    1.396   .     A
C748   C756    1.405   .     A
C749   H764    1.083   .     S
C750   H763    1.083   .     S
C751   H762    1.077   .     S
C751   C753    1.395   .     A
C752   H761    1.079   .     S
C752   C754    1.393   .     A
C753   C755    1.419   .     A
C753   C757    1.418   .     A
C754   C756    1.416   .     A
C754   C758    1.415   .     A
C755   C137    1.391   1_556 S
C757   C164    1.413   1_556 S
N775   Zn785   2.012   .     S
N776   Zn786   2.012   .     S
O777   Zn785   1.985   .     S
O778   Zn786   1.985   .     S
O779   Zn786   1.987   .     S
O780   Zn785   1.987   .     S
O781   Zn785   1.965   .     S
O782   Zn786   1.965   .     S
O783   Zn786   1.915   .     S
O784   Zn785   1.915   .     S
C787   H788    1.084   .     S
C787   O789    1.221   .     D
C790   H791    1.084   .     S
C790   O792    1.221   .     D
C793   O843    1.281   .     A
C793   C804    1.410   .     S
C793   O845    1.280   .     A
C794   O844    1.281   .     A
C794   C803    1.409   .     S
C794   O846    1.280   .     A
C795   C797    1.388   .     A
C795   C824    1.417   .     A
C795   H833    1.079   .     S
C796   C798    1.391   .     A
C796   H834    1.079   .     S
C796   C823    1.418   .     A
C797   H825    1.084   .     S
C798   H826    1.084   .     S
C798   C228    1.392   1_556 S
C799   H835    1.085   .     S
C799   C804    1.395   .     A
C799   C999    1.380   .     S
C800   H836    1.086   .     S
C800   C803    1.394   .     A
C801   C803    1.406   .     A
C801   C853    1.490   .     S
C802   C804    1.406   .     A
C802   C856    1.489   .     S
C802   C998    1.380   .     S
C805   H837    1.082   .     S
C805   N842    1.366   .     A
C805   C873    1.417   .     S
C806   H838    1.082   .     S
C806   N841    1.366   .     A
C806   C940    1.417   1_455 S
C807   N841    1.367   .     A
C807   H839    1.082   .     S
C807   C937    1.417   1_455 S
C808   H840    1.082   .     S
C808   N842    1.367   .     A
C808   C872    1.417   .     S
C809   O847    1.293   .     A
C809   C811    1.457   .     S
C809   O849    1.294   .     A
C810   O848    1.294   .     A
C810   C812    1.457   .     S
C810   O850    1.293   .     A
C811   C815    1.399   .     A
C811   C817    1.394   .     A
C812   C816    1.400   .     A
C812   C818    1.391   .     A
C813   C821    1.404   .     A
C813   C815    1.393   .     A
C813   H831    1.083   .     S
C814   H832    1.084   .     S
C814   C816    1.396   .     A
C814   C822    1.405   .     A
C815   H830    1.083   .     S
C816   H829    1.083   .     S
C817   H828    1.077   .     S
C817   C819    1.395   .     A
C818   H827    1.079   .     S
C818   C820    1.393   .     A
C819   C821    1.419   .     A
C819   C823    1.418   .     A
C820   C822    1.416   .     A
C820   C824    1.415   .     A
C821   C203    1.391   1_556 S
C823   C230    1.413   1_556 S
N841   Zn851   2.012   .     S
N842   Zn852   2.012   .     S
O843   Zn851   1.985   .     S
O844   Zn852   1.985   .     S
O845   Zn852   1.987   .     S
O846   Zn851   1.987   .     S
O847   Zn851   1.965   .     S
O848   Zn852   1.965   .     S
O849   Zn852   1.915   .     S
O850   Zn851   1.915   .     S
C853   H854    1.084   .     S
C853   O855    1.221   .     D
C856   H857    1.084   .     S
C856   O858    1.221   .     D
C859   O909    1.281   .     A
C859   C870    1.410   .     S
C859   O911    1.280   .     A
C860   O910    1.281   .     A
C860   C869    1.409   .     S
C860   O912    1.280   .     A
C861   C863    1.388   .     A
C861   C890    1.417   .     A
C861   H899    1.079   .     S
C862   C864    1.391   .     A
C862   H900    1.079   .     S
C862   C889    1.418   .     A
C863   H891    1.084   .     S
C864   H892    1.084   .     S
C864   C294    1.392   1_556 S
C865   H901    1.085   .     S
C865   C870    1.395   .     A
C865   C1065   1.380   .     S
C866   H902    1.086   .     S
C866   C869    1.394   .     A
C867   C869    1.406   .     A
C867   C919    1.490   .     S
C868   C870    1.406   .     A
C868   C922    1.489   .     S
C868   C1064   1.380   .     S
C871   H903    1.082   .     S
C871   N908    1.366   .     A
C871   C939    1.417   .     S
C872   H904    1.082   .     S
C872   N907    1.366   .     A
C873   N907    1.367   .     A
C873   H905    1.082   .     S
C874   H906    1.082   .     S
C874   N908    1.367   .     A
C874   C938    1.417   .     S
C875   O913    1.293   .     A
C875   C877    1.457   .     S
C875   O915    1.294   .     A
C876   O914    1.294   .     A
C876   C878    1.457   .     S
C876   O916    1.293   .     A
C877   C881    1.399   .     A
C877   C883    1.394   .     A
C878   C882    1.400   .     A
C878   C884    1.391   .     A
C879   C887    1.404   .     A
C879   C881    1.393   .     A
C879   H897    1.083   .     S
C880   H898    1.084   .     S
C880   C882    1.396   .     A
C880   C888    1.405   .     A
C881   H896    1.083   .     S
C882   H895    1.083   .     S
C883   H894    1.077   .     S
C883   C885    1.395   .     A
C884   H893    1.079   .     S
C884   C886    1.393   .     A
C885   C887    1.419   .     A
C885   C889    1.418   .     A
C886   C888    1.416   .     A
C886   C890    1.415   .     A
C887   C269    1.391   1_556 S
C889   C296    1.413   1_556 S
N907   Zn917   2.012   .     S
N908   Zn918   2.012   .     S
O909   Zn917   1.985   .     S
O910   Zn918   1.985   .     S
O911   Zn918   1.987   .     S
O912   Zn917   1.987   .     S
O913   Zn917   1.965   .     S
O914   Zn918   1.965   .     S
O915   Zn918   1.915   .     S
O916   Zn917   1.915   .     S
C919   H920    1.084   .     S
C919   O921    1.221   .     D
C922   H923    1.084   .     S
C922   O924    1.221   .     D
C925   O975    1.281   .     A
C925   C936    1.410   .     S
C925   O977    1.280   .     A
C926   O976    1.281   .     A
C926   C935    1.409   .     S
C926   O978    1.280   .     A
C927   C929    1.388   .     A
C927   C956    1.417   .     A
C927   H965    1.079   .     S
C928   C930    1.391   .     A
C928   H966    1.079   .     S
C928   C955    1.418   .     A
C929   H957    1.084   .     S
C930   H958    1.084   .     S
C930   C360    1.392   1_556 S
C931   H967    1.085   .     S
C931   C936    1.395   .     A
C931   C1131   1.380   .     S
C932   H968    1.086   .     S
C932   C935    1.394   .     A
C933   C935    1.406   .     A
C933   C985    1.490   .     S
C934   C936    1.406   .     A
C934   C988    1.489   .     S
C934   C1130   1.380   .     S
C937   H969    1.082   .     S
C937   N974    1.366   .     A
C937   C807    1.417   1_655 S
C938   H970    1.082   .     S
C938   N973    1.366   .     A
C939   N973    1.367   .     A
C939   H971    1.082   .     S
C940   H972    1.082   .     S
C940   N974    1.367   .     A
C940   C806    1.417   1_655 S
C941   O979    1.293   .     A
C941   C943    1.457   .     S
C941   O981    1.294   .     A
C942   O980    1.294   .     A
C942   C944    1.457   .     S
C942   O982    1.293   .     A
C943   C947    1.399   .     A
C943   C949    1.394   .     A
C944   C948    1.400   .     A
C944   C950    1.391   .     A
C945   C953    1.404   .     A
C945   C947    1.393   .     A
C945   H963    1.083   .     S
C946   H964    1.084   .     S
C946   C948    1.396   .     A
C946   C954    1.405   .     A
C947   H962    1.083   .     S
C948   H961    1.083   .     S
C949   H960    1.077   .     S
C949   C951    1.395   .     A
C950   H959    1.079   .     S
C950   C952    1.393   .     A
C951   C953    1.419   .     A
C951   C955    1.418   .     A
C952   C954    1.416   .     A
C952   C956    1.415   .     A
C953   C335    1.391   1_556 S
C955   C362    1.413   1_556 S
N973   Zn983   2.012   .     S
N974   Zn984   2.012   .     S
O975   Zn983   1.985   .     S
O976   Zn984   1.985   .     S
O977   Zn984   1.987   .     S
O978   Zn983   1.987   .     S
O979   Zn983   1.965   .     S
O980   Zn984   1.965   .     S
O981   Zn984   1.915   .     S
O982   Zn983   1.915   .     S
C985   H986    1.084   .     S
C985   O987    1.221   .     D
C988   H989    1.084   .     S
C988   O990    1.221   .     D
C991   O1041   1.281   .     A
C991   C1002   1.410   .     S
C991   O1043   1.280   .     A
C992   O1042   1.281   .     A
C992   C1001   1.409   .     S
C992   O1044   1.280   .     A
C993   C995    1.388   .     A
C993   C1022   1.417   .     A
C993   H1031   1.079   .     S
C994   C996    1.391   .     A
C994   H1032   1.079   .     S
C994   C1021   1.418   .     A
C995   H1023   1.084   .     S
C996   H1024   1.084   .     S
C996   C426    1.392   1_556 S
C997   H1033   1.085   .     S
C997   C1002   1.395   .     A
C997   C603    1.380   1_565 S
C998   H1034   1.086   .     S
C998   C1001   1.394   .     A
C999   C1001   1.406   .     A
C999   C1051   1.490   .     S
C1000  C1002   1.406   .     A
C1000  C1054   1.489   .     S
C1000  C602    1.380   1_565 S
C1003  H1035   1.082   .     S
C1003  N1040   1.366   .     A
C1003  C1071   1.417   .     S
C1004  H1036   1.082   .     S
C1004  N1039   1.366   .     A
C1004  C1138   1.417   1_455 S
C1005  N1039   1.367   .     A
C1005  H1037   1.082   .     S
C1005  C1135   1.417   1_455 S
C1006  H1038   1.082   .     S
C1006  N1040   1.367   .     A
C1006  C1070   1.417   .     S
C1007  O1045   1.293   .     A
C1007  C1009   1.457   .     S
C1007  O1047   1.294   .     A
C1008  O1046   1.294   .     A
C1008  C1010   1.457   .     S
C1008  O1048   1.293   .     A
C1009  C1013   1.399   .     A
C1009  C1015   1.394   .     A
C1010  C1014   1.400   .     A
C1010  C1016   1.391   .     A
C1011  C1019   1.404   .     A
C1011  C1013   1.393   .     A
C1011  H1029   1.083   .     S
C1012  H1030   1.084   .     S
C1012  C1014   1.396   .     A
C1012  C1020   1.405   .     A
C1013  H1028   1.083   .     S
C1014  H1027   1.083   .     S
C1015  H1026   1.077   .     S
C1015  C1017   1.395   .     A
C1016  H1025   1.079   .     S
C1016  C1018   1.393   .     A
C1017  C1019   1.419   .     A
C1017  C1021   1.418   .     A
C1018  C1020   1.416   .     A
C1018  C1022   1.415   .     A
C1019  C401    1.391   1_556 S
C1021  C428    1.413   1_556 S
N1039  Zn1049  2.012   .     S
N1040  Zn1050  2.012   .     S
O1041  Zn1049  1.985   .     S
O1042  Zn1050  1.985   .     S
O1043  Zn1050  1.987   .     S
O1044  Zn1049  1.987   .     S
O1045  Zn1049  1.965   .     S
O1046  Zn1050  1.965   .     S
O1047  Zn1050  1.915   .     S
O1048  Zn1049  1.915   .     S
C1051  H1052   1.084   .     S
C1051  O1053   1.221   .     D
C1054  H1055   1.084   .     S
C1054  O1056   1.221   .     D
C1057  O1107   1.281   .     A
C1057  C1068   1.410   .     S
C1057  O1109   1.280   .     A
C1058  O1108   1.281   .     A
C1058  C1067   1.409   .     S
C1058  O1110   1.280   .     A
C1059  C1061   1.388   .     A
C1059  C1088   1.417   .     A
C1059  H1097   1.079   .     S
C1060  C1062   1.391   .     A
C1060  H1098   1.079   .     S
C1060  C1087   1.418   .     A
C1061  H1089   1.084   .     S
C1062  H1090   1.084   .     S
C1062  C492    1.392   1_556 S
C1063  H1099   1.085   .     S
C1063  C1068   1.395   .     A
C1063  C669    1.380   1_565 S
C1064  H1100   1.086   .     S
C1064  C1067   1.394   .     A
C1065  C1067   1.406   .     A
C1065  C1117   1.490   .     S
C1066  C1068   1.406   .     A
C1066  C1120   1.489   .     S
C1066  C668    1.380   1_565 S
C1069  H1101   1.082   .     S
C1069  N1106   1.366   .     A
C1069  C1137   1.417   .     S
C1070  H1102   1.082   .     S
C1070  N1105   1.366   .     A
C1071  N1105   1.367   .     A
C1071  H1103   1.082   .     S
C1072  H1104   1.082   .     S
C1072  N1106   1.367   .     A
C1072  C1136   1.417   .     S
C1073  O1111   1.293   .     A
C1073  C1075   1.457   .     S
C1073  O1113   1.294   .     A
C1074  O1112   1.294   .     A
C1074  C1076   1.457   .     S
C1074  O1114   1.293   .     A
C1075  C1079   1.399   .     A
C1075  C1081   1.394   .     A
C1076  C1080   1.400   .     A
C1076  C1082   1.391   .     A
C1077  C1085   1.404   .     A
C1077  C1079   1.393   .     A
C1077  H1095   1.083   .     S
C1078  H1096   1.084   .     S
C1078  C1080   1.396   .     A
C1078  C1086   1.405   .     A
C1079  H1094   1.083   .     S
C1080  H1093   1.083   .     S
C1081  H1092   1.077   .     S
C1081  C1083   1.395   .     A
C1082  H1091   1.079   .     S
C1082  C1084   1.393   .     A
C1083  C1085   1.419   .     A
C1083  C1087   1.418   .     A
C1084  C1086   1.416   .     A
C1084  C1088   1.415   .     A
C1085  C467    1.391   1_556 S
C1087  C494    1.413   1_556 S
N1105  Zn1115  2.012   .     S
N1106  Zn1116  2.012   .     S
O1107  Zn1115  1.985   .     S
O1108  Zn1116  1.985   .     S
O1109  Zn1116  1.987   .     S
O1110  Zn1115  1.987   .     S
O1111  Zn1115  1.965   .     S
O1112  Zn1116  1.965   .     S
O1113  Zn1116  1.915   .     S
O1114  Zn1115  1.915   .     S
C1117  H1118   1.084   .     S
C1117  O1119   1.221   .     D
C1120  H1121   1.084   .     S
C1120  O1122   1.221   .     D
C1123  O1173   1.281   .     A
C1123  C1134   1.410   .     S
C1123  O1175   1.280   .     A
C1124  O1174   1.281   .     A
C1124  C1133   1.409   .     S
C1124  O1176   1.280   .     A
C1125  C1127   1.388   .     A
C1125  C1154   1.417   .     A
C1125  H1163   1.079   .     S
C1126  C1128   1.391   .     A
C1126  H1164   1.079   .     S
C1126  C1153   1.418   .     A
C1127  H1155   1.084   .     S
C1128  H1156   1.084   .     S
C1128  C558    1.392   1_556 S
C1129  H1165   1.085   .     S
C1129  C1134   1.395   .     A
C1129  C735    1.380   1_565 S
C1130  H1166   1.086   .     S
C1130  C1133   1.394   .     A
C1131  C1133   1.406   .     A
C1131  C1183   1.490   .     S
C1132  C1134   1.406   .     A
C1132  C1186   1.489   .     S
C1132  C734    1.380   1_565 S
C1135  H1167   1.082   .     S
C1135  N1172   1.366   .     A
C1135  C1005   1.417   1_655 S
C1136  H1168   1.082   .     S
C1136  N1171   1.366   .     A
C1137  N1171   1.367   .     A
C1137  H1169   1.082   .     S
C1138  H1170   1.082   .     S
C1138  N1172   1.367   .     A
C1138  C1004   1.417   1_655 S
C1139  O1177   1.293   .     A
C1139  C1141   1.457   .     S
C1139  O1179   1.294   .     A
C1140  O1178   1.294   .     A
C1140  C1142   1.457   .     S
C1140  O1180   1.293   .     A
C1141  C1145   1.399   .     A
C1141  C1147   1.394   .     A
C1142  C1146   1.400   .     A
C1142  C1148   1.391   .     A
C1143  C1151   1.404   .     A
C1143  C1145   1.393   .     A
C1143  H1161   1.083   .     S
C1144  H1162   1.084   .     S
C1144  C1146   1.396   .     A
C1144  C1152   1.405   .     A
C1145  H1160   1.083   .     S
C1146  H1159   1.083   .     S
C1147  H1158   1.077   .     S
C1147  C1149   1.395   .     A
C1148  H1157   1.079   .     S
C1148  C1150   1.393   .     A
C1149  C1151   1.419   .     A
C1149  C1153   1.418   .     A
C1150  C1152   1.416   .     A
C1150  C1154   1.415   .     A
C1151  C533    1.391   1_556 S
C1153  C560    1.413   1_556 S
N1171  Zn1181  2.012   .     S
N1172  Zn1182  2.012   .     S
O1173  Zn1181  1.985   .     S
O1174  Zn1182  1.985   .     S
O1175  Zn1182  1.987   .     S
O1176  Zn1181  1.987   .     S
O1177  Zn1181  1.965   .     S
O1178  Zn1182  1.965   .     S
O1179  Zn1182  1.915   .     S
O1180  Zn1181  1.915   .     S
C1183  H1184   1.084   .     S
C1183  O1185   1.221   .     D
C1186  H1187   1.084   .     S
C1186  O1188   1.221   .     D
