data_str_m3_o1_o18_pcu_sym.35
_audit_creation_date              2020-01-03
_audit_creation_method            'Materials Studio'
_symmetry_space_group_name_H-M    'P1'
_symmetry_Int_Tables_number       1
_symmetry_cell_setting            triclinic
loop_
_symmetry_equiv_pos_as_xyz
  x,y,z
_cell_length_a                    29.6412
_cell_length_b                    31.8920
_cell_length_c                    31.0967
_cell_angle_alpha                 90.5342
_cell_angle_beta                  66.9508
_cell_angle_gamma                 89.2469
loop_
_atom_site_label
_atom_site_type_symbol
_atom_site_fract_x
_atom_site_fract_y
_atom_site_fract_z
_atom_site_U_iso_or_equiv
_atom_site_adp_type
_atom_site_occupancy
Br1    Br    0.10040   0.04361   0.00125   0.00000  Uiso   1.00
Br2    Br    0.21634   0.04992   0.14869   0.00000  Uiso   1.00
Br3    Br    0.12414   0.05386   0.35093   0.00000  Uiso   1.00
Br4    Br    0.20921   0.27947   0.14907   0.00000  Uiso   1.00
Br5    Br    0.30888   0.09732   0.18442   0.00000  Uiso   1.00
Br6    Br    0.02445   0.23601   0.31559   0.00000  Uiso   1.00
Br7    Br    0.23290   0.28974   0.49876   0.00000  Uiso   1.00
Br8    Br    0.13480   0.11413   0.11796   0.00000  Uiso   1.00
Br9    Br    0.19856   0.21916   0.38204   0.00000  Uiso   1.00
Br10   Br    0.31178   0.19742   0.10838   0.00000  Uiso   1.00
Br11   Br    0.02154   0.13594   0.39162   0.00000  Uiso   1.00
Br12   Br    0.00821   0.09804   0.49472   0.00000  Uiso   1.00
Br13   Br    0.32510   0.23531   0.00529   0.00000  Uiso   1.00
Br14   Br    0.11704   0.28341   0.35131   0.00000  Uiso   1.00
C15    C     0.16624   0.24654   0.25034   0.00000  Uiso   1.00
C16    C     0.18554   0.31087   0.20721   0.00000  Uiso   1.00
C17    C     0.16773   0.04266   0.24982   0.00000  Uiso   1.00
C18    C     0.16560   0.29067   0.25018   0.00000  Uiso   1.00
C19    C     0.32072   0.13737   0.22456   0.00000  Uiso   1.00
C20    C     0.01261   0.19596   0.27544   0.00000  Uiso   1.00
C21    C     0.03466   0.13699   0.22552   0.00000  Uiso   1.00
C22    C     0.29868   0.19634   0.27448   0.00000  Uiso   1.00
C23    C     0.13557   0.16821   0.33841   0.00000  Uiso   1.00
C24    C     0.19776   0.16512   0.16159   0.00000  Uiso   1.00
C25    C     0.11496   0.16767   0.39006   0.00000  Uiso   1.00
C26    C     0.16709   0.08680   0.24966   0.00000  Uiso   1.00
C27    C     0.21837   0.16566   0.10994   0.00000  Uiso   1.00
C28    C     0.06777   0.12620   0.45730   0.00000  Uiso   1.00
C29    C     0.26554   0.20715   0.04271   0.00000  Uiso   1.00
C30    C     0.07215   0.14490   0.41516   0.00000  Uiso   1.00
C31    C     0.26117   0.18845   0.08484   0.00000  Uiso   1.00
C32    C     0.14271   0.18382   0.41438   0.00000  Uiso   1.00
C33    C     0.19063   0.14951   0.08562   0.00000  Uiso   1.00
C34    C     0.13470   0.16799   0.45907   0.00000  Uiso   1.00
C35    C     0.19861   0.16535   0.04094   0.00000  Uiso   1.00
C36    C     0.10528   0.13207   0.47374   0.00000  Uiso   1.00
C37    C     0.15627   0.11056   0.01454   0.00000  Uiso   1.00
C38    C     0.22802   0.20128   0.02627   0.00000  Uiso   1.00
C39    C     0.16166   0.18121   0.48543   0.00000  Uiso   1.00
C40    C     0.17164   0.15214   0.01459   0.00000  Uiso   1.00
C41    C     0.17704   0.22279   0.48547   0.00000  Uiso   1.00
C42    C     0.11938   0.10136   0.49872   0.00000  Uiso   1.00
C43    C     0.21392   0.23199   0.00129   0.00000  Uiso   1.00
C44    C     0.14622   0.31248   0.29298   0.00000  Uiso   1.00
C45    C     0.18712   0.02085   0.20702   0.00000  Uiso   1.00
C46    C     0.14780   0.02246   0.29279   0.00000  Uiso   1.00
F47    F     0.17903   0.07864   0.02735   0.00000  Uiso   1.00
F48    F     0.15430   0.25470   0.47263   0.00000  Uiso   1.00
H49    H     0.06084   0.11272   0.20690   0.00000  Uiso   1.00
H50    H     0.27249   0.22062   0.29310   0.00000  Uiso   1.00
N51    N     0.04759   0.16668   0.25001   0.00000  Uiso   1.00
N52    N     0.28574   0.16666   0.24999   0.00000  Uiso   1.00
O53    O     0.12846   0.22775   0.25000   0.00000  Uiso   1.00
O54    O     0.20488   0.10558   0.24999   0.00000  Uiso   1.00
O55    O     0.20490   0.22774   0.25000   0.00000  Uiso   1.00
O56    O     0.12843   0.10559   0.25000   0.00000  Uiso   1.00
O57    O     0.10661   0.16667   0.31612   0.00000  Uiso   1.00
O58    O     0.22672   0.16666   0.18387   0.00000  Uiso   1.00
O59    O     0.18305   0.16666   0.31612   0.00000  Uiso   1.00
O60    O     0.15028   0.16667   0.18388   0.00000  Uiso   1.00
Zn61   Zn    0.11562   0.16667   0.25000   0.00000  Uiso   1.00
Zn62   Zn    0.21771   0.16666   0.25000   0.00000  Uiso   1.00
Br63   Br    0.43374   0.04361   0.00125   0.00000  Uiso   1.00
Br64   Br    0.54967   0.04992   0.14869   0.00000  Uiso   1.00
Br65   Br    0.45748   0.05386   0.35093   0.00000  Uiso   1.00
Br66   Br    0.54255   0.27947   0.14907   0.00000  Uiso   1.00
Br67   Br    0.64221   0.09732   0.18442   0.00000  Uiso   1.00
Br68   Br    0.35779   0.23601   0.31559   0.00000  Uiso   1.00
Br69   Br    0.56623   0.28974   0.49876   0.00000  Uiso   1.00
Br70   Br    0.46813   0.11413   0.11796   0.00000  Uiso   1.00
Br71   Br    0.53189   0.21916   0.38204   0.00000  Uiso   1.00
Br72   Br    0.64511   0.19742   0.10838   0.00000  Uiso   1.00
Br73   Br    0.35488   0.13594   0.39162   0.00000  Uiso   1.00
Br74   Br    0.34154   0.09804   0.49472   0.00000  Uiso   1.00
Br75   Br    0.65843   0.23531   0.00529   0.00000  Uiso   1.00
Br76   Br    0.45037   0.28341   0.35131   0.00000  Uiso   1.00
C77    C     0.49957   0.24654   0.25034   0.00000  Uiso   1.00
C78    C     0.51887   0.31087   0.20721   0.00000  Uiso   1.00
C79    C     0.50107   0.04266   0.24982   0.00000  Uiso   1.00
C80    C     0.49893   0.29067   0.25018   0.00000  Uiso   1.00
C81    C     0.65405   0.13737   0.22456   0.00000  Uiso   1.00
C82    C     0.34595   0.19596   0.27544   0.00000  Uiso   1.00
C83    C     0.36799   0.13699   0.22552   0.00000  Uiso   1.00
C84    C     0.63201   0.19634   0.27448   0.00000  Uiso   1.00
C85    C     0.46890   0.16821   0.33841   0.00000  Uiso   1.00
C86    C     0.53110   0.16512   0.16159   0.00000  Uiso   1.00
C87    C     0.44830   0.16767   0.39006   0.00000  Uiso   1.00
C88    C     0.50043   0.08680   0.24966   0.00000  Uiso   1.00
C89    C     0.55170   0.16566   0.10994   0.00000  Uiso   1.00
C90    C     0.40110   0.12620   0.45730   0.00000  Uiso   1.00
C91    C     0.59888   0.20715   0.04271   0.00000  Uiso   1.00
C92    C     0.40548   0.14490   0.41516   0.00000  Uiso   1.00
C93    C     0.59451   0.18845   0.08484   0.00000  Uiso   1.00
C94    C     0.47604   0.18382   0.41438   0.00000  Uiso   1.00
C95    C     0.52396   0.14951   0.08562   0.00000  Uiso   1.00
C96    C     0.46804   0.16799   0.45907   0.00000  Uiso   1.00
C97    C     0.53194   0.16535   0.04094   0.00000  Uiso   1.00
C98    C     0.43862   0.13207   0.47374   0.00000  Uiso   1.00
C99    C     0.48960   0.11056   0.01454   0.00000  Uiso   1.00
C100   C     0.56136   0.20128   0.02627   0.00000  Uiso   1.00
C101   C     0.49500   0.18121   0.48543   0.00000  Uiso   1.00
C102   C     0.50497   0.15214   0.01459   0.00000  Uiso   1.00
C103   C     0.51037   0.22279   0.48547   0.00000  Uiso   1.00
C104   C     0.45271   0.10136   0.49872   0.00000  Uiso   1.00
C105   C     0.54726   0.23199   0.00129   0.00000  Uiso   1.00
C106   C     0.47956   0.31248   0.29298   0.00000  Uiso   1.00
C107   C     0.52045   0.02085   0.20702   0.00000  Uiso   1.00
C108   C     0.48114   0.02246   0.29279   0.00000  Uiso   1.00
F109   F     0.51237   0.07864   0.02735   0.00000  Uiso   1.00
F110   F     0.48763   0.25470   0.47263   0.00000  Uiso   1.00
H111   H     0.39417   0.11272   0.20690   0.00000  Uiso   1.00
H112   H     0.60583   0.22062   0.29310   0.00000  Uiso   1.00
N113   N     0.38093   0.16668   0.25001   0.00000  Uiso   1.00
N114   N     0.61907   0.16666   0.24999   0.00000  Uiso   1.00
O115   O     0.46179   0.22775   0.25000   0.00000  Uiso   1.00
O116   O     0.53821   0.10558   0.24999   0.00000  Uiso   1.00
O117   O     0.53823   0.22774   0.25000   0.00000  Uiso   1.00
O118   O     0.46177   0.10559   0.25000   0.00000  Uiso   1.00
O119   O     0.43994   0.16667   0.31612   0.00000  Uiso   1.00
O120   O     0.56006   0.16666   0.18387   0.00000  Uiso   1.00
O121   O     0.51639   0.16666   0.31612   0.00000  Uiso   1.00
O122   O     0.48361   0.16667   0.18388   0.00000  Uiso   1.00
Zn123  Zn    0.44896   0.16667   0.25000   0.00000  Uiso   1.00
Zn124  Zn    0.55104   0.16666   0.25000   0.00000  Uiso   1.00
Br125  Br    0.76707   0.04361   0.00125   0.00000  Uiso   1.00
Br126  Br    0.88301   0.04992   0.14869   0.00000  Uiso   1.00
Br127  Br    0.79081   0.05386   0.35093   0.00000  Uiso   1.00
Br128  Br    0.87588   0.27947   0.14907   0.00000  Uiso   1.00
Br129  Br    0.97554   0.09732   0.18442   0.00000  Uiso   1.00
Br130  Br    0.69112   0.23601   0.31559   0.00000  Uiso   1.00
Br131  Br    0.89956   0.28974   0.49876   0.00000  Uiso   1.00
Br132  Br    0.80146   0.11413   0.11796   0.00000  Uiso   1.00
Br133  Br    0.86523   0.21916   0.38204   0.00000  Uiso   1.00
Br134  Br    0.97844   0.19742   0.10838   0.00000  Uiso   1.00
Br135  Br    0.68821   0.13594   0.39162   0.00000  Uiso   1.00
Br136  Br    0.67488   0.09804   0.49472   0.00000  Uiso   1.00
Br137  Br    0.99176   0.23531   0.00529   0.00000  Uiso   1.00
Br138  Br    0.78370   0.28341   0.35131   0.00000  Uiso   1.00
C139   C     0.83291   0.24654   0.25034   0.00000  Uiso   1.00
C140   C     0.85221   0.31087   0.20721   0.00000  Uiso   1.00
C141   C     0.83440   0.04266   0.24982   0.00000  Uiso   1.00
C142   C     0.83227   0.29067   0.25018   0.00000  Uiso   1.00
C143   C     0.98739   0.13737   0.22456   0.00000  Uiso   1.00
C144   C     0.67928   0.19596   0.27544   0.00000  Uiso   1.00
C145   C     0.70132   0.13699   0.22552   0.00000  Uiso   1.00
C146   C     0.96534   0.19634   0.27448   0.00000  Uiso   1.00
C147   C     0.80224   0.16821   0.33841   0.00000  Uiso   1.00
C148   C     0.86443   0.16512   0.16159   0.00000  Uiso   1.00
C149   C     0.78163   0.16767   0.39006   0.00000  Uiso   1.00
C150   C     0.83376   0.08680   0.24966   0.00000  Uiso   1.00
C151   C     0.88503   0.16566   0.10994   0.00000  Uiso   1.00
C152   C     0.73443   0.12620   0.45730   0.00000  Uiso   1.00
C153   C     0.93221   0.20715   0.04271   0.00000  Uiso   1.00
C154   C     0.73881   0.14490   0.41516   0.00000  Uiso   1.00
C155   C     0.92784   0.18845   0.08484   0.00000  Uiso   1.00
C156   C     0.80937   0.18382   0.41438   0.00000  Uiso   1.00
C157   C     0.85729   0.14951   0.08562   0.00000  Uiso   1.00
C158   C     0.80137   0.16799   0.45907   0.00000  Uiso   1.00
C159   C     0.86528   0.16535   0.04094   0.00000  Uiso   1.00
C160   C     0.77195   0.13207   0.47374   0.00000  Uiso   1.00
C161   C     0.82294   0.11056   0.01454   0.00000  Uiso   1.00
C162   C     0.89469   0.20128   0.02627   0.00000  Uiso   1.00
C163   C     0.82833   0.18121   0.48543   0.00000  Uiso   1.00
C164   C     0.83831   0.15214   0.01459   0.00000  Uiso   1.00
C165   C     0.84371   0.22279   0.48547   0.00000  Uiso   1.00
C166   C     0.78605   0.10136   0.49872   0.00000  Uiso   1.00
C167   C     0.88059   0.23199   0.00129   0.00000  Uiso   1.00
C168   C     0.81289   0.31248   0.29298   0.00000  Uiso   1.00
C169   C     0.85379   0.02085   0.20702   0.00000  Uiso   1.00
C170   C     0.81447   0.02246   0.29279   0.00000  Uiso   1.00
F171   F     0.84570   0.07864   0.02735   0.00000  Uiso   1.00
F172   F     0.82096   0.25470   0.47263   0.00000  Uiso   1.00
H173   H     0.72751   0.11272   0.20690   0.00000  Uiso   1.00
H174   H     0.93916   0.22062   0.29310   0.00000  Uiso   1.00
N175   N     0.71426   0.16668   0.25001   0.00000  Uiso   1.00
N176   N     0.95241   0.16666   0.24999   0.00000  Uiso   1.00
O177   O     0.79512   0.22775   0.25000   0.00000  Uiso   1.00
O178   O     0.87154   0.10558   0.24999   0.00000  Uiso   1.00
O179   O     0.87157   0.22774   0.25000   0.00000  Uiso   1.00
O180   O     0.79510   0.10559   0.25000   0.00000  Uiso   1.00
O181   O     0.77328   0.16667   0.31612   0.00000  Uiso   1.00
O182   O     0.89339   0.16666   0.18387   0.00000  Uiso   1.00
O183   O     0.84972   0.16666   0.31612   0.00000  Uiso   1.00
O184   O     0.81695   0.16667   0.18388   0.00000  Uiso   1.00
Zn185  Zn    0.78229   0.16667   0.25000   0.00000  Uiso   1.00
Zn186  Zn    0.88438   0.16666   0.25000   0.00000  Uiso   1.00
Br187  Br    0.10040   0.37694   0.00125   0.00000  Uiso   1.00
Br188  Br    0.21634   0.38326   0.14869   0.00000  Uiso   1.00
Br189  Br    0.12414   0.38720   0.35093   0.00000  Uiso   1.00
Br190  Br    0.20921   0.61280   0.14907   0.00000  Uiso   1.00
Br191  Br    0.30888   0.43065   0.18442   0.00000  Uiso   1.00
Br192  Br    0.02445   0.56934   0.31559   0.00000  Uiso   1.00
Br193  Br    0.23290   0.62307   0.49876   0.00000  Uiso   1.00
Br194  Br    0.13480   0.44746   0.11796   0.00000  Uiso   1.00
Br195  Br    0.19856   0.55249   0.38204   0.00000  Uiso   1.00
Br196  Br    0.31178   0.53075   0.10838   0.00000  Uiso   1.00
Br197  Br    0.02154   0.46927   0.39162   0.00000  Uiso   1.00
Br198  Br    0.00821   0.43138   0.49472   0.00000  Uiso   1.00
Br199  Br    0.32510   0.56865   0.00529   0.00000  Uiso   1.00
Br200  Br    0.11704   0.61674   0.35131   0.00000  Uiso   1.00
C201   C     0.16624   0.57987   0.25034   0.00000  Uiso   1.00
C202   C     0.18554   0.64420   0.20721   0.00000  Uiso   1.00
C203   C     0.16773   0.37600   0.24982   0.00000  Uiso   1.00
C204   C     0.16560   0.62400   0.25018   0.00000  Uiso   1.00
C205   C     0.32072   0.47070   0.22456   0.00000  Uiso   1.00
C206   C     0.01261   0.52930   0.27544   0.00000  Uiso   1.00
C207   C     0.03466   0.47033   0.22552   0.00000  Uiso   1.00
C208   C     0.29868   0.52967   0.27448   0.00000  Uiso   1.00
C209   C     0.13557   0.50154   0.33841   0.00000  Uiso   1.00
C210   C     0.19776   0.49845   0.16159   0.00000  Uiso   1.00
C211   C     0.11496   0.50100   0.39006   0.00000  Uiso   1.00
C212   C     0.16709   0.42013   0.24966   0.00000  Uiso   1.00
C213   C     0.21837   0.49900   0.10994   0.00000  Uiso   1.00
C214   C     0.06777   0.45953   0.45730   0.00000  Uiso   1.00
C215   C     0.26554   0.54048   0.04271   0.00000  Uiso   1.00
C216   C     0.07215   0.47823   0.41516   0.00000  Uiso   1.00
C217   C     0.26117   0.52178   0.08484   0.00000  Uiso   1.00
C218   C     0.14271   0.51716   0.41438   0.00000  Uiso   1.00
C219   C     0.19063   0.48284   0.08562   0.00000  Uiso   1.00
C220   C     0.13470   0.50132   0.45907   0.00000  Uiso   1.00
C221   C     0.19861   0.49869   0.04094   0.00000  Uiso   1.00
C222   C     0.10528   0.46541   0.47374   0.00000  Uiso   1.00
C223   C     0.15627   0.44389   0.01454   0.00000  Uiso   1.00
C224   C     0.22802   0.53461   0.02627   0.00000  Uiso   1.00
C225   C     0.16166   0.51454   0.48543   0.00000  Uiso   1.00
C226   C     0.17164   0.48547   0.01459   0.00000  Uiso   1.00
C227   C     0.17704   0.55612   0.48547   0.00000  Uiso   1.00
C228   C     0.11938   0.43469   0.49872   0.00000  Uiso   1.00
C229   C     0.21392   0.56532   0.00129   0.00000  Uiso   1.00
C230   C     0.14622   0.64582   0.29298   0.00000  Uiso   1.00
C231   C     0.18712   0.35418   0.20702   0.00000  Uiso   1.00
C232   C     0.14780   0.35580   0.29279   0.00000  Uiso   1.00
F233   F     0.17903   0.41198   0.02735   0.00000  Uiso   1.00
F234   F     0.15430   0.58803   0.47263   0.00000  Uiso   1.00
H235   H     0.06084   0.44605   0.20690   0.00000  Uiso   1.00
H236   H     0.27249   0.55395   0.29310   0.00000  Uiso   1.00
N237   N     0.04759   0.50001   0.25001   0.00000  Uiso   1.00
N238   N     0.28574   0.49999   0.24999   0.00000  Uiso   1.00
O239   O     0.12846   0.56108   0.25000   0.00000  Uiso   1.00
O240   O     0.20488   0.43892   0.24999   0.00000  Uiso   1.00
O241   O     0.20490   0.56107   0.25000   0.00000  Uiso   1.00
O242   O     0.12843   0.43893   0.25000   0.00000  Uiso   1.00
O243   O     0.10661   0.50001   0.31612   0.00000  Uiso   1.00
O244   O     0.22672   0.49999   0.18387   0.00000  Uiso   1.00
O245   O     0.18305   0.50000   0.31612   0.00000  Uiso   1.00
O246   O     0.15028   0.50000   0.18388   0.00000  Uiso   1.00
Zn247  Zn    0.11562   0.50001   0.25000   0.00000  Uiso   1.00
Zn248  Zn    0.21771   0.49999   0.25000   0.00000  Uiso   1.00
Br249  Br    0.43374   0.37694   0.00125   0.00000  Uiso   1.00
Br250  Br    0.54967   0.38326   0.14869   0.00000  Uiso   1.00
Br251  Br    0.45748   0.38720   0.35093   0.00000  Uiso   1.00
Br252  Br    0.54255   0.61280   0.14907   0.00000  Uiso   1.00
Br253  Br    0.64221   0.43065   0.18442   0.00000  Uiso   1.00
Br254  Br    0.35779   0.56934   0.31559   0.00000  Uiso   1.00
Br255  Br    0.56623   0.62307   0.49876   0.00000  Uiso   1.00
Br256  Br    0.46813   0.44746   0.11796   0.00000  Uiso   1.00
Br257  Br    0.53189   0.55249   0.38204   0.00000  Uiso   1.00
Br258  Br    0.64511   0.53075   0.10838   0.00000  Uiso   1.00
Br259  Br    0.35488   0.46927   0.39162   0.00000  Uiso   1.00
Br260  Br    0.34154   0.43138   0.49472   0.00000  Uiso   1.00
Br261  Br    0.65843   0.56865   0.00529   0.00000  Uiso   1.00
Br262  Br    0.45037   0.61674   0.35131   0.00000  Uiso   1.00
C263   C     0.49957   0.57987   0.25034   0.00000  Uiso   1.00
C264   C     0.51887   0.64420   0.20721   0.00000  Uiso   1.00
C265   C     0.50107   0.37600   0.24982   0.00000  Uiso   1.00
C266   C     0.49893   0.62400   0.25018   0.00000  Uiso   1.00
C267   C     0.65405   0.47070   0.22456   0.00000  Uiso   1.00
C268   C     0.34595   0.52930   0.27544   0.00000  Uiso   1.00
C269   C     0.36799   0.47033   0.22552   0.00000  Uiso   1.00
C270   C     0.63201   0.52967   0.27448   0.00000  Uiso   1.00
C271   C     0.46890   0.50154   0.33841   0.00000  Uiso   1.00
C272   C     0.53110   0.49845   0.16159   0.00000  Uiso   1.00
C273   C     0.44830   0.50100   0.39006   0.00000  Uiso   1.00
C274   C     0.50043   0.42013   0.24966   0.00000  Uiso   1.00
C275   C     0.55170   0.49900   0.10994   0.00000  Uiso   1.00
C276   C     0.40110   0.45953   0.45730   0.00000  Uiso   1.00
C277   C     0.59888   0.54048   0.04271   0.00000  Uiso   1.00
C278   C     0.40548   0.47823   0.41516   0.00000  Uiso   1.00
C279   C     0.59451   0.52178   0.08484   0.00000  Uiso   1.00
C280   C     0.47604   0.51716   0.41438   0.00000  Uiso   1.00
C281   C     0.52396   0.48284   0.08562   0.00000  Uiso   1.00
C282   C     0.46804   0.50132   0.45907   0.00000  Uiso   1.00
C283   C     0.53194   0.49869   0.04094   0.00000  Uiso   1.00
C284   C     0.43862   0.46541   0.47374   0.00000  Uiso   1.00
C285   C     0.48960   0.44389   0.01454   0.00000  Uiso   1.00
C286   C     0.56136   0.53461   0.02627   0.00000  Uiso   1.00
C287   C     0.49500   0.51454   0.48543   0.00000  Uiso   1.00
C288   C     0.50497   0.48547   0.01459   0.00000  Uiso   1.00
C289   C     0.51037   0.55612   0.48547   0.00000  Uiso   1.00
C290   C     0.45271   0.43469   0.49872   0.00000  Uiso   1.00
C291   C     0.54726   0.56532   0.00129   0.00000  Uiso   1.00
C292   C     0.47956   0.64582   0.29298   0.00000  Uiso   1.00
C293   C     0.52045   0.35418   0.20702   0.00000  Uiso   1.00
C294   C     0.48114   0.35580   0.29279   0.00000  Uiso   1.00
F295   F     0.51237   0.41198   0.02735   0.00000  Uiso   1.00
F296   F     0.48763   0.58803   0.47263   0.00000  Uiso   1.00
H297   H     0.39417   0.44605   0.20690   0.00000  Uiso   1.00
H298   H     0.60583   0.55395   0.29310   0.00000  Uiso   1.00
N299   N     0.38093   0.50001   0.25001   0.00000  Uiso   1.00
N300   N     0.61907   0.49999   0.24999   0.00000  Uiso   1.00
O301   O     0.46179   0.56108   0.25000   0.00000  Uiso   1.00
O302   O     0.53821   0.43892   0.24999   0.00000  Uiso   1.00
O303   O     0.53823   0.56107   0.25000   0.00000  Uiso   1.00
O304   O     0.46177   0.43893   0.25000   0.00000  Uiso   1.00
O305   O     0.43994   0.50001   0.31612   0.00000  Uiso   1.00
O306   O     0.56006   0.49999   0.18387   0.00000  Uiso   1.00
O307   O     0.51639   0.50000   0.31612   0.00000  Uiso   1.00
O308   O     0.48361   0.50000   0.18388   0.00000  Uiso   1.00
Zn309  Zn    0.44896   0.50001   0.25000   0.00000  Uiso   1.00
Zn310  Zn    0.55104   0.49999   0.25000   0.00000  Uiso   1.00
Br311  Br    0.76707   0.37694   0.00125   0.00000  Uiso   1.00
Br312  Br    0.88301   0.38326   0.14869   0.00000  Uiso   1.00
Br313  Br    0.79081   0.38720   0.35093   0.00000  Uiso   1.00
Br314  Br    0.87588   0.61280   0.14907   0.00000  Uiso   1.00
Br315  Br    0.97554   0.43065   0.18442   0.00000  Uiso   1.00
Br316  Br    0.69112   0.56934   0.31559   0.00000  Uiso   1.00
Br317  Br    0.89956   0.62307   0.49876   0.00000  Uiso   1.00
Br318  Br    0.80146   0.44746   0.11796   0.00000  Uiso   1.00
Br319  Br    0.86523   0.55249   0.38204   0.00000  Uiso   1.00
Br320  Br    0.97844   0.53075   0.10838   0.00000  Uiso   1.00
Br321  Br    0.68821   0.46927   0.39162   0.00000  Uiso   1.00
Br322  Br    0.67488   0.43138   0.49472   0.00000  Uiso   1.00
Br323  Br    0.99176   0.56865   0.00529   0.00000  Uiso   1.00
Br324  Br    0.78370   0.61674   0.35131   0.00000  Uiso   1.00
C325   C     0.83291   0.57987   0.25034   0.00000  Uiso   1.00
C326   C     0.85221   0.64420   0.20721   0.00000  Uiso   1.00
C327   C     0.83440   0.37600   0.24982   0.00000  Uiso   1.00
C328   C     0.83227   0.62400   0.25018   0.00000  Uiso   1.00
C329   C     0.98739   0.47070   0.22456   0.00000  Uiso   1.00
C330   C     0.67928   0.52930   0.27544   0.00000  Uiso   1.00
C331   C     0.70132   0.47033   0.22552   0.00000  Uiso   1.00
C332   C     0.96534   0.52967   0.27448   0.00000  Uiso   1.00
C333   C     0.80224   0.50154   0.33841   0.00000  Uiso   1.00
C334   C     0.86443   0.49845   0.16159   0.00000  Uiso   1.00
C335   C     0.78163   0.50100   0.39006   0.00000  Uiso   1.00
C336   C     0.83376   0.42013   0.24966   0.00000  Uiso   1.00
C337   C     0.88503   0.49900   0.10994   0.00000  Uiso   1.00
C338   C     0.73443   0.45953   0.45730   0.00000  Uiso   1.00
C339   C     0.93221   0.54048   0.04271   0.00000  Uiso   1.00
C340   C     0.73881   0.47823   0.41516   0.00000  Uiso   1.00
C341   C     0.92784   0.52178   0.08484   0.00000  Uiso   1.00
C342   C     0.80937   0.51716   0.41438   0.00000  Uiso   1.00
C343   C     0.85729   0.48284   0.08562   0.00000  Uiso   1.00
C344   C     0.80137   0.50132   0.45907   0.00000  Uiso   1.00
C345   C     0.86528   0.49869   0.04094   0.00000  Uiso   1.00
C346   C     0.77195   0.46541   0.47374   0.00000  Uiso   1.00
C347   C     0.82294   0.44389   0.01454   0.00000  Uiso   1.00
C348   C     0.89469   0.53461   0.02627   0.00000  Uiso   1.00
C349   C     0.82833   0.51454   0.48543   0.00000  Uiso   1.00
C350   C     0.83831   0.48547   0.01459   0.00000  Uiso   1.00
C351   C     0.84371   0.55612   0.48547   0.00000  Uiso   1.00
C352   C     0.78605   0.43469   0.49872   0.00000  Uiso   1.00
C353   C     0.88059   0.56532   0.00129   0.00000  Uiso   1.00
C354   C     0.81289   0.64582   0.29298   0.00000  Uiso   1.00
C355   C     0.85379   0.35418   0.20702   0.00000  Uiso   1.00
C356   C     0.81447   0.35580   0.29279   0.00000  Uiso   1.00
F357   F     0.84570   0.41198   0.02735   0.00000  Uiso   1.00
F358   F     0.82096   0.58803   0.47263   0.00000  Uiso   1.00
H359   H     0.72751   0.44605   0.20690   0.00000  Uiso   1.00
H360   H     0.93916   0.55395   0.29310   0.00000  Uiso   1.00
N361   N     0.71426   0.50001   0.25001   0.00000  Uiso   1.00
N362   N     0.95241   0.49999   0.24999   0.00000  Uiso   1.00
O363   O     0.79512   0.56108   0.25000   0.00000  Uiso   1.00
O364   O     0.87154   0.43892   0.24999   0.00000  Uiso   1.00
O365   O     0.87157   0.56107   0.25000   0.00000  Uiso   1.00
O366   O     0.79510   0.43893   0.25000   0.00000  Uiso   1.00
O367   O     0.77328   0.50001   0.31612   0.00000  Uiso   1.00
O368   O     0.89339   0.49999   0.18387   0.00000  Uiso   1.00
O369   O     0.84972   0.50000   0.31612   0.00000  Uiso   1.00
O370   O     0.81695   0.50000   0.18388   0.00000  Uiso   1.00
Zn371  Zn    0.78229   0.50001   0.25000   0.00000  Uiso   1.00
Zn372  Zn    0.88438   0.49999   0.25000   0.00000  Uiso   1.00
Br373  Br    0.10040   0.71028   0.00125   0.00000  Uiso   1.00
Br374  Br    0.21634   0.71659   0.14869   0.00000  Uiso   1.00
Br375  Br    0.12414   0.72053   0.35093   0.00000  Uiso   1.00
Br376  Br    0.20921   0.94614   0.14907   0.00000  Uiso   1.00
Br377  Br    0.30888   0.76399   0.18442   0.00000  Uiso   1.00
Br378  Br    0.02445   0.90268   0.31559   0.00000  Uiso   1.00
Br379  Br    0.23290   0.95641   0.49876   0.00000  Uiso   1.00
Br380  Br    0.13480   0.78080   0.11796   0.00000  Uiso   1.00
Br381  Br    0.19856   0.88583   0.38204   0.00000  Uiso   1.00
Br382  Br    0.31178   0.86408   0.10838   0.00000  Uiso   1.00
Br383  Br    0.02154   0.80260   0.39162   0.00000  Uiso   1.00
Br384  Br    0.00821   0.76471   0.49472   0.00000  Uiso   1.00
Br385  Br    0.32510   0.90198   0.00529   0.00000  Uiso   1.00
Br386  Br    0.11704   0.95008   0.35131   0.00000  Uiso   1.00
C387   C     0.16624   0.91320   0.25034   0.00000  Uiso   1.00
C388   C     0.18554   0.97754   0.20721   0.00000  Uiso   1.00
C389   C     0.16773   0.70933   0.24982   0.00000  Uiso   1.00
C390   C     0.16560   0.95734   0.25018   0.00000  Uiso   1.00
C391   C     0.32072   0.80404   0.22456   0.00000  Uiso   1.00
C392   C     0.01261   0.86263   0.27544   0.00000  Uiso   1.00
C393   C     0.03466   0.80366   0.22552   0.00000  Uiso   1.00
C394   C     0.29868   0.86301   0.27448   0.00000  Uiso   1.00
C395   C     0.13557   0.83488   0.33841   0.00000  Uiso   1.00
C396   C     0.19776   0.83179   0.16159   0.00000  Uiso   1.00
C397   C     0.11496   0.83434   0.39006   0.00000  Uiso   1.00
C398   C     0.16709   0.75346   0.24966   0.00000  Uiso   1.00
C399   C     0.21837   0.83233   0.10994   0.00000  Uiso   1.00
C400   C     0.06777   0.79287   0.45730   0.00000  Uiso   1.00
C401   C     0.26554   0.87382   0.04271   0.00000  Uiso   1.00
C402   C     0.07215   0.81156   0.41516   0.00000  Uiso   1.00
C403   C     0.26117   0.85511   0.08484   0.00000  Uiso   1.00
C404   C     0.14271   0.85049   0.41438   0.00000  Uiso   1.00
C405   C     0.19063   0.81617   0.08562   0.00000  Uiso   1.00
C406   C     0.13470   0.83466   0.45907   0.00000  Uiso   1.00
C407   C     0.19861   0.83202   0.04094   0.00000  Uiso   1.00
C408   C     0.10528   0.79874   0.47374   0.00000  Uiso   1.00
C409   C     0.15627   0.77722   0.01454   0.00000  Uiso   1.00
C410   C     0.22802   0.86794   0.02627   0.00000  Uiso   1.00
C411   C     0.16166   0.84788   0.48543   0.00000  Uiso   1.00
C412   C     0.17164   0.81880   0.01459   0.00000  Uiso   1.00
C413   C     0.17704   0.88945   0.48547   0.00000  Uiso   1.00
C414   C     0.11938   0.76803   0.49872   0.00000  Uiso   1.00
C415   C     0.21392   0.89865   0.00129   0.00000  Uiso   1.00
C416   C     0.14622   0.97915   0.29298   0.00000  Uiso   1.00
C417   C     0.18712   0.68752   0.20702   0.00000  Uiso   1.00
C418   C     0.14780   0.68913   0.29279   0.00000  Uiso   1.00
F419   F     0.17903   0.74531   0.02735   0.00000  Uiso   1.00
F420   F     0.15430   0.92136   0.47263   0.00000  Uiso   1.00
H421   H     0.06084   0.77938   0.20690   0.00000  Uiso   1.00
H422   H     0.27249   0.88728   0.29310   0.00000  Uiso   1.00
N423   N     0.04759   0.83334   0.25001   0.00000  Uiso   1.00
N424   N     0.28574   0.83332   0.24999   0.00000  Uiso   1.00
O425   O     0.12846   0.89442   0.25000   0.00000  Uiso   1.00
O426   O     0.20488   0.77225   0.24999   0.00000  Uiso   1.00
O427   O     0.20490   0.89441   0.25000   0.00000  Uiso   1.00
O428   O     0.12843   0.77226   0.25000   0.00000  Uiso   1.00
O429   O     0.10661   0.83334   0.31612   0.00000  Uiso   1.00
O430   O     0.22672   0.83333   0.18387   0.00000  Uiso   1.00
O431   O     0.18305   0.83333   0.31612   0.00000  Uiso   1.00
O432   O     0.15028   0.83334   0.18388   0.00000  Uiso   1.00
Zn433  Zn    0.11562   0.83334   0.25000   0.00000  Uiso   1.00
Zn434  Zn    0.21771   0.83333   0.25000   0.00000  Uiso   1.00
Br435  Br    0.43374   0.71028   0.00125   0.00000  Uiso   1.00
Br436  Br    0.54967   0.71659   0.14869   0.00000  Uiso   1.00
Br437  Br    0.45748   0.72053   0.35093   0.00000  Uiso   1.00
Br438  Br    0.54255   0.94614   0.14907   0.00000  Uiso   1.00
Br439  Br    0.64221   0.76399   0.18442   0.00000  Uiso   1.00
Br440  Br    0.35779   0.90268   0.31559   0.00000  Uiso   1.00
Br441  Br    0.56623   0.95641   0.49876   0.00000  Uiso   1.00
Br442  Br    0.46813   0.78080   0.11796   0.00000  Uiso   1.00
Br443  Br    0.53189   0.88583   0.38204   0.00000  Uiso   1.00
Br444  Br    0.64511   0.86408   0.10838   0.00000  Uiso   1.00
Br445  Br    0.35488   0.80260   0.39162   0.00000  Uiso   1.00
Br446  Br    0.34154   0.76471   0.49472   0.00000  Uiso   1.00
Br447  Br    0.65843   0.90198   0.00529   0.00000  Uiso   1.00
Br448  Br    0.45037   0.95008   0.35131   0.00000  Uiso   1.00
C449   C     0.49957   0.91320   0.25034   0.00000  Uiso   1.00
C450   C     0.51887   0.97754   0.20721   0.00000  Uiso   1.00
C451   C     0.50107   0.70933   0.24982   0.00000  Uiso   1.00
C452   C     0.49893   0.95734   0.25018   0.00000  Uiso   1.00
C453   C     0.65405   0.80404   0.22456   0.00000  Uiso   1.00
C454   C     0.34595   0.86263   0.27544   0.00000  Uiso   1.00
C455   C     0.36799   0.80366   0.22552   0.00000  Uiso   1.00
C456   C     0.63201   0.86301   0.27448   0.00000  Uiso   1.00
C457   C     0.46890   0.83488   0.33841   0.00000  Uiso   1.00
C458   C     0.53110   0.83179   0.16159   0.00000  Uiso   1.00
C459   C     0.44830   0.83434   0.39006   0.00000  Uiso   1.00
C460   C     0.50043   0.75346   0.24966   0.00000  Uiso   1.00
C461   C     0.55170   0.83233   0.10994   0.00000  Uiso   1.00
C462   C     0.40110   0.79287   0.45730   0.00000  Uiso   1.00
C463   C     0.59888   0.87382   0.04271   0.00000  Uiso   1.00
C464   C     0.40548   0.81156   0.41516   0.00000  Uiso   1.00
C465   C     0.59451   0.85511   0.08484   0.00000  Uiso   1.00
C466   C     0.47604   0.85049   0.41438   0.00000  Uiso   1.00
C467   C     0.52396   0.81617   0.08562   0.00000  Uiso   1.00
C468   C     0.46804   0.83466   0.45907   0.00000  Uiso   1.00
C469   C     0.53194   0.83202   0.04094   0.00000  Uiso   1.00
C470   C     0.43862   0.79874   0.47374   0.00000  Uiso   1.00
C471   C     0.48960   0.77722   0.01454   0.00000  Uiso   1.00
C472   C     0.56136   0.86794   0.02627   0.00000  Uiso   1.00
C473   C     0.49500   0.84788   0.48543   0.00000  Uiso   1.00
C474   C     0.50497   0.81880   0.01459   0.00000  Uiso   1.00
C475   C     0.51037   0.88945   0.48547   0.00000  Uiso   1.00
C476   C     0.45271   0.76803   0.49872   0.00000  Uiso   1.00
C477   C     0.54726   0.89865   0.00129   0.00000  Uiso   1.00
C478   C     0.47956   0.97915   0.29298   0.00000  Uiso   1.00
C479   C     0.52045   0.68752   0.20702   0.00000  Uiso   1.00
C480   C     0.48114   0.68913   0.29279   0.00000  Uiso   1.00
F481   F     0.51237   0.74531   0.02735   0.00000  Uiso   1.00
F482   F     0.48763   0.92136   0.47263   0.00000  Uiso   1.00
H483   H     0.39417   0.77938   0.20690   0.00000  Uiso   1.00
H484   H     0.60583   0.88728   0.29310   0.00000  Uiso   1.00
N485   N     0.38093   0.83334   0.25001   0.00000  Uiso   1.00
N486   N     0.61907   0.83332   0.24999   0.00000  Uiso   1.00
O487   O     0.46179   0.89442   0.25000   0.00000  Uiso   1.00
O488   O     0.53821   0.77225   0.24999   0.00000  Uiso   1.00
O489   O     0.53823   0.89441   0.25000   0.00000  Uiso   1.00
O490   O     0.46177   0.77226   0.25000   0.00000  Uiso   1.00
O491   O     0.43994   0.83334   0.31612   0.00000  Uiso   1.00
O492   O     0.56006   0.83333   0.18387   0.00000  Uiso   1.00
O493   O     0.51639   0.83333   0.31612   0.00000  Uiso   1.00
O494   O     0.48361   0.83334   0.18388   0.00000  Uiso   1.00
Zn495  Zn    0.44896   0.83334   0.25000   0.00000  Uiso   1.00
Zn496  Zn    0.55104   0.83333   0.25000   0.00000  Uiso   1.00
Br497  Br    0.76707   0.71028   0.00125   0.00000  Uiso   1.00
Br498  Br    0.88301   0.71659   0.14869   0.00000  Uiso   1.00
Br499  Br    0.79081   0.72053   0.35093   0.00000  Uiso   1.00
Br500  Br    0.87588   0.94614   0.14907   0.00000  Uiso   1.00
Br501  Br    0.97554   0.76399   0.18442   0.00000  Uiso   1.00
Br502  Br    0.69112   0.90268   0.31559   0.00000  Uiso   1.00
Br503  Br    0.89956   0.95641   0.49876   0.00000  Uiso   1.00
Br504  Br    0.80146   0.78080   0.11796   0.00000  Uiso   1.00
Br505  Br    0.86523   0.88583   0.38204   0.00000  Uiso   1.00
Br506  Br    0.97844   0.86408   0.10838   0.00000  Uiso   1.00
Br507  Br    0.68821   0.80260   0.39162   0.00000  Uiso   1.00
Br508  Br    0.67488   0.76471   0.49472   0.00000  Uiso   1.00
Br509  Br    0.99176   0.90198   0.00529   0.00000  Uiso   1.00
Br510  Br    0.78370   0.95008   0.35131   0.00000  Uiso   1.00
C511   C     0.83291   0.91320   0.25034   0.00000  Uiso   1.00
C512   C     0.85221   0.97754   0.20721   0.00000  Uiso   1.00
C513   C     0.83440   0.70933   0.24982   0.00000  Uiso   1.00
C514   C     0.83227   0.95734   0.25018   0.00000  Uiso   1.00
C515   C     0.98739   0.80404   0.22456   0.00000  Uiso   1.00
C516   C     0.67928   0.86263   0.27544   0.00000  Uiso   1.00
C517   C     0.70132   0.80366   0.22552   0.00000  Uiso   1.00
C518   C     0.96534   0.86301   0.27448   0.00000  Uiso   1.00
C519   C     0.80224   0.83488   0.33841   0.00000  Uiso   1.00
C520   C     0.86443   0.83179   0.16159   0.00000  Uiso   1.00
C521   C     0.78163   0.83434   0.39006   0.00000  Uiso   1.00
C522   C     0.83376   0.75346   0.24966   0.00000  Uiso   1.00
C523   C     0.88503   0.83233   0.10994   0.00000  Uiso   1.00
C524   C     0.73443   0.79287   0.45730   0.00000  Uiso   1.00
C525   C     0.93221   0.87382   0.04271   0.00000  Uiso   1.00
C526   C     0.73881   0.81156   0.41516   0.00000  Uiso   1.00
C527   C     0.92784   0.85511   0.08484   0.00000  Uiso   1.00
C528   C     0.80937   0.85049   0.41438   0.00000  Uiso   1.00
C529   C     0.85729   0.81617   0.08562   0.00000  Uiso   1.00
C530   C     0.80137   0.83466   0.45907   0.00000  Uiso   1.00
C531   C     0.86528   0.83202   0.04094   0.00000  Uiso   1.00
C532   C     0.77195   0.79874   0.47374   0.00000  Uiso   1.00
C533   C     0.82294   0.77722   0.01454   0.00000  Uiso   1.00
C534   C     0.89469   0.86794   0.02627   0.00000  Uiso   1.00
C535   C     0.82833   0.84788   0.48543   0.00000  Uiso   1.00
C536   C     0.83831   0.81880   0.01459   0.00000  Uiso   1.00
C537   C     0.84371   0.88945   0.48547   0.00000  Uiso   1.00
C538   C     0.78605   0.76803   0.49872   0.00000  Uiso   1.00
C539   C     0.88059   0.89865   0.00129   0.00000  Uiso   1.00
C540   C     0.81289   0.97915   0.29298   0.00000  Uiso   1.00
C541   C     0.85379   0.68752   0.20702   0.00000  Uiso   1.00
C542   C     0.81447   0.68913   0.29279   0.00000  Uiso   1.00
F543   F     0.84570   0.74531   0.02735   0.00000  Uiso   1.00
F544   F     0.82096   0.92136   0.47263   0.00000  Uiso   1.00
H545   H     0.72751   0.77938   0.20690   0.00000  Uiso   1.00
H546   H     0.93916   0.88728   0.29310   0.00000  Uiso   1.00
N547   N     0.71426   0.83334   0.25001   0.00000  Uiso   1.00
N548   N     0.95241   0.83332   0.24999   0.00000  Uiso   1.00
O549   O     0.79512   0.89442   0.25000   0.00000  Uiso   1.00
O550   O     0.87154   0.77225   0.24999   0.00000  Uiso   1.00
O551   O     0.87157   0.89441   0.25000   0.00000  Uiso   1.00
O552   O     0.79510   0.77226   0.25000   0.00000  Uiso   1.00
O553   O     0.77328   0.83334   0.31612   0.00000  Uiso   1.00
O554   O     0.89339   0.83333   0.18387   0.00000  Uiso   1.00
O555   O     0.84972   0.83333   0.31612   0.00000  Uiso   1.00
O556   O     0.81695   0.83334   0.18388   0.00000  Uiso   1.00
Zn557  Zn    0.78229   0.83334   0.25000   0.00000  Uiso   1.00
Zn558  Zn    0.88438   0.83333   0.25000   0.00000  Uiso   1.00
Br559  Br    0.10040   0.04361   0.50125   0.00000  Uiso   1.00
Br560  Br    0.21634   0.04992   0.64869   0.00000  Uiso   1.00
Br561  Br    0.12414   0.05386   0.85093   0.00000  Uiso   1.00
Br562  Br    0.20921   0.27947   0.64907   0.00000  Uiso   1.00
Br563  Br    0.30888   0.09732   0.68442   0.00000  Uiso   1.00
Br564  Br    0.02445   0.23601   0.81559   0.00000  Uiso   1.00
Br565  Br    0.23290   0.28974   0.99876   0.00000  Uiso   1.00
Br566  Br    0.13480   0.11413   0.61796   0.00000  Uiso   1.00
Br567  Br    0.19856   0.21916   0.88204   0.00000  Uiso   1.00
Br568  Br    0.31178   0.19742   0.60838   0.00000  Uiso   1.00
Br569  Br    0.02154   0.13594   0.89162   0.00000  Uiso   1.00
Br570  Br    0.00821   0.09804   0.99472   0.00000  Uiso   1.00
Br571  Br    0.32510   0.23531   0.50529   0.00000  Uiso   1.00
Br572  Br    0.11704   0.28341   0.85131   0.00000  Uiso   1.00
C573   C     0.16624   0.24654   0.75034   0.00000  Uiso   1.00
C574   C     0.18554   0.31087   0.70721   0.00000  Uiso   1.00
C575   C     0.16773   0.04266   0.74982   0.00000  Uiso   1.00
C576   C     0.16560   0.29067   0.75018   0.00000  Uiso   1.00
C577   C     0.32072   0.13737   0.72456   0.00000  Uiso   1.00
C578   C     0.01261   0.19596   0.77544   0.00000  Uiso   1.00
C579   C     0.03466   0.13699   0.72552   0.00000  Uiso   1.00
C580   C     0.29868   0.19634   0.77448   0.00000  Uiso   1.00
C581   C     0.13557   0.16821   0.83841   0.00000  Uiso   1.00
C582   C     0.19776   0.16512   0.66159   0.00000  Uiso   1.00
C583   C     0.11496   0.16767   0.89006   0.00000  Uiso   1.00
C584   C     0.16709   0.08680   0.74966   0.00000  Uiso   1.00
C585   C     0.21837   0.16566   0.60994   0.00000  Uiso   1.00
C586   C     0.06777   0.12620   0.95730   0.00000  Uiso   1.00
C587   C     0.26554   0.20715   0.54271   0.00000  Uiso   1.00
C588   C     0.07215   0.14490   0.91516   0.00000  Uiso   1.00
C589   C     0.26117   0.18845   0.58484   0.00000  Uiso   1.00
C590   C     0.14271   0.18382   0.91438   0.00000  Uiso   1.00
C591   C     0.19063   0.14951   0.58562   0.00000  Uiso   1.00
C592   C     0.13470   0.16799   0.95907   0.00000  Uiso   1.00
C593   C     0.19861   0.16535   0.54094   0.00000  Uiso   1.00
C594   C     0.10528   0.13207   0.97374   0.00000  Uiso   1.00
C595   C     0.15627   0.11056   0.51454   0.00000  Uiso   1.00
C596   C     0.22802   0.20128   0.52627   0.00000  Uiso   1.00
C597   C     0.16166   0.18121   0.98543   0.00000  Uiso   1.00
C598   C     0.17164   0.15214   0.51459   0.00000  Uiso   1.00
C599   C     0.17704   0.22279   0.98547   0.00000  Uiso   1.00
C600   C     0.11938   0.10136   0.99872   0.00000  Uiso   1.00
C601   C     0.21392   0.23199   0.50129   0.00000  Uiso   1.00
C602   C     0.14622   0.31248   0.79298   0.00000  Uiso   1.00
C603   C     0.18712   0.02085   0.70702   0.00000  Uiso   1.00
C604   C     0.14780   0.02246   0.79279   0.00000  Uiso   1.00
F605   F     0.17903   0.07864   0.52735   0.00000  Uiso   1.00
F606   F     0.15430   0.25470   0.97263   0.00000  Uiso   1.00
H607   H     0.06084   0.11272   0.70690   0.00000  Uiso   1.00
H608   H     0.27249   0.22062   0.79310   0.00000  Uiso   1.00
N609   N     0.04759   0.16668   0.75001   0.00000  Uiso   1.00
N610   N     0.28574   0.16666   0.74999   0.00000  Uiso   1.00
O611   O     0.12846   0.22775   0.75000   0.00000  Uiso   1.00
O612   O     0.20488   0.10558   0.74999   0.00000  Uiso   1.00
O613   O     0.20490   0.22774   0.75000   0.00000  Uiso   1.00
O614   O     0.12843   0.10559   0.75000   0.00000  Uiso   1.00
O615   O     0.10661   0.16667   0.81612   0.00000  Uiso   1.00
O616   O     0.22672   0.16666   0.68387   0.00000  Uiso   1.00
O617   O     0.18305   0.16666   0.81612   0.00000  Uiso   1.00
O618   O     0.15028   0.16667   0.68388   0.00000  Uiso   1.00
Zn619  Zn    0.11562   0.16667   0.75000   0.00000  Uiso   1.00
Zn620  Zn    0.21771   0.16666   0.75000   0.00000  Uiso   1.00
Br621  Br    0.43374   0.04361   0.50125   0.00000  Uiso   1.00
Br622  Br    0.54967   0.04992   0.64869   0.00000  Uiso   1.00
Br623  Br    0.45748   0.05386   0.85093   0.00000  Uiso   1.00
Br624  Br    0.54255   0.27947   0.64907   0.00000  Uiso   1.00
Br625  Br    0.64221   0.09732   0.68442   0.00000  Uiso   1.00
Br626  Br    0.35779   0.23601   0.81559   0.00000  Uiso   1.00
Br627  Br    0.56623   0.28974   0.99876   0.00000  Uiso   1.00
Br628  Br    0.46813   0.11413   0.61796   0.00000  Uiso   1.00
Br629  Br    0.53189   0.21916   0.88204   0.00000  Uiso   1.00
Br630  Br    0.64511   0.19742   0.60838   0.00000  Uiso   1.00
Br631  Br    0.35488   0.13594   0.89162   0.00000  Uiso   1.00
Br632  Br    0.34154   0.09804   0.99472   0.00000  Uiso   1.00
Br633  Br    0.65843   0.23531   0.50529   0.00000  Uiso   1.00
Br634  Br    0.45037   0.28341   0.85131   0.00000  Uiso   1.00
C635   C     0.49957   0.24654   0.75034   0.00000  Uiso   1.00
C636   C     0.51887   0.31087   0.70721   0.00000  Uiso   1.00
C637   C     0.50107   0.04266   0.74982   0.00000  Uiso   1.00
C638   C     0.49893   0.29067   0.75018   0.00000  Uiso   1.00
C639   C     0.65405   0.13737   0.72456   0.00000  Uiso   1.00
C640   C     0.34595   0.19596   0.77544   0.00000  Uiso   1.00
C641   C     0.36799   0.13699   0.72552   0.00000  Uiso   1.00
C642   C     0.63201   0.19634   0.77448   0.00000  Uiso   1.00
C643   C     0.46890   0.16821   0.83841   0.00000  Uiso   1.00
C644   C     0.53110   0.16512   0.66159   0.00000  Uiso   1.00
C645   C     0.44830   0.16767   0.89006   0.00000  Uiso   1.00
C646   C     0.50043   0.08680   0.74966   0.00000  Uiso   1.00
C647   C     0.55170   0.16566   0.60994   0.00000  Uiso   1.00
C648   C     0.40110   0.12620   0.95730   0.00000  Uiso   1.00
C649   C     0.59888   0.20715   0.54271   0.00000  Uiso   1.00
C650   C     0.40548   0.14490   0.91516   0.00000  Uiso   1.00
C651   C     0.59451   0.18845   0.58484   0.00000  Uiso   1.00
C652   C     0.47604   0.18382   0.91438   0.00000  Uiso   1.00
C653   C     0.52396   0.14951   0.58562   0.00000  Uiso   1.00
C654   C     0.46804   0.16799   0.95907   0.00000  Uiso   1.00
C655   C     0.53194   0.16535   0.54094   0.00000  Uiso   1.00
C656   C     0.43862   0.13207   0.97374   0.00000  Uiso   1.00
C657   C     0.48960   0.11056   0.51454   0.00000  Uiso   1.00
C658   C     0.56136   0.20128   0.52627   0.00000  Uiso   1.00
C659   C     0.49500   0.18121   0.98543   0.00000  Uiso   1.00
C660   C     0.50497   0.15214   0.51459   0.00000  Uiso   1.00
C661   C     0.51037   0.22279   0.98547   0.00000  Uiso   1.00
C662   C     0.45271   0.10136   0.99872   0.00000  Uiso   1.00
C663   C     0.54726   0.23199   0.50129   0.00000  Uiso   1.00
C664   C     0.47956   0.31248   0.79298   0.00000  Uiso   1.00
C665   C     0.52045   0.02085   0.70702   0.00000  Uiso   1.00
C666   C     0.48114   0.02246   0.79279   0.00000  Uiso   1.00
F667   F     0.51237   0.07864   0.52735   0.00000  Uiso   1.00
F668   F     0.48763   0.25470   0.97263   0.00000  Uiso   1.00
H669   H     0.39417   0.11272   0.70690   0.00000  Uiso   1.00
H670   H     0.60583   0.22062   0.79310   0.00000  Uiso   1.00
N671   N     0.38093   0.16668   0.75001   0.00000  Uiso   1.00
N672   N     0.61907   0.16666   0.74999   0.00000  Uiso   1.00
O673   O     0.46179   0.22775   0.75000   0.00000  Uiso   1.00
O674   O     0.53821   0.10558   0.74999   0.00000  Uiso   1.00
O675   O     0.53823   0.22774   0.75000   0.00000  Uiso   1.00
O676   O     0.46177   0.10559   0.75000   0.00000  Uiso   1.00
O677   O     0.43994   0.16667   0.81612   0.00000  Uiso   1.00
O678   O     0.56006   0.16666   0.68387   0.00000  Uiso   1.00
O679   O     0.51639   0.16666   0.81612   0.00000  Uiso   1.00
O680   O     0.48361   0.16667   0.68388   0.00000  Uiso   1.00
Zn681  Zn    0.44896   0.16667   0.75000   0.00000  Uiso   1.00
Zn682  Zn    0.55104   0.16666   0.75000   0.00000  Uiso   1.00
Br683  Br    0.76707   0.04361   0.50125   0.00000  Uiso   1.00
Br684  Br    0.88301   0.04992   0.64869   0.00000  Uiso   1.00
Br685  Br    0.79081   0.05386   0.85093   0.00000  Uiso   1.00
Br686  Br    0.87588   0.27947   0.64907   0.00000  Uiso   1.00
Br687  Br    0.97554   0.09732   0.68442   0.00000  Uiso   1.00
Br688  Br    0.69112   0.23601   0.81559   0.00000  Uiso   1.00
Br689  Br    0.89956   0.28974   0.99876   0.00000  Uiso   1.00
Br690  Br    0.80146   0.11413   0.61796   0.00000  Uiso   1.00
Br691  Br    0.86523   0.21916   0.88204   0.00000  Uiso   1.00
Br692  Br    0.97844   0.19742   0.60838   0.00000  Uiso   1.00
Br693  Br    0.68821   0.13594   0.89162   0.00000  Uiso   1.00
Br694  Br    0.67488   0.09804   0.99472   0.00000  Uiso   1.00
Br695  Br    0.99176   0.23531   0.50529   0.00000  Uiso   1.00
Br696  Br    0.78370   0.28341   0.85131   0.00000  Uiso   1.00
C697   C     0.83291   0.24654   0.75034   0.00000  Uiso   1.00
C698   C     0.85221   0.31087   0.70721   0.00000  Uiso   1.00
C699   C     0.83440   0.04266   0.74982   0.00000  Uiso   1.00
C700   C     0.83227   0.29067   0.75018   0.00000  Uiso   1.00
C701   C     0.98739   0.13737   0.72456   0.00000  Uiso   1.00
C702   C     0.67928   0.19596   0.77544   0.00000  Uiso   1.00
C703   C     0.70132   0.13699   0.72552   0.00000  Uiso   1.00
C704   C     0.96534   0.19634   0.77448   0.00000  Uiso   1.00
C705   C     0.80224   0.16821   0.83841   0.00000  Uiso   1.00
C706   C     0.86443   0.16512   0.66159   0.00000  Uiso   1.00
C707   C     0.78163   0.16767   0.89006   0.00000  Uiso   1.00
C708   C     0.83376   0.08680   0.74966   0.00000  Uiso   1.00
C709   C     0.88503   0.16566   0.60994   0.00000  Uiso   1.00
C710   C     0.73443   0.12620   0.95730   0.00000  Uiso   1.00
C711   C     0.93221   0.20715   0.54271   0.00000  Uiso   1.00
C712   C     0.73881   0.14490   0.91516   0.00000  Uiso   1.00
C713   C     0.92784   0.18845   0.58484   0.00000  Uiso   1.00
C714   C     0.80937   0.18382   0.91438   0.00000  Uiso   1.00
C715   C     0.85729   0.14951   0.58562   0.00000  Uiso   1.00
C716   C     0.80137   0.16799   0.95907   0.00000  Uiso   1.00
C717   C     0.86528   0.16535   0.54094   0.00000  Uiso   1.00
C718   C     0.77195   0.13207   0.97374   0.00000  Uiso   1.00
C719   C     0.82294   0.11056   0.51454   0.00000  Uiso   1.00
C720   C     0.89469   0.20128   0.52627   0.00000  Uiso   1.00
C721   C     0.82833   0.18121   0.98543   0.00000  Uiso   1.00
C722   C     0.83831   0.15214   0.51459   0.00000  Uiso   1.00
C723   C     0.84371   0.22279   0.98547   0.00000  Uiso   1.00
C724   C     0.78605   0.10136   0.99872   0.00000  Uiso   1.00
C725   C     0.88059   0.23199   0.50129   0.00000  Uiso   1.00
C726   C     0.81289   0.31248   0.79298   0.00000  Uiso   1.00
C727   C     0.85379   0.02085   0.70702   0.00000  Uiso   1.00
C728   C     0.81447   0.02246   0.79279   0.00000  Uiso   1.00
F729   F     0.84570   0.07864   0.52735   0.00000  Uiso   1.00
F730   F     0.82096   0.25470   0.97263   0.00000  Uiso   1.00
H731   H     0.72751   0.11272   0.70690   0.00000  Uiso   1.00
H732   H     0.93916   0.22062   0.79310   0.00000  Uiso   1.00
N733   N     0.71426   0.16668   0.75001   0.00000  Uiso   1.00
N734   N     0.95241   0.16666   0.74999   0.00000  Uiso   1.00
O735   O     0.79512   0.22775   0.75000   0.00000  Uiso   1.00
O736   O     0.87154   0.10558   0.74999   0.00000  Uiso   1.00
O737   O     0.87157   0.22774   0.75000   0.00000  Uiso   1.00
O738   O     0.79510   0.10559   0.75000   0.00000  Uiso   1.00
O739   O     0.77328   0.16667   0.81612   0.00000  Uiso   1.00
O740   O     0.89339   0.16666   0.68387   0.00000  Uiso   1.00
O741   O     0.84972   0.16666   0.81612   0.00000  Uiso   1.00
O742   O     0.81695   0.16667   0.68388   0.00000  Uiso   1.00
Zn743  Zn    0.78229   0.16667   0.75000   0.00000  Uiso   1.00
Zn744  Zn    0.88438   0.16666   0.75000   0.00000  Uiso   1.00
Br745  Br    0.10040   0.37694   0.50125   0.00000  Uiso   1.00
Br746  Br    0.21634   0.38326   0.64869   0.00000  Uiso   1.00
Br747  Br    0.12414   0.38720   0.85093   0.00000  Uiso   1.00
Br748  Br    0.20921   0.61280   0.64907   0.00000  Uiso   1.00
Br749  Br    0.30888   0.43065   0.68442   0.00000  Uiso   1.00
Br750  Br    0.02445   0.56934   0.81559   0.00000  Uiso   1.00
Br751  Br    0.23290   0.62307   0.99876   0.00000  Uiso   1.00
Br752  Br    0.13480   0.44746   0.61796   0.00000  Uiso   1.00
Br753  Br    0.19856   0.55249   0.88204   0.00000  Uiso   1.00
Br754  Br    0.31178   0.53075   0.60838   0.00000  Uiso   1.00
Br755  Br    0.02154   0.46927   0.89162   0.00000  Uiso   1.00
Br756  Br    0.00821   0.43138   0.99472   0.00000  Uiso   1.00
Br757  Br    0.32510   0.56865   0.50529   0.00000  Uiso   1.00
Br758  Br    0.11704   0.61674   0.85131   0.00000  Uiso   1.00
C759   C     0.16624   0.57987   0.75034   0.00000  Uiso   1.00
C760   C     0.18554   0.64420   0.70721   0.00000  Uiso   1.00
C761   C     0.16773   0.37600   0.74982   0.00000  Uiso   1.00
C762   C     0.16560   0.62400   0.75018   0.00000  Uiso   1.00
C763   C     0.32072   0.47070   0.72456   0.00000  Uiso   1.00
C764   C     0.01261   0.52930   0.77544   0.00000  Uiso   1.00
C765   C     0.03466   0.47033   0.72552   0.00000  Uiso   1.00
C766   C     0.29868   0.52967   0.77448   0.00000  Uiso   1.00
C767   C     0.13557   0.50154   0.83841   0.00000  Uiso   1.00
C768   C     0.19776   0.49845   0.66159   0.00000  Uiso   1.00
C769   C     0.11496   0.50100   0.89006   0.00000  Uiso   1.00
C770   C     0.16709   0.42013   0.74966   0.00000  Uiso   1.00
C771   C     0.21837   0.49900   0.60994   0.00000  Uiso   1.00
C772   C     0.06777   0.45953   0.95730   0.00000  Uiso   1.00
C773   C     0.26554   0.54048   0.54271   0.00000  Uiso   1.00
C774   C     0.07215   0.47823   0.91516   0.00000  Uiso   1.00
C775   C     0.26117   0.52178   0.58484   0.00000  Uiso   1.00
C776   C     0.14271   0.51716   0.91438   0.00000  Uiso   1.00
C777   C     0.19063   0.48284   0.58562   0.00000  Uiso   1.00
C778   C     0.13470   0.50132   0.95907   0.00000  Uiso   1.00
C779   C     0.19861   0.49869   0.54094   0.00000  Uiso   1.00
C780   C     0.10528   0.46541   0.97374   0.00000  Uiso   1.00
C781   C     0.15627   0.44389   0.51454   0.00000  Uiso   1.00
C782   C     0.22802   0.53461   0.52627   0.00000  Uiso   1.00
C783   C     0.16166   0.51454   0.98543   0.00000  Uiso   1.00
C784   C     0.17164   0.48547   0.51459   0.00000  Uiso   1.00
C785   C     0.17704   0.55612   0.98547   0.00000  Uiso   1.00
C786   C     0.11938   0.43469   0.99872   0.00000  Uiso   1.00
C787   C     0.21392   0.56532   0.50129   0.00000  Uiso   1.00
C788   C     0.14622   0.64582   0.79298   0.00000  Uiso   1.00
C789   C     0.18712   0.35418   0.70702   0.00000  Uiso   1.00
C790   C     0.14780   0.35580   0.79279   0.00000  Uiso   1.00
F791   F     0.17903   0.41198   0.52735   0.00000  Uiso   1.00
F792   F     0.15430   0.58803   0.97263   0.00000  Uiso   1.00
H793   H     0.06084   0.44605   0.70690   0.00000  Uiso   1.00
H794   H     0.27249   0.55395   0.79310   0.00000  Uiso   1.00
N795   N     0.04759   0.50001   0.75001   0.00000  Uiso   1.00
N796   N     0.28574   0.49999   0.74999   0.00000  Uiso   1.00
O797   O     0.12846   0.56108   0.75000   0.00000  Uiso   1.00
O798   O     0.20488   0.43892   0.74999   0.00000  Uiso   1.00
O799   O     0.20490   0.56107   0.75000   0.00000  Uiso   1.00
O800   O     0.12843   0.43893   0.75000   0.00000  Uiso   1.00
O801   O     0.10661   0.50001   0.81612   0.00000  Uiso   1.00
O802   O     0.22672   0.49999   0.68387   0.00000  Uiso   1.00
O803   O     0.18305   0.50000   0.81612   0.00000  Uiso   1.00
O804   O     0.15028   0.50000   0.68388   0.00000  Uiso   1.00
Zn805  Zn    0.11562   0.50001   0.75000   0.00000  Uiso   1.00
Zn806  Zn    0.21771   0.49999   0.75000   0.00000  Uiso   1.00
Br807  Br    0.43374   0.37694   0.50125   0.00000  Uiso   1.00
Br808  Br    0.54967   0.38326   0.64869   0.00000  Uiso   1.00
Br809  Br    0.45748   0.38720   0.85093   0.00000  Uiso   1.00
Br810  Br    0.54255   0.61280   0.64907   0.00000  Uiso   1.00
Br811  Br    0.64221   0.43065   0.68442   0.00000  Uiso   1.00
Br812  Br    0.35779   0.56934   0.81559   0.00000  Uiso   1.00
Br813  Br    0.56623   0.62307   0.99876   0.00000  Uiso   1.00
Br814  Br    0.46813   0.44746   0.61796   0.00000  Uiso   1.00
Br815  Br    0.53189   0.55249   0.88204   0.00000  Uiso   1.00
Br816  Br    0.64511   0.53075   0.60838   0.00000  Uiso   1.00
Br817  Br    0.35488   0.46927   0.89162   0.00000  Uiso   1.00
Br818  Br    0.34154   0.43138   0.99472   0.00000  Uiso   1.00
Br819  Br    0.65843   0.56865   0.50529   0.00000  Uiso   1.00
Br820  Br    0.45037   0.61674   0.85131   0.00000  Uiso   1.00
C821   C     0.49957   0.57987   0.75034   0.00000  Uiso   1.00
C822   C     0.51887   0.64420   0.70721   0.00000  Uiso   1.00
C823   C     0.50107   0.37600   0.74982   0.00000  Uiso   1.00
C824   C     0.49893   0.62400   0.75018   0.00000  Uiso   1.00
C825   C     0.65405   0.47070   0.72456   0.00000  Uiso   1.00
C826   C     0.34595   0.52930   0.77544   0.00000  Uiso   1.00
C827   C     0.36799   0.47033   0.72552   0.00000  Uiso   1.00
C828   C     0.63201   0.52967   0.77448   0.00000  Uiso   1.00
C829   C     0.46890   0.50154   0.83841   0.00000  Uiso   1.00
C830   C     0.53110   0.49845   0.66159   0.00000  Uiso   1.00
C831   C     0.44830   0.50100   0.89006   0.00000  Uiso   1.00
C832   C     0.50043   0.42013   0.74966   0.00000  Uiso   1.00
C833   C     0.55170   0.49900   0.60994   0.00000  Uiso   1.00
C834   C     0.40110   0.45953   0.95730   0.00000  Uiso   1.00
C835   C     0.59888   0.54048   0.54271   0.00000  Uiso   1.00
C836   C     0.40548   0.47823   0.91516   0.00000  Uiso   1.00
C837   C     0.59451   0.52178   0.58484   0.00000  Uiso   1.00
C838   C     0.47604   0.51716   0.91438   0.00000  Uiso   1.00
C839   C     0.52396   0.48284   0.58562   0.00000  Uiso   1.00
C840   C     0.46804   0.50132   0.95907   0.00000  Uiso   1.00
C841   C     0.53194   0.49869   0.54094   0.00000  Uiso   1.00
C842   C     0.43862   0.46541   0.97374   0.00000  Uiso   1.00
C843   C     0.48960   0.44389   0.51454   0.00000  Uiso   1.00
C844   C     0.56136   0.53461   0.52627   0.00000  Uiso   1.00
C845   C     0.49500   0.51454   0.98543   0.00000  Uiso   1.00
C846   C     0.50497   0.48547   0.51459   0.00000  Uiso   1.00
C847   C     0.51037   0.55612   0.98547   0.00000  Uiso   1.00
C848   C     0.45271   0.43469   0.99872   0.00000  Uiso   1.00
C849   C     0.54726   0.56532   0.50129   0.00000  Uiso   1.00
C850   C     0.47956   0.64582   0.79298   0.00000  Uiso   1.00
C851   C     0.52045   0.35418   0.70702   0.00000  Uiso   1.00
C852   C     0.48114   0.35580   0.79279   0.00000  Uiso   1.00
F853   F     0.51237   0.41198   0.52735   0.00000  Uiso   1.00
F854   F     0.48763   0.58803   0.97263   0.00000  Uiso   1.00
H855   H     0.39417   0.44605   0.70690   0.00000  Uiso   1.00
H856   H     0.60583   0.55395   0.79310   0.00000  Uiso   1.00
N857   N     0.38093   0.50001   0.75001   0.00000  Uiso   1.00
N858   N     0.61907   0.49999   0.74999   0.00000  Uiso   1.00
O859   O     0.46179   0.56108   0.75000   0.00000  Uiso   1.00
O860   O     0.53821   0.43892   0.74999   0.00000  Uiso   1.00
O861   O     0.53823   0.56107   0.75000   0.00000  Uiso   1.00
O862   O     0.46177   0.43893   0.75000   0.00000  Uiso   1.00
O863   O     0.43994   0.50001   0.81612   0.00000  Uiso   1.00
O864   O     0.56006   0.49999   0.68387   0.00000  Uiso   1.00
O865   O     0.51639   0.50000   0.81612   0.00000  Uiso   1.00
O866   O     0.48361   0.50000   0.68388   0.00000  Uiso   1.00
Zn867  Zn    0.44896   0.50001   0.75000   0.00000  Uiso   1.00
Zn868  Zn    0.55104   0.49999   0.75000   0.00000  Uiso   1.00
Br869  Br    0.76707   0.37694   0.50125   0.00000  Uiso   1.00
Br870  Br    0.88301   0.38326   0.64869   0.00000  Uiso   1.00
Br871  Br    0.79081   0.38720   0.85093   0.00000  Uiso   1.00
Br872  Br    0.87588   0.61280   0.64907   0.00000  Uiso   1.00
Br873  Br    0.97554   0.43065   0.68442   0.00000  Uiso   1.00
Br874  Br    0.69112   0.56934   0.81559   0.00000  Uiso   1.00
Br875  Br    0.89956   0.62307   0.99876   0.00000  Uiso   1.00
Br876  Br    0.80146   0.44746   0.61796   0.00000  Uiso   1.00
Br877  Br    0.86523   0.55249   0.88204   0.00000  Uiso   1.00
Br878  Br    0.97844   0.53075   0.60838   0.00000  Uiso   1.00
Br879  Br    0.68821   0.46927   0.89162   0.00000  Uiso   1.00
Br880  Br    0.67488   0.43138   0.99472   0.00000  Uiso   1.00
Br881  Br    0.99176   0.56865   0.50529   0.00000  Uiso   1.00
Br882  Br    0.78370   0.61674   0.85131   0.00000  Uiso   1.00
C883   C     0.83291   0.57987   0.75034   0.00000  Uiso   1.00
C884   C     0.85221   0.64420   0.70721   0.00000  Uiso   1.00
C885   C     0.83440   0.37600   0.74982   0.00000  Uiso   1.00
C886   C     0.83227   0.62400   0.75018   0.00000  Uiso   1.00
C887   C     0.98739   0.47070   0.72456   0.00000  Uiso   1.00
C888   C     0.67928   0.52930   0.77544   0.00000  Uiso   1.00
C889   C     0.70132   0.47033   0.72552   0.00000  Uiso   1.00
C890   C     0.96534   0.52967   0.77448   0.00000  Uiso   1.00
C891   C     0.80224   0.50154   0.83841   0.00000  Uiso   1.00
C892   C     0.86443   0.49845   0.66159   0.00000  Uiso   1.00
C893   C     0.78163   0.50100   0.89006   0.00000  Uiso   1.00
C894   C     0.83376   0.42013   0.74966   0.00000  Uiso   1.00
C895   C     0.88503   0.49900   0.60994   0.00000  Uiso   1.00
C896   C     0.73443   0.45953   0.95730   0.00000  Uiso   1.00
C897   C     0.93221   0.54048   0.54271   0.00000  Uiso   1.00
C898   C     0.73881   0.47823   0.91516   0.00000  Uiso   1.00
C899   C     0.92784   0.52178   0.58484   0.00000  Uiso   1.00
C900   C     0.80937   0.51716   0.91438   0.00000  Uiso   1.00
C901   C     0.85729   0.48284   0.58562   0.00000  Uiso   1.00
C902   C     0.80137   0.50132   0.95907   0.00000  Uiso   1.00
C903   C     0.86528   0.49869   0.54094   0.00000  Uiso   1.00
C904   C     0.77195   0.46541   0.97374   0.00000  Uiso   1.00
C905   C     0.82294   0.44389   0.51454   0.00000  Uiso   1.00
C906   C     0.89469   0.53461   0.52627   0.00000  Uiso   1.00
C907   C     0.82833   0.51454   0.98543   0.00000  Uiso   1.00
C908   C     0.83831   0.48547   0.51459   0.00000  Uiso   1.00
C909   C     0.84371   0.55612   0.98547   0.00000  Uiso   1.00
C910   C     0.78605   0.43469   0.99872   0.00000  Uiso   1.00
C911   C     0.88059   0.56532   0.50129   0.00000  Uiso   1.00
C912   C     0.81289   0.64582   0.79298   0.00000  Uiso   1.00
C913   C     0.85379   0.35418   0.70702   0.00000  Uiso   1.00
C914   C     0.81447   0.35580   0.79279   0.00000  Uiso   1.00
F915   F     0.84570   0.41198   0.52735   0.00000  Uiso   1.00
F916   F     0.82096   0.58803   0.97263   0.00000  Uiso   1.00
H917   H     0.72751   0.44605   0.70690   0.00000  Uiso   1.00
H918   H     0.93916   0.55395   0.79310   0.00000  Uiso   1.00
N919   N     0.71426   0.50001   0.75001   0.00000  Uiso   1.00
N920   N     0.95241   0.49999   0.74999   0.00000  Uiso   1.00
O921   O     0.79512   0.56108   0.75000   0.00000  Uiso   1.00
O922   O     0.87154   0.43892   0.74999   0.00000  Uiso   1.00
O923   O     0.87157   0.56107   0.75000   0.00000  Uiso   1.00
O924   O     0.79510   0.43893   0.75000   0.00000  Uiso   1.00
O925   O     0.77328   0.50001   0.81612   0.00000  Uiso   1.00
O926   O     0.89339   0.49999   0.68387   0.00000  Uiso   1.00
O927   O     0.84972   0.50000   0.81612   0.00000  Uiso   1.00
O928   O     0.81695   0.50000   0.68388   0.00000  Uiso   1.00
Zn929  Zn    0.78229   0.50001   0.75000   0.00000  Uiso   1.00
Zn930  Zn    0.88438   0.49999   0.75000   0.00000  Uiso   1.00
Br931  Br    0.10040   0.71028   0.50125   0.00000  Uiso   1.00
Br932  Br    0.21634   0.71659   0.64869   0.00000  Uiso   1.00
Br933  Br    0.12414   0.72053   0.85093   0.00000  Uiso   1.00
Br934  Br    0.20921   0.94614   0.64907   0.00000  Uiso   1.00
Br935  Br    0.30888   0.76399   0.68442   0.00000  Uiso   1.00
Br936  Br    0.02445   0.90268   0.81559   0.00000  Uiso   1.00
Br937  Br    0.23290   0.95641   0.99876   0.00000  Uiso   1.00
Br938  Br    0.13480   0.78080   0.61796   0.00000  Uiso   1.00
Br939  Br    0.19856   0.88583   0.88204   0.00000  Uiso   1.00
Br940  Br    0.31178   0.86408   0.60838   0.00000  Uiso   1.00
Br941  Br    0.02154   0.80260   0.89162   0.00000  Uiso   1.00
Br942  Br    0.00821   0.76471   0.99472   0.00000  Uiso   1.00
Br943  Br    0.32510   0.90198   0.50529   0.00000  Uiso   1.00
Br944  Br    0.11704   0.95008   0.85131   0.00000  Uiso   1.00
C945   C     0.16624   0.91320   0.75034   0.00000  Uiso   1.00
C946   C     0.18554   0.97754   0.70721   0.00000  Uiso   1.00
C947   C     0.16773   0.70933   0.74982   0.00000  Uiso   1.00
C948   C     0.16560   0.95734   0.75018   0.00000  Uiso   1.00
C949   C     0.32072   0.80404   0.72456   0.00000  Uiso   1.00
C950   C     0.01261   0.86263   0.77544   0.00000  Uiso   1.00
C951   C     0.03466   0.80366   0.72552   0.00000  Uiso   1.00
C952   C     0.29868   0.86301   0.77448   0.00000  Uiso   1.00
C953   C     0.13557   0.83488   0.83841   0.00000  Uiso   1.00
C954   C     0.19776   0.83179   0.66159   0.00000  Uiso   1.00
C955   C     0.11496   0.83434   0.89006   0.00000  Uiso   1.00
C956   C     0.16709   0.75346   0.74966   0.00000  Uiso   1.00
C957   C     0.21837   0.83233   0.60994   0.00000  Uiso   1.00
C958   C     0.06777   0.79287   0.95730   0.00000  Uiso   1.00
C959   C     0.26554   0.87382   0.54271   0.00000  Uiso   1.00
C960   C     0.07215   0.81156   0.91516   0.00000  Uiso   1.00
C961   C     0.26117   0.85511   0.58484   0.00000  Uiso   1.00
C962   C     0.14271   0.85049   0.91438   0.00000  Uiso   1.00
C963   C     0.19063   0.81617   0.58562   0.00000  Uiso   1.00
C964   C     0.13470   0.83466   0.95907   0.00000  Uiso   1.00
C965   C     0.19861   0.83202   0.54094   0.00000  Uiso   1.00
C966   C     0.10528   0.79874   0.97374   0.00000  Uiso   1.00
C967   C     0.15627   0.77722   0.51454   0.00000  Uiso   1.00
C968   C     0.22802   0.86794   0.52627   0.00000  Uiso   1.00
C969   C     0.16166   0.84788   0.98543   0.00000  Uiso   1.00
C970   C     0.17164   0.81880   0.51459   0.00000  Uiso   1.00
C971   C     0.17704   0.88945   0.98547   0.00000  Uiso   1.00
C972   C     0.11938   0.76803   0.99872   0.00000  Uiso   1.00
C973   C     0.21392   0.89865   0.50129   0.00000  Uiso   1.00
C974   C     0.14622   0.97915   0.79298   0.00000  Uiso   1.00
C975   C     0.18712   0.68752   0.70702   0.00000  Uiso   1.00
C976   C     0.14780   0.68913   0.79279   0.00000  Uiso   1.00
F977   F     0.17903   0.74531   0.52735   0.00000  Uiso   1.00
F978   F     0.15430   0.92136   0.97263   0.00000  Uiso   1.00
H979   H     0.06084   0.77938   0.70690   0.00000  Uiso   1.00
H980   H     0.27249   0.88728   0.79310   0.00000  Uiso   1.00
N981   N     0.04759   0.83334   0.75001   0.00000  Uiso   1.00
N982   N     0.28574   0.83332   0.74999   0.00000  Uiso   1.00
O983   O     0.12846   0.89442   0.75000   0.00000  Uiso   1.00
O984   O     0.20488   0.77225   0.74999   0.00000  Uiso   1.00
O985   O     0.20490   0.89441   0.75000   0.00000  Uiso   1.00
O986   O     0.12843   0.77226   0.75000   0.00000  Uiso   1.00
O987   O     0.10661   0.83334   0.81612   0.00000  Uiso   1.00
O988   O     0.22672   0.83333   0.68387   0.00000  Uiso   1.00
O989   O     0.18305   0.83333   0.81612   0.00000  Uiso   1.00
O990   O     0.15028   0.83334   0.68388   0.00000  Uiso   1.00
Zn991  Zn    0.11562   0.83334   0.75000   0.00000  Uiso   1.00
Zn992  Zn    0.21771   0.83333   0.75000   0.00000  Uiso   1.00
Br993  Br    0.43374   0.71028   0.50125   0.00000  Uiso   1.00
Br994  Br    0.54967   0.71659   0.64869   0.00000  Uiso   1.00
Br995  Br    0.45748   0.72053   0.85093   0.00000  Uiso   1.00
Br996  Br    0.54255   0.94614   0.64907   0.00000  Uiso   1.00
Br997  Br    0.64221   0.76399   0.68442   0.00000  Uiso   1.00
Br998  Br    0.35779   0.90268   0.81559   0.00000  Uiso   1.00
Br999  Br    0.56623   0.95641   0.99876   0.00000  Uiso   1.00
Br1000 Br    0.46813   0.78080   0.61796   0.00000  Uiso   1.00
Br1001 Br    0.53189   0.88583   0.88204   0.00000  Uiso   1.00
Br1002 Br    0.64511   0.86408   0.60838   0.00000  Uiso   1.00
Br1003 Br    0.35488   0.80260   0.89162   0.00000  Uiso   1.00
Br1004 Br    0.34154   0.76471   0.99472   0.00000  Uiso   1.00
Br1005 Br    0.65843   0.90198   0.50529   0.00000  Uiso   1.00
Br1006 Br    0.45037   0.95008   0.85131   0.00000  Uiso   1.00
C1007  C     0.49957   0.91320   0.75034   0.00000  Uiso   1.00
C1008  C     0.51887   0.97754   0.70721   0.00000  Uiso   1.00
C1009  C     0.50107   0.70933   0.74982   0.00000  Uiso   1.00
C1010  C     0.49893   0.95734   0.75018   0.00000  Uiso   1.00
C1011  C     0.65405   0.80404   0.72456   0.00000  Uiso   1.00
C1012  C     0.34595   0.86263   0.77544   0.00000  Uiso   1.00
C1013  C     0.36799   0.80366   0.72552   0.00000  Uiso   1.00
C1014  C     0.63201   0.86301   0.77448   0.00000  Uiso   1.00
C1015  C     0.46890   0.83488   0.83841   0.00000  Uiso   1.00
C1016  C     0.53110   0.83179   0.66159   0.00000  Uiso   1.00
C1017  C     0.44830   0.83434   0.89006   0.00000  Uiso   1.00
C1018  C     0.50043   0.75346   0.74966   0.00000  Uiso   1.00
C1019  C     0.55170   0.83233   0.60994   0.00000  Uiso   1.00
C1020  C     0.40110   0.79287   0.95730   0.00000  Uiso   1.00
C1021  C     0.59888   0.87382   0.54271   0.00000  Uiso   1.00
C1022  C     0.40548   0.81156   0.91516   0.00000  Uiso   1.00
C1023  C     0.59451   0.85511   0.58484   0.00000  Uiso   1.00
C1024  C     0.47604   0.85049   0.91438   0.00000  Uiso   1.00
C1025  C     0.52396   0.81617   0.58562   0.00000  Uiso   1.00
C1026  C     0.46804   0.83466   0.95907   0.00000  Uiso   1.00
C1027  C     0.53194   0.83202   0.54094   0.00000  Uiso   1.00
C1028  C     0.43862   0.79874   0.97374   0.00000  Uiso   1.00
C1029  C     0.48960   0.77722   0.51454   0.00000  Uiso   1.00
C1030  C     0.56136   0.86794   0.52627   0.00000  Uiso   1.00
C1031  C     0.49500   0.84788   0.98543   0.00000  Uiso   1.00
C1032  C     0.50497   0.81880   0.51459   0.00000  Uiso   1.00
C1033  C     0.51037   0.88945   0.98547   0.00000  Uiso   1.00
C1034  C     0.45271   0.76803   0.99872   0.00000  Uiso   1.00
C1035  C     0.54726   0.89865   0.50129   0.00000  Uiso   1.00
C1036  C     0.47956   0.97915   0.79298   0.00000  Uiso   1.00
C1037  C     0.52045   0.68752   0.70702   0.00000  Uiso   1.00
C1038  C     0.48114   0.68913   0.79279   0.00000  Uiso   1.00
F1039  F     0.51237   0.74531   0.52735   0.00000  Uiso   1.00
F1040  F     0.48763   0.92136   0.97263   0.00000  Uiso   1.00
H1041  H     0.39417   0.77938   0.70690   0.00000  Uiso   1.00
H1042  H     0.60583   0.88728   0.79310   0.00000  Uiso   1.00
N1043  N     0.38093   0.83334   0.75001   0.00000  Uiso   1.00
N1044  N     0.61907   0.83332   0.74999   0.00000  Uiso   1.00
O1045  O     0.46179   0.89442   0.75000   0.00000  Uiso   1.00
O1046  O     0.53821   0.77225   0.74999   0.00000  Uiso   1.00
O1047  O     0.53823   0.89441   0.75000   0.00000  Uiso   1.00
O1048  O     0.46177   0.77226   0.75000   0.00000  Uiso   1.00
O1049  O     0.43994   0.83334   0.81612   0.00000  Uiso   1.00
O1050  O     0.56006   0.83333   0.68387   0.00000  Uiso   1.00
O1051  O     0.51639   0.83333   0.81612   0.00000  Uiso   1.00
O1052  O     0.48361   0.83334   0.68388   0.00000  Uiso   1.00
Zn1053 Zn    0.44896   0.83334   0.75000   0.00000  Uiso   1.00
Zn1054 Zn    0.55104   0.83333   0.75000   0.00000  Uiso   1.00
Br1055 Br    0.76707   0.71028   0.50125   0.00000  Uiso   1.00
Br1056 Br    0.88301   0.71659   0.64869   0.00000  Uiso   1.00
Br1057 Br    0.79081   0.72053   0.85093   0.00000  Uiso   1.00
Br1058 Br    0.87588   0.94614   0.64907   0.00000  Uiso   1.00
Br1059 Br    0.97554   0.76399   0.68442   0.00000  Uiso   1.00
Br1060 Br    0.69112   0.90268   0.81559   0.00000  Uiso   1.00
Br1061 Br    0.89956   0.95641   0.99876   0.00000  Uiso   1.00
Br1062 Br    0.80146   0.78080   0.61796   0.00000  Uiso   1.00
Br1063 Br    0.86523   0.88583   0.88204   0.00000  Uiso   1.00
Br1064 Br    0.97844   0.86408   0.60838   0.00000  Uiso   1.00
Br1065 Br    0.68821   0.80260   0.89162   0.00000  Uiso   1.00
Br1066 Br    0.67488   0.76471   0.99472   0.00000  Uiso   1.00
Br1067 Br    0.99176   0.90198   0.50529   0.00000  Uiso   1.00
Br1068 Br    0.78370   0.95008   0.85131   0.00000  Uiso   1.00
C1069  C     0.83291   0.91320   0.75034   0.00000  Uiso   1.00
C1070  C     0.85221   0.97754   0.70721   0.00000  Uiso   1.00
C1071  C     0.83440   0.70933   0.74982   0.00000  Uiso   1.00
C1072  C     0.83227   0.95734   0.75018   0.00000  Uiso   1.00
C1073  C     0.98739   0.80404   0.72456   0.00000  Uiso   1.00
C1074  C     0.67928   0.86263   0.77544   0.00000  Uiso   1.00
C1075  C     0.70132   0.80366   0.72552   0.00000  Uiso   1.00
C1076  C     0.96534   0.86301   0.77448   0.00000  Uiso   1.00
C1077  C     0.80224   0.83488   0.83841   0.00000  Uiso   1.00
C1078  C     0.86443   0.83179   0.66159   0.00000  Uiso   1.00
C1079  C     0.78163   0.83434   0.89006   0.00000  Uiso   1.00
C1080  C     0.83376   0.75346   0.74966   0.00000  Uiso   1.00
C1081  C     0.88503   0.83233   0.60994   0.00000  Uiso   1.00
C1082  C     0.73443   0.79287   0.95730   0.00000  Uiso   1.00
C1083  C     0.93221   0.87382   0.54271   0.00000  Uiso   1.00
C1084  C     0.73881   0.81156   0.91516   0.00000  Uiso   1.00
C1085  C     0.92784   0.85511   0.58484   0.00000  Uiso   1.00
C1086  C     0.80937   0.85049   0.91438   0.00000  Uiso   1.00
C1087  C     0.85729   0.81617   0.58562   0.00000  Uiso   1.00
C1088  C     0.80137   0.83466   0.95907   0.00000  Uiso   1.00
C1089  C     0.86528   0.83202   0.54094   0.00000  Uiso   1.00
C1090  C     0.77195   0.79874   0.97374   0.00000  Uiso   1.00
C1091  C     0.82294   0.77722   0.51454   0.00000  Uiso   1.00
C1092  C     0.89469   0.86794   0.52627   0.00000  Uiso   1.00
C1093  C     0.82833   0.84788   0.98543   0.00000  Uiso   1.00
C1094  C     0.83831   0.81880   0.51459   0.00000  Uiso   1.00
C1095  C     0.84371   0.88945   0.98547   0.00000  Uiso   1.00
C1096  C     0.78605   0.76803   0.99872   0.00000  Uiso   1.00
C1097  C     0.88059   0.89865   0.50129   0.00000  Uiso   1.00
C1098  C     0.81289   0.97915   0.79298   0.00000  Uiso   1.00
C1099  C     0.85379   0.68752   0.70702   0.00000  Uiso   1.00
C1100  C     0.81447   0.68913   0.79279   0.00000  Uiso   1.00
F1101  F     0.84570   0.74531   0.52735   0.00000  Uiso   1.00
F1102  F     0.82096   0.92136   0.97263   0.00000  Uiso   1.00
H1103  H     0.72751   0.77938   0.70690   0.00000  Uiso   1.00
H1104  H     0.93916   0.88728   0.79310   0.00000  Uiso   1.00
N1105  N     0.71426   0.83334   0.75001   0.00000  Uiso   1.00
N1106  N     0.95241   0.83332   0.74999   0.00000  Uiso   1.00
O1107  O     0.79512   0.89442   0.75000   0.00000  Uiso   1.00
O1108  O     0.87154   0.77225   0.74999   0.00000  Uiso   1.00
O1109  O     0.87157   0.89441   0.75000   0.00000  Uiso   1.00
O1110  O     0.79510   0.77226   0.75000   0.00000  Uiso   1.00
O1111  O     0.77328   0.83334   0.81612   0.00000  Uiso   1.00
O1112  O     0.89339   0.83333   0.68387   0.00000  Uiso   1.00
O1113  O     0.84972   0.83333   0.81612   0.00000  Uiso   1.00
O1114  O     0.81695   0.83334   0.68388   0.00000  Uiso   1.00
Zn1115 Zn    0.78229   0.83334   0.75000   0.00000  Uiso   1.00
Zn1116 Zn    0.88438   0.83333   0.75000   0.00000  Uiso   1.00
loop_
_geom_bond_atom_site_label_1
_geom_bond_atom_site_label_2
_geom_bond_distance
_geom_bond_site_symmetry_2
_ccdc_geom_bond_type
Br1    C600    1.926   1_554 S
Br2    C45     1.929   .     S
Br3    C46     1.928   .     S
Br4    C16     1.928   .     S
Br5    C19     1.907   .     S
Br6    C20     1.907   .     S
Br7    C601    1.926   .     S
Br8    C33     1.947   .     S
Br9    C32     1.947   .     S
Br10   C31     1.933   .     S
Br11   C30     1.933   .     S
Br12   C28     1.931   .     S
Br13   C29     1.931   .     S
Br14   C44     1.929   .     S
C15    C18     1.407   .     S
C15    O53     1.281   .     A
C15    O55     1.283   .     A
C16    C18     1.399   .     A
C16    C231    1.383   .     S
C17    C26     1.407   .     S
C17    C45     1.400   .     A
C17    C46     1.399   .     A
C18    C44     1.399   .     A
C19    N52     1.375   .     A
C19    C83     1.413   .     S
C20    N51     1.375   .     A
C20    C146    1.413   1_455 S
C21    H49     1.078   .     S
C21    N51     1.359   .     A
C21    C143    1.413   1_455 S
C22    H50     1.078   .     S
C22    N52     1.359   .     A
C22    C82     1.413   .     S
C23    O59     1.303   .     A
C23    C25     1.479   .     S
C23    O57     1.298   .     A
C24    C27     1.479   .     S
C24    O60     1.303   .     A
C24    O58     1.298   .     A
C25    C32     1.416   .     A
C25    C30     1.417   .     A
C26    O54     1.281   .     A
C26    O56     1.283   .     A
C27    C33     1.416   .     A
C27    C31     1.417   .     A
C28    C36     1.408   .     A
C28    C30     1.404   .     A
C29    C38     1.408   .     A
C29    C31     1.404   .     A
C32    C34     1.414   .     A
C33    C35     1.414   .     A
C34    C36     1.416   .     A
C34    C39     1.415   .     A
C35    C38     1.416   .     A
C35    C40     1.415   .     A
C36    C42     1.412   .     A
C37    F47     1.360   .     S
C37    C40     1.408   .     A
C37    C600    1.397   1_554 S
C38    C43     1.412   .     A
C39    C41     1.408   .     A
C39    C598    1.410   .     S
C40    C597    1.410   1_554 S
C41    F48     1.360   .     S
C41    C601    1.397   .     S
C42    C595    1.397   .     S
C42    Br559   1.926   .     S
C43    C599    1.397   1_554 S
C43    Br565   1.926   1_554 S
C44    C232    1.383   .     S
C45    C388    1.383   1_545 S
C46    C416    1.383   1_545 S
N51    Zn61    2.016   .     S
N52    Zn62    2.016   .     S
O53    Zn61    1.990   .     S
O54    Zn62    1.990   .     S
O55    Zn62    1.980   .     S
O56    Zn61    1.980   .     S
O57    Zn61    1.967   .     S
O58    Zn62    1.967   .     S
O59    Zn62    1.905   .     S
O60    Zn61    1.905   .     S
Br63   C662    1.926   1_554 S
Br64   C107    1.929   .     S
Br65   C108    1.928   .     S
Br66   C78     1.928   .     S
Br67   C81     1.907   .     S
Br68   C82     1.907   .     S
Br69   C663    1.926   .     S
Br70   C95     1.947   .     S
Br71   C94     1.947   .     S
Br72   C93     1.933   .     S
Br73   C92     1.933   .     S
Br74   C90     1.931   .     S
Br75   C91     1.931   .     S
Br76   C106    1.929   .     S
C77    C80     1.407   .     S
C77    O115    1.281   .     A
C77    O117    1.283   .     A
C78    C80     1.399   .     A
C78    C293    1.383   .     S
C79    C88     1.407   .     S
C79    C107    1.400   .     A
C79    C108    1.399   .     A
C80    C106    1.399   .     A
C81    N114    1.375   .     A
C81    C145    1.413   .     S
C82    N113    1.375   .     A
C83    H111    1.078   .     S
C83    N113    1.359   .     A
C84    H112    1.078   .     S
C84    N114    1.359   .     A
C84    C144    1.413   .     S
C85    O121    1.303   .     A
C85    C87     1.479   .     S
C85    O119    1.298   .     A
C86    C89     1.479   .     S
C86    O122    1.303   .     A
C86    O120    1.298   .     A
C87    C94     1.416   .     A
C87    C92     1.417   .     A
C88    O116    1.281   .     A
C88    O118    1.283   .     A
C89    C95     1.416   .     A
C89    C93     1.417   .     A
C90    C98     1.408   .     A
C90    C92     1.404   .     A
C91    C100    1.408   .     A
C91    C93     1.404   .     A
C94    C96     1.414   .     A
C95    C97     1.414   .     A
C96    C98     1.416   .     A
C96    C101    1.415   .     A
C97    C100    1.416   .     A
C97    C102    1.415   .     A
C98    C104    1.412   .     A
C99    F109    1.360   .     S
C99    C102    1.408   .     A
C99    C662    1.397   1_554 S
C100   C105    1.412   .     A
C101   C103    1.408   .     A
C101   C660    1.410   .     S
C102   C659    1.410   1_554 S
C103   F110    1.360   .     S
C103   C663    1.397   .     S
C104   C657    1.397   .     S
C104   Br621   1.926   .     S
C105   C661    1.397   1_554 S
C105   Br627   1.926   1_554 S
C106   C294    1.383   .     S
C107   C450    1.383   1_545 S
C108   C478    1.383   1_545 S
N113   Zn123   2.016   .     S
N114   Zn124   2.016   .     S
O115   Zn123   1.990   .     S
O116   Zn124   1.990   .     S
O117   Zn124   1.980   .     S
O118   Zn123   1.980   .     S
O119   Zn123   1.967   .     S
O120   Zn124   1.967   .     S
O121   Zn124   1.905   .     S
O122   Zn123   1.905   .     S
Br125  C724    1.926   1_554 S
Br126  C169    1.929   .     S
Br127  C170    1.928   .     S
Br128  C140    1.928   .     S
Br129  C143    1.907   .     S
Br130  C144    1.907   .     S
Br131  C725    1.926   .     S
Br132  C157    1.947   .     S
Br133  C156    1.947   .     S
Br134  C155    1.933   .     S
Br135  C154    1.933   .     S
Br136  C152    1.931   .     S
Br137  C153    1.931   .     S
Br138  C168    1.929   .     S
C139   C142    1.407   .     S
C139   O177    1.281   .     A
C139   O179    1.283   .     A
C140   C142    1.399   .     A
C140   C355    1.383   .     S
C141   C150    1.407   .     S
C141   C169    1.400   .     A
C141   C170    1.399   .     A
C142   C168    1.399   .     A
C143   N176    1.375   .     A
C143   C21     1.413   1_655 S
C144   N175    1.375   .     A
C145   H173    1.078   .     S
C145   N175    1.359   .     A
C146   H174    1.078   .     S
C146   N176    1.359   .     A
C146   C20     1.413   1_655 S
C147   O183    1.303   .     A
C147   C149    1.479   .     S
C147   O181    1.298   .     A
C148   C151    1.479   .     S
C148   O184    1.303   .     A
C148   O182    1.298   .     A
C149   C156    1.416   .     A
C149   C154    1.417   .     A
C150   O178    1.281   .     A
C150   O180    1.283   .     A
C151   C157    1.416   .     A
C151   C155    1.417   .     A
C152   C160    1.408   .     A
C152   C154    1.404   .     A
C153   C162    1.408   .     A
C153   C155    1.404   .     A
C156   C158    1.414   .     A
C157   C159    1.414   .     A
C158   C160    1.416   .     A
C158   C163    1.415   .     A
C159   C162    1.416   .     A
C159   C164    1.415   .     A
C160   C166    1.412   .     A
C161   F171    1.360   .     S
C161   C164    1.408   .     A
C161   C724    1.397   1_554 S
C162   C167    1.412   .     A
C163   C165    1.408   .     A
C163   C722    1.410   .     S
C164   C721    1.410   1_554 S
C165   F172    1.360   .     S
C165   C725    1.397   .     S
C166   C719    1.397   .     S
C166   Br683   1.926   .     S
C167   C723    1.397   1_554 S
C167   Br689   1.926   1_554 S
C168   C356    1.383   .     S
C169   C512    1.383   1_545 S
C170   C540    1.383   1_545 S
N175   Zn185   2.016   .     S
N176   Zn186   2.016   .     S
O177   Zn185   1.990   .     S
O178   Zn186   1.990   .     S
O179   Zn186   1.980   .     S
O180   Zn185   1.980   .     S
O181   Zn185   1.967   .     S
O182   Zn186   1.967   .     S
O183   Zn186   1.905   .     S
O184   Zn185   1.905   .     S
Br187  C786    1.926   1_554 S
Br188  C231    1.929   .     S
Br189  C232    1.928   .     S
Br190  C202    1.928   .     S
Br191  C205    1.907   .     S
Br192  C206    1.907   .     S
Br193  C787    1.926   .     S
Br194  C219    1.947   .     S
Br195  C218    1.947   .     S
Br196  C217    1.933   .     S
Br197  C216    1.933   .     S
Br198  C214    1.931   .     S
Br199  C215    1.931   .     S
Br200  C230    1.929   .     S
C201   C204    1.407   .     S
C201   O239    1.281   .     A
C201   O241    1.283   .     A
C202   C204    1.399   .     A
C202   C417    1.383   .     S
C203   C212    1.407   .     S
C203   C231    1.400   .     A
C203   C232    1.399   .     A
C204   C230    1.399   .     A
C205   N238    1.375   .     A
C205   C269    1.413   .     S
C206   N237    1.375   .     A
C206   C332    1.413   1_455 S
C207   H235    1.078   .     S
C207   N237    1.359   .     A
C207   C329    1.413   1_455 S
C208   H236    1.078   .     S
C208   N238    1.359   .     A
C208   C268    1.413   .     S
C209   O245    1.303   .     A
C209   C211    1.479   .     S
C209   O243    1.298   .     A
C210   C213    1.479   .     S
C210   O246    1.303   .     A
C210   O244    1.298   .     A
C211   C218    1.416   .     A
C211   C216    1.417   .     A
C212   O240    1.281   .     A
C212   O242    1.283   .     A
C213   C219    1.416   .     A
C213   C217    1.417   .     A
C214   C222    1.408   .     A
C214   C216    1.404   .     A
C215   C224    1.408   .     A
C215   C217    1.404   .     A
C218   C220    1.414   .     A
C219   C221    1.414   .     A
C220   C222    1.416   .     A
C220   C225    1.415   .     A
C221   C224    1.416   .     A
C221   C226    1.415   .     A
C222   C228    1.412   .     A
C223   F233    1.360   .     S
C223   C226    1.408   .     A
C223   C786    1.397   1_554 S
C224   C229    1.412   .     A
C225   C227    1.408   .     A
C225   C784    1.410   .     S
C226   C783    1.410   1_554 S
C227   F234    1.360   .     S
C227   C787    1.397   .     S
C228   C781    1.397   .     S
C228   Br745   1.926   .     S
C229   C785    1.397   1_554 S
C229   Br751   1.926   1_554 S
C230   C418    1.383   .     S
N237   Zn247   2.016   .     S
N238   Zn248   2.016   .     S
O239   Zn247   1.990   .     S
O240   Zn248   1.990   .     S
O241   Zn248   1.980   .     S
O242   Zn247   1.980   .     S
O243   Zn247   1.967   .     S
O244   Zn248   1.967   .     S
O245   Zn248   1.905   .     S
O246   Zn247   1.905   .     S
Br249  C848    1.926   1_554 S
Br250  C293    1.929   .     S
Br251  C294    1.928   .     S
Br252  C264    1.928   .     S
Br253  C267    1.907   .     S
Br254  C268    1.907   .     S
Br255  C849    1.926   .     S
Br256  C281    1.947   .     S
Br257  C280    1.947   .     S
Br258  C279    1.933   .     S
Br259  C278    1.933   .     S
Br260  C276    1.931   .     S
Br261  C277    1.931   .     S
Br262  C292    1.929   .     S
C263   C266    1.407   .     S
C263   O301    1.281   .     A
C263   O303    1.283   .     A
C264   C266    1.399   .     A
C264   C479    1.383   .     S
C265   C274    1.407   .     S
C265   C293    1.400   .     A
C265   C294    1.399   .     A
C266   C292    1.399   .     A
C267   N300    1.375   .     A
C267   C331    1.413   .     S
C268   N299    1.375   .     A
C269   H297    1.078   .     S
C269   N299    1.359   .     A
C270   H298    1.078   .     S
C270   N300    1.359   .     A
C270   C330    1.413   .     S
C271   O307    1.303   .     A
C271   C273    1.479   .     S
C271   O305    1.298   .     A
C272   C275    1.479   .     S
C272   O308    1.303   .     A
C272   O306    1.298   .     A
C273   C280    1.416   .     A
C273   C278    1.417   .     A
C274   O302    1.281   .     A
C274   O304    1.283   .     A
C275   C281    1.416   .     A
C275   C279    1.417   .     A
C276   C284    1.408   .     A
C276   C278    1.404   .     A
C277   C286    1.408   .     A
C277   C279    1.404   .     A
C280   C282    1.414   .     A
C281   C283    1.414   .     A
C282   C284    1.416   .     A
C282   C287    1.415   .     A
C283   C286    1.416   .     A
C283   C288    1.415   .     A
C284   C290    1.412   .     A
C285   F295    1.360   .     S
C285   C288    1.408   .     A
C285   C848    1.397   1_554 S
C286   C291    1.412   .     A
C287   C289    1.408   .     A
C287   C846    1.410   .     S
C288   C845    1.410   1_554 S
C289   F296    1.360   .     S
C289   C849    1.397   .     S
C290   C843    1.397   .     S
C290   Br807   1.926   .     S
C291   C847    1.397   1_554 S
C291   Br813   1.926   1_554 S
C292   C480    1.383   .     S
N299   Zn309   2.016   .     S
N300   Zn310   2.016   .     S
O301   Zn309   1.990   .     S
O302   Zn310   1.990   .     S
O303   Zn310   1.980   .     S
O304   Zn309   1.980   .     S
O305   Zn309   1.967   .     S
O306   Zn310   1.967   .     S
O307   Zn310   1.905   .     S
O308   Zn309   1.905   .     S
Br311  C910    1.926   1_554 S
Br312  C355    1.929   .     S
Br313  C356    1.928   .     S
Br314  C326    1.928   .     S
Br315  C329    1.907   .     S
Br316  C330    1.907   .     S
Br317  C911    1.926   .     S
Br318  C343    1.947   .     S
Br319  C342    1.947   .     S
Br320  C341    1.933   .     S
Br321  C340    1.933   .     S
Br322  C338    1.931   .     S
Br323  C339    1.931   .     S
Br324  C354    1.929   .     S
C325   C328    1.407   .     S
C325   O363    1.281   .     A
C325   O365    1.283   .     A
C326   C328    1.399   .     A
C326   C541    1.383   .     S
C327   C336    1.407   .     S
C327   C355    1.400   .     A
C327   C356    1.399   .     A
C328   C354    1.399   .     A
C329   N362    1.375   .     A
C329   C207    1.413   1_655 S
C330   N361    1.375   .     A
C331   H359    1.078   .     S
C331   N361    1.359   .     A
C332   H360    1.078   .     S
C332   N362    1.359   .     A
C332   C206    1.413   1_655 S
C333   O369    1.303   .     A
C333   C335    1.479   .     S
C333   O367    1.298   .     A
C334   C337    1.479   .     S
C334   O370    1.303   .     A
C334   O368    1.298   .     A
C335   C342    1.416   .     A
C335   C340    1.417   .     A
C336   O364    1.281   .     A
C336   O366    1.283   .     A
C337   C343    1.416   .     A
C337   C341    1.417   .     A
C338   C346    1.408   .     A
C338   C340    1.404   .     A
C339   C348    1.408   .     A
C339   C341    1.404   .     A
C342   C344    1.414   .     A
C343   C345    1.414   .     A
C344   C346    1.416   .     A
C344   C349    1.415   .     A
C345   C348    1.416   .     A
C345   C350    1.415   .     A
C346   C352    1.412   .     A
C347   F357    1.360   .     S
C347   C350    1.408   .     A
C347   C910    1.397   1_554 S
C348   C353    1.412   .     A
C349   C351    1.408   .     A
C349   C908    1.410   .     S
C350   C907    1.410   1_554 S
C351   F358    1.360   .     S
C351   C911    1.397   .     S
C352   C905    1.397   .     S
C352   Br869   1.926   .     S
C353   C909    1.397   1_554 S
C353   Br875   1.926   1_554 S
C354   C542    1.383   .     S
N361   Zn371   2.016   .     S
N362   Zn372   2.016   .     S
O363   Zn371   1.990   .     S
O364   Zn372   1.990   .     S
O365   Zn372   1.980   .     S
O366   Zn371   1.980   .     S
O367   Zn371   1.967   .     S
O368   Zn372   1.967   .     S
O369   Zn372   1.905   .     S
O370   Zn371   1.905   .     S
Br373  C972    1.926   1_554 S
Br374  C417    1.929   .     S
Br375  C418    1.928   .     S
Br376  C388    1.928   .     S
Br377  C391    1.907   .     S
Br378  C392    1.907   .     S
Br379  C973    1.926   .     S
Br380  C405    1.947   .     S
Br381  C404    1.947   .     S
Br382  C403    1.933   .     S
Br383  C402    1.933   .     S
Br384  C400    1.931   .     S
Br385  C401    1.931   .     S
Br386  C416    1.929   .     S
C387   C390    1.407   .     S
C387   O425    1.281   .     A
C387   O427    1.283   .     A
C388   C390    1.399   .     A
C388   C45     1.383   1_565 S
C389   C398    1.407   .     S
C389   C417    1.400   .     A
C389   C418    1.399   .     A
C390   C416    1.399   .     A
C391   N424    1.375   .     A
C391   C455    1.413   .     S
C392   N423    1.375   .     A
C392   C518    1.413   1_455 S
C393   H421    1.078   .     S
C393   N423    1.359   .     A
C393   C515    1.413   1_455 S
C394   H422    1.078   .     S
C394   N424    1.359   .     A
C394   C454    1.413   .     S
C395   O431    1.303   .     A
C395   C397    1.479   .     S
C395   O429    1.298   .     A
C396   C399    1.479   .     S
C396   O432    1.303   .     A
C396   O430    1.298   .     A
C397   C404    1.416   .     A
C397   C402    1.417   .     A
C398   O426    1.281   .     A
C398   O428    1.283   .     A
C399   C405    1.416   .     A
C399   C403    1.417   .     A
C400   C408    1.408   .     A
C400   C402    1.404   .     A
C401   C410    1.408   .     A
C401   C403    1.404   .     A
C404   C406    1.414   .     A
C405   C407    1.414   .     A
C406   C408    1.416   .     A
C406   C411    1.415   .     A
C407   C410    1.416   .     A
C407   C412    1.415   .     A
C408   C414    1.412   .     A
C409   F419    1.360   .     S
C409   C412    1.408   .     A
C409   C972    1.397   1_554 S
C410   C415    1.412   .     A
C411   C413    1.408   .     A
C411   C970    1.410   .     S
C412   C969    1.410   1_554 S
C413   F420    1.360   .     S
C413   C973    1.397   .     S
C414   C967    1.397   .     S
C414   Br931   1.926   .     S
C415   C971    1.397   1_554 S
C415   Br937   1.926   1_554 S
C416   C46     1.383   1_565 S
N423   Zn433   2.016   .     S
N424   Zn434   2.016   .     S
O425   Zn433   1.990   .     S
O426   Zn434   1.990   .     S
O427   Zn434   1.980   .     S
O428   Zn433   1.980   .     S
O429   Zn433   1.967   .     S
O430   Zn434   1.967   .     S
O431   Zn434   1.905   .     S
O432   Zn433   1.905   .     S
Br435  C1034   1.926   1_554 S
Br436  C479    1.929   .     S
Br437  C480    1.928   .     S
Br438  C450    1.928   .     S
Br439  C453    1.907   .     S
Br440  C454    1.907   .     S
Br441  C1035   1.926   .     S
Br442  C467    1.947   .     S
Br443  C466    1.947   .     S
Br444  C465    1.933   .     S
Br445  C464    1.933   .     S
Br446  C462    1.931   .     S
Br447  C463    1.931   .     S
Br448  C478    1.929   .     S
C449   C452    1.407   .     S
C449   O487    1.281   .     A
C449   O489    1.283   .     A
C450   C452    1.399   .     A
C450   C107    1.383   1_565 S
C451   C460    1.407   .     S
C451   C479    1.400   .     A
C451   C480    1.399   .     A
C452   C478    1.399   .     A
C453   N486    1.375   .     A
C453   C517    1.413   .     S
C454   N485    1.375   .     A
C455   H483    1.078   .     S
C455   N485    1.359   .     A
C456   H484    1.078   .     S
C456   N486    1.359   .     A
C456   C516    1.413   .     S
C457   O493    1.303   .     A
C457   C459    1.479   .     S
C457   O491    1.298   .     A
C458   C461    1.479   .     S
C458   O494    1.303   .     A
C458   O492    1.298   .     A
C459   C466    1.416   .     A
C459   C464    1.417   .     A
C460   O488    1.281   .     A
C460   O490    1.283   .     A
C461   C467    1.416   .     A
C461   C465    1.417   .     A
C462   C470    1.408   .     A
C462   C464    1.404   .     A
C463   C472    1.408   .     A
C463   C465    1.404   .     A
C466   C468    1.414   .     A
C467   C469    1.414   .     A
C468   C470    1.416   .     A
C468   C473    1.415   .     A
C469   C472    1.416   .     A
C469   C474    1.415   .     A
C470   C476    1.412   .     A
C471   F481    1.360   .     S
C471   C474    1.408   .     A
C471   C1034   1.397   1_554 S
C472   C477    1.412   .     A
C473   C475    1.408   .     A
C473   C1032   1.410   .     S
C474   C1031   1.410   1_554 S
C475   F482    1.360   .     S
C475   C1035   1.397   .     S
C476   C1029   1.397   .     S
C476   Br993   1.926   .     S
C477   C1033   1.397   1_554 S
C477   Br999   1.926   1_554 S
C478   C108    1.383   1_565 S
N485   Zn495   2.016   .     S
N486   Zn496   2.016   .     S
O487   Zn495   1.990   .     S
O488   Zn496   1.990   .     S
O489   Zn496   1.980   .     S
O490   Zn495   1.980   .     S
O491   Zn495   1.967   .     S
O492   Zn496   1.967   .     S
O493   Zn496   1.905   .     S
O494   Zn495   1.905   .     S
Br497  C1096   1.926   1_554 S
Br498  C541    1.929   .     S
Br499  C542    1.928   .     S
Br500  C512    1.928   .     S
Br501  C515    1.907   .     S
Br502  C516    1.907   .     S
Br503  C1097   1.926   .     S
Br504  C529    1.947   .     S
Br505  C528    1.947   .     S
Br506  C527    1.933   .     S
Br507  C526    1.933   .     S
Br508  C524    1.931   .     S
Br509  C525    1.931   .     S
Br510  C540    1.929   .     S
C511   C514    1.407   .     S
C511   O549    1.281   .     A
C511   O551    1.283   .     A
C512   C514    1.399   .     A
C512   C169    1.383   1_565 S
C513   C522    1.407   .     S
C513   C541    1.400   .     A
C513   C542    1.399   .     A
C514   C540    1.399   .     A
C515   N548    1.375   .     A
C515   C393    1.413   1_655 S
C516   N547    1.375   .     A
C517   H545    1.078   .     S
C517   N547    1.359   .     A
C518   H546    1.078   .     S
C518   N548    1.359   .     A
C518   C392    1.413   1_655 S
C519   O555    1.303   .     A
C519   C521    1.479   .     S
C519   O553    1.298   .     A
C520   C523    1.479   .     S
C520   O556    1.303   .     A
C520   O554    1.298   .     A
C521   C528    1.416   .     A
C521   C526    1.417   .     A
C522   O550    1.281   .     A
C522   O552    1.283   .     A
C523   C529    1.416   .     A
C523   C527    1.417   .     A
C524   C532    1.408   .     A
C524   C526    1.404   .     A
C525   C534    1.408   .     A
C525   C527    1.404   .     A
C528   C530    1.414   .     A
C529   C531    1.414   .     A
C530   C532    1.416   .     A
C530   C535    1.415   .     A
C531   C534    1.416   .     A
C531   C536    1.415   .     A
C532   C538    1.412   .     A
C533   F543    1.360   .     S
C533   C536    1.408   .     A
C533   C1096   1.397   1_554 S
C534   C539    1.412   .     A
C535   C537    1.408   .     A
C535   C1094   1.410   .     S
C536   C1093   1.410   1_554 S
C537   F544    1.360   .     S
C537   C1097   1.397   .     S
C538   C1091   1.397   .     S
C538   Br1055  1.926   .     S
C539   C1095   1.397   1_554 S
C539   Br1061  1.926   1_554 S
C540   C170    1.383   1_565 S
N547   Zn557   2.016   .     S
N548   Zn558   2.016   .     S
O549   Zn557   1.990   .     S
O550   Zn558   1.990   .     S
O551   Zn558   1.980   .     S
O552   Zn557   1.980   .     S
O553   Zn557   1.967   .     S
O554   Zn558   1.967   .     S
O555   Zn558   1.905   .     S
O556   Zn557   1.905   .     S
Br560  C603    1.929   .     S
Br561  C604    1.928   .     S
Br562  C574    1.928   .     S
Br563  C577    1.907   .     S
Br564  C578    1.907   .     S
Br565  C43     1.926   1_556 S
Br566  C591    1.947   .     S
Br567  C590    1.947   .     S
Br568  C589    1.933   .     S
Br569  C588    1.933   .     S
Br570  C586    1.931   .     S
Br571  C587    1.931   .     S
Br572  C602    1.929   .     S
C573   C576    1.407   .     S
C573   O611    1.281   .     A
C573   O613    1.283   .     A
C574   C576    1.399   .     A
C574   C789    1.383   .     S
C575   C584    1.407   .     S
C575   C603    1.400   .     A
C575   C604    1.399   .     A
C576   C602    1.399   .     A
C577   N610    1.375   .     A
C577   C641    1.413   .     S
C578   N609    1.375   .     A
C578   C704    1.413   1_455 S
C579   H607    1.078   .     S
C579   N609    1.359   .     A
C579   C701    1.413   1_455 S
C580   H608    1.078   .     S
C580   N610    1.359   .     A
C580   C640    1.413   .     S
C581   O617    1.303   .     A
C581   C583    1.479   .     S
C581   O615    1.298   .     A
C582   C585    1.479   .     S
C582   O618    1.303   .     A
C582   O616    1.298   .     A
C583   C590    1.416   .     A
C583   C588    1.417   .     A
C584   O612    1.281   .     A
C584   O614    1.283   .     A
C585   C591    1.416   .     A
C585   C589    1.417   .     A
C586   C594    1.408   .     A
C586   C588    1.404   .     A
C587   C596    1.408   .     A
C587   C589    1.404   .     A
C590   C592    1.414   .     A
C591   C593    1.414   .     A
C592   C594    1.416   .     A
C592   C597    1.415   .     A
C593   C596    1.416   .     A
C593   C598    1.415   .     A
C594   C600    1.412   .     A
C595   F605    1.360   .     S
C595   C598    1.408   .     A
C596   C601    1.412   .     A
C597   C599    1.408   .     A
C597   C40     1.410   1_556 S
C599   F606    1.360   .     S
C599   C43     1.397   1_556 S
C600   C37     1.397   1_556 S
C600   Br1     1.926   1_556 S
C602   C790    1.383   .     S
C603   C946    1.383   1_545 S
C604   C974    1.383   1_545 S
N609   Zn619   2.016   .     S
N610   Zn620   2.016   .     S
O611   Zn619   1.990   .     S
O612   Zn620   1.990   .     S
O613   Zn620   1.980   .     S
O614   Zn619   1.980   .     S
O615   Zn619   1.967   .     S
O616   Zn620   1.967   .     S
O617   Zn620   1.905   .     S
O618   Zn619   1.905   .     S
Br622  C665    1.929   .     S
Br623  C666    1.928   .     S
Br624  C636    1.928   .     S
Br625  C639    1.907   .     S
Br626  C640    1.907   .     S
Br627  C105    1.926   1_556 S
Br628  C653    1.947   .     S
Br629  C652    1.947   .     S
Br630  C651    1.933   .     S
Br631  C650    1.933   .     S
Br632  C648    1.931   .     S
Br633  C649    1.931   .     S
Br634  C664    1.929   .     S
C635   C638    1.407   .     S
C635   O673    1.281   .     A
C635   O675    1.283   .     A
C636   C638    1.399   .     A
C636   C851    1.383   .     S
C637   C646    1.407   .     S
C637   C665    1.400   .     A
C637   C666    1.399   .     A
C638   C664    1.399   .     A
C639   N672    1.375   .     A
C639   C703    1.413   .     S
C640   N671    1.375   .     A
C641   H669    1.078   .     S
C641   N671    1.359   .     A
C642   H670    1.078   .     S
C642   N672    1.359   .     A
C642   C702    1.413   .     S
C643   O679    1.303   .     A
C643   C645    1.479   .     S
C643   O677    1.298   .     A
C644   C647    1.479   .     S
C644   O680    1.303   .     A
C644   O678    1.298   .     A
C645   C652    1.416   .     A
C645   C650    1.417   .     A
C646   O674    1.281   .     A
C646   O676    1.283   .     A
C647   C653    1.416   .     A
C647   C651    1.417   .     A
C648   C656    1.408   .     A
C648   C650    1.404   .     A
C649   C658    1.408   .     A
C649   C651    1.404   .     A
C652   C654    1.414   .     A
C653   C655    1.414   .     A
C654   C656    1.416   .     A
C654   C659    1.415   .     A
C655   C658    1.416   .     A
C655   C660    1.415   .     A
C656   C662    1.412   .     A
C657   F667    1.360   .     S
C657   C660    1.408   .     A
C658   C663    1.412   .     A
C659   C661    1.408   .     A
C659   C102    1.410   1_556 S
C661   F668    1.360   .     S
C661   C105    1.397   1_556 S
C662   C99     1.397   1_556 S
C662   Br63    1.926   1_556 S
C664   C852    1.383   .     S
C665   C1008   1.383   1_545 S
C666   C1036   1.383   1_545 S
N671   Zn681   2.016   .     S
N672   Zn682   2.016   .     S
O673   Zn681   1.990   .     S
O674   Zn682   1.990   .     S
O675   Zn682   1.980   .     S
O676   Zn681   1.980   .     S
O677   Zn681   1.967   .     S
O678   Zn682   1.967   .     S
O679   Zn682   1.905   .     S
O680   Zn681   1.905   .     S
Br684  C727    1.929   .     S
Br685  C728    1.928   .     S
Br686  C698    1.928   .     S
Br687  C701    1.907   .     S
Br688  C702    1.907   .     S
Br689  C167    1.926   1_556 S
Br690  C715    1.947   .     S
Br691  C714    1.947   .     S
Br692  C713    1.933   .     S
Br693  C712    1.933   .     S
Br694  C710    1.931   .     S
Br695  C711    1.931   .     S
Br696  C726    1.929   .     S
C697   C700    1.407   .     S
C697   O735    1.281   .     A
C697   O737    1.283   .     A
C698   C700    1.399   .     A
C698   C913    1.383   .     S
C699   C708    1.407   .     S
C699   C727    1.400   .     A
C699   C728    1.399   .     A
C700   C726    1.399   .     A
C701   N734    1.375   .     A
C701   C579    1.413   1_655 S
C702   N733    1.375   .     A
C703   H731    1.078   .     S
C703   N733    1.359   .     A
C704   H732    1.078   .     S
C704   N734    1.359   .     A
C704   C578    1.413   1_655 S
C705   O741    1.303   .     A
C705   C707    1.479   .     S
C705   O739    1.298   .     A
C706   C709    1.479   .     S
C706   O742    1.303   .     A
C706   O740    1.298   .     A
C707   C714    1.416   .     A
C707   C712    1.417   .     A
C708   O736    1.281   .     A
C708   O738    1.283   .     A
C709   C715    1.416   .     A
C709   C713    1.417   .     A
C710   C718    1.408   .     A
C710   C712    1.404   .     A
C711   C720    1.408   .     A
C711   C713    1.404   .     A
C714   C716    1.414   .     A
C715   C717    1.414   .     A
C716   C718    1.416   .     A
C716   C721    1.415   .     A
C717   C720    1.416   .     A
C717   C722    1.415   .     A
C718   C724    1.412   .     A
C719   F729    1.360   .     S
C719   C722    1.408   .     A
C720   C725    1.412   .     A
C721   C723    1.408   .     A
C721   C164    1.410   1_556 S
C723   F730    1.360   .     S
C723   C167    1.397   1_556 S
C724   C161    1.397   1_556 S
C724   Br125   1.926   1_556 S
C726   C914    1.383   .     S
C727   C1070   1.383   1_545 S
C728   C1098   1.383   1_545 S
N733   Zn743   2.016   .     S
N734   Zn744   2.016   .     S
O735   Zn743   1.990   .     S
O736   Zn744   1.990   .     S
O737   Zn744   1.980   .     S
O738   Zn743   1.980   .     S
O739   Zn743   1.967   .     S
O740   Zn744   1.967   .     S
O741   Zn744   1.905   .     S
O742   Zn743   1.905   .     S
Br746  C789    1.929   .     S
Br747  C790    1.928   .     S
Br748  C760    1.928   .     S
Br749  C763    1.907   .     S
Br750  C764    1.907   .     S
Br751  C229    1.926   1_556 S
Br752  C777    1.947   .     S
Br753  C776    1.947   .     S
Br754  C775    1.933   .     S
Br755  C774    1.933   .     S
Br756  C772    1.931   .     S
Br757  C773    1.931   .     S
Br758  C788    1.929   .     S
C759   C762    1.407   .     S
C759   O797    1.281   .     A
C759   O799    1.283   .     A
C760   C762    1.399   .     A
C760   C975    1.383   .     S
C761   C770    1.407   .     S
C761   C789    1.400   .     A
C761   C790    1.399   .     A
C762   C788    1.399   .     A
C763   N796    1.375   .     A
C763   C827    1.413   .     S
C764   N795    1.375   .     A
C764   C890    1.413   1_455 S
C765   H793    1.078   .     S
C765   N795    1.359   .     A
C765   C887    1.413   1_455 S
C766   H794    1.078   .     S
C766   N796    1.359   .     A
C766   C826    1.413   .     S
C767   O803    1.303   .     A
C767   C769    1.479   .     S
C767   O801    1.298   .     A
C768   C771    1.479   .     S
C768   O804    1.303   .     A
C768   O802    1.298   .     A
C769   C776    1.416   .     A
C769   C774    1.417   .     A
C770   O798    1.281   .     A
C770   O800    1.283   .     A
C771   C777    1.416   .     A
C771   C775    1.417   .     A
C772   C780    1.408   .     A
C772   C774    1.404   .     A
C773   C782    1.408   .     A
C773   C775    1.404   .     A
C776   C778    1.414   .     A
C777   C779    1.414   .     A
C778   C780    1.416   .     A
C778   C783    1.415   .     A
C779   C782    1.416   .     A
C779   C784    1.415   .     A
C780   C786    1.412   .     A
C781   F791    1.360   .     S
C781   C784    1.408   .     A
C782   C787    1.412   .     A
C783   C785    1.408   .     A
C783   C226    1.410   1_556 S
C785   F792    1.360   .     S
C785   C229    1.397   1_556 S
C786   C223    1.397   1_556 S
C786   Br187   1.926   1_556 S
C788   C976    1.383   .     S
N795   Zn805   2.016   .     S
N796   Zn806   2.016   .     S
O797   Zn805   1.990   .     S
O798   Zn806   1.990   .     S
O799   Zn806   1.980   .     S
O800   Zn805   1.980   .     S
O801   Zn805   1.967   .     S
O802   Zn806   1.967   .     S
O803   Zn806   1.905   .     S
O804   Zn805   1.905   .     S
Br808  C851    1.929   .     S
Br809  C852    1.928   .     S
Br810  C822    1.928   .     S
Br811  C825    1.907   .     S
Br812  C826    1.907   .     S
Br813  C291    1.926   1_556 S
Br814  C839    1.947   .     S
Br815  C838    1.947   .     S
Br816  C837    1.933   .     S
Br817  C836    1.933   .     S
Br818  C834    1.931   .     S
Br819  C835    1.931   .     S
Br820  C850    1.929   .     S
C821   C824    1.407   .     S
C821   O859    1.281   .     A
C821   O861    1.283   .     A
C822   C824    1.399   .     A
C822   C1037   1.383   .     S
C823   C832    1.407   .     S
C823   C851    1.400   .     A
C823   C852    1.399   .     A
C824   C850    1.399   .     A
C825   N858    1.375   .     A
C825   C889    1.413   .     S
C826   N857    1.375   .     A
C827   H855    1.078   .     S
C827   N857    1.359   .     A
C828   H856    1.078   .     S
C828   N858    1.359   .     A
C828   C888    1.413   .     S
C829   O865    1.303   .     A
C829   C831    1.479   .     S
C829   O863    1.298   .     A
C830   C833    1.479   .     S
C830   O866    1.303   .     A
C830   O864    1.298   .     A
C831   C838    1.416   .     A
C831   C836    1.417   .     A
C832   O860    1.281   .     A
C832   O862    1.283   .     A
C833   C839    1.416   .     A
C833   C837    1.417   .     A
C834   C842    1.408   .     A
C834   C836    1.404   .     A
C835   C844    1.408   .     A
C835   C837    1.404   .     A
C838   C840    1.414   .     A
C839   C841    1.414   .     A
C840   C842    1.416   .     A
C840   C845    1.415   .     A
C841   C844    1.416   .     A
C841   C846    1.415   .     A
C842   C848    1.412   .     A
C843   F853    1.360   .     S
C843   C846    1.408   .     A
C844   C849    1.412   .     A
C845   C847    1.408   .     A
C845   C288    1.410   1_556 S
C847   F854    1.360   .     S
C847   C291    1.397   1_556 S
C848   C285    1.397   1_556 S
C848   Br249   1.926   1_556 S
C850   C1038   1.383   .     S
N857   Zn867   2.016   .     S
N858   Zn868   2.016   .     S
O859   Zn867   1.990   .     S
O860   Zn868   1.990   .     S
O861   Zn868   1.980   .     S
O862   Zn867   1.980   .     S
O863   Zn867   1.967   .     S
O864   Zn868   1.967   .     S
O865   Zn868   1.905   .     S
O866   Zn867   1.905   .     S
Br870  C913    1.929   .     S
Br871  C914    1.928   .     S
Br872  C884    1.928   .     S
Br873  C887    1.907   .     S
Br874  C888    1.907   .     S
Br875  C353    1.926   1_556 S
Br876  C901    1.947   .     S
Br877  C900    1.947   .     S
Br878  C899    1.933   .     S
Br879  C898    1.933   .     S
Br880  C896    1.931   .     S
Br881  C897    1.931   .     S
Br882  C912    1.929   .     S
C883   C886    1.407   .     S
C883   O921    1.281   .     A
C883   O923    1.283   .     A
C884   C886    1.399   .     A
C884   C1099   1.383   .     S
C885   C894    1.407   .     S
C885   C913    1.400   .     A
C885   C914    1.399   .     A
C886   C912    1.399   .     A
C887   N920    1.375   .     A
C887   C765    1.413   1_655 S
C888   N919    1.375   .     A
C889   H917    1.078   .     S
C889   N919    1.359   .     A
C890   H918    1.078   .     S
C890   N920    1.359   .     A
C890   C764    1.413   1_655 S
C891   O927    1.303   .     A
C891   C893    1.479   .     S
C891   O925    1.298   .     A
C892   C895    1.479   .     S
C892   O928    1.303   .     A
C892   O926    1.298   .     A
C893   C900    1.416   .     A
C893   C898    1.417   .     A
C894   O922    1.281   .     A
C894   O924    1.283   .     A
C895   C901    1.416   .     A
C895   C899    1.417   .     A
C896   C904    1.408   .     A
C896   C898    1.404   .     A
C897   C906    1.408   .     A
C897   C899    1.404   .     A
C900   C902    1.414   .     A
C901   C903    1.414   .     A
C902   C904    1.416   .     A
C902   C907    1.415   .     A
C903   C906    1.416   .     A
C903   C908    1.415   .     A
C904   C910    1.412   .     A
C905   F915    1.360   .     S
C905   C908    1.408   .     A
C906   C911    1.412   .     A
C907   C909    1.408   .     A
C907   C350    1.410   1_556 S
C909   F916    1.360   .     S
C909   C353    1.397   1_556 S
C910   C347    1.397   1_556 S
C910   Br311   1.926   1_556 S
C912   C1100   1.383   .     S
N919   Zn929   2.016   .     S
N920   Zn930   2.016   .     S
O921   Zn929   1.990   .     S
O922   Zn930   1.990   .     S
O923   Zn930   1.980   .     S
O924   Zn929   1.980   .     S
O925   Zn929   1.967   .     S
O926   Zn930   1.967   .     S
O927   Zn930   1.905   .     S
O928   Zn929   1.905   .     S
Br932  C975    1.929   .     S
Br933  C976    1.928   .     S
Br934  C946    1.928   .     S
Br935  C949    1.907   .     S
Br936  C950    1.907   .     S
Br937  C415    1.926   1_556 S
Br938  C963    1.947   .     S
Br939  C962    1.947   .     S
Br940  C961    1.933   .     S
Br941  C960    1.933   .     S
Br942  C958    1.931   .     S
Br943  C959    1.931   .     S
Br944  C974    1.929   .     S
C945   C948    1.407   .     S
C945   O983    1.281   .     A
C945   O985    1.283   .     A
C946   C948    1.399   .     A
C946   C603    1.383   1_565 S
C947   C956    1.407   .     S
C947   C975    1.400   .     A
C947   C976    1.399   .     A
C948   C974    1.399   .     A
C949   N982    1.375   .     A
C949   C1013   1.413   .     S
C950   N981    1.375   .     A
C950   C1076   1.413   1_455 S
C951   H979    1.078   .     S
C951   N981    1.359   .     A
C951   C1073   1.413   1_455 S
C952   H980    1.078   .     S
C952   N982    1.359   .     A
C952   C1012   1.413   .     S
C953   O989    1.303   .     A
C953   C955    1.479   .     S
C953   O987    1.298   .     A
C954   C957    1.479   .     S
C954   O990    1.303   .     A
C954   O988    1.298   .     A
C955   C962    1.416   .     A
C955   C960    1.417   .     A
C956   O984    1.281   .     A
C956   O986    1.283   .     A
C957   C963    1.416   .     A
C957   C961    1.417   .     A
C958   C966    1.408   .     A
C958   C960    1.404   .     A
C959   C968    1.408   .     A
C959   C961    1.404   .     A
C962   C964    1.414   .     A
C963   C965    1.414   .     A
C964   C966    1.416   .     A
C964   C969    1.415   .     A
C965   C968    1.416   .     A
C965   C970    1.415   .     A
C966   C972    1.412   .     A
C967   F977    1.360   .     S
C967   C970    1.408   .     A
C968   C973    1.412   .     A
C969   C971    1.408   .     A
C969   C412    1.410   1_556 S
C971   F978    1.360   .     S
C971   C415    1.397   1_556 S
C972   C409    1.397   1_556 S
C972   Br373   1.926   1_556 S
C974   C604    1.383   1_565 S
N981   Zn991   2.016   .     S
N982   Zn992   2.016   .     S
O983   Zn991   1.990   .     S
O984   Zn992   1.990   .     S
O985   Zn992   1.980   .     S
O986   Zn991   1.980   .     S
O987   Zn991   1.967   .     S
O988   Zn992   1.967   .     S
O989   Zn992   1.905   .     S
O990   Zn991   1.905   .     S
Br994  C1037   1.929   .     S
Br995  C1038   1.928   .     S
Br996  C1008   1.928   .     S
Br997  C1011   1.907   .     S
Br998  C1012   1.907   .     S
Br999  C477    1.926   1_556 S
Br1000 C1025   1.947   .     S
Br1001 C1024   1.947   .     S
Br1002 C1023   1.933   .     S
Br1003 C1022   1.933   .     S
Br1004 C1020   1.931   .     S
Br1005 C1021   1.931   .     S
Br1006 C1036   1.929   .     S
C1007  C1010   1.407   .     S
C1007  O1045   1.281   .     A
C1007  O1047   1.283   .     A
C1008  C1010   1.399   .     A
C1008  C665    1.383   1_565 S
C1009  C1018   1.407   .     S
C1009  C1037   1.400   .     A
C1009  C1038   1.399   .     A
C1010  C1036   1.399   .     A
C1011  N1044   1.375   .     A
C1011  C1075   1.413   .     S
C1012  N1043   1.375   .     A
C1013  H1041   1.078   .     S
C1013  N1043   1.359   .     A
C1014  H1042   1.078   .     S
C1014  N1044   1.359   .     A
C1014  C1074   1.413   .     S
C1015  O1051   1.303   .     A
C1015  C1017   1.479   .     S
C1015  O1049   1.298   .     A
C1016  C1019   1.479   .     S
C1016  O1052   1.303   .     A
C1016  O1050   1.298   .     A
C1017  C1024   1.416   .     A
C1017  C1022   1.417   .     A
C1018  O1046   1.281   .     A
C1018  O1048   1.283   .     A
C1019  C1025   1.416   .     A
C1019  C1023   1.417   .     A
C1020  C1028   1.408   .     A
C1020  C1022   1.404   .     A
C1021  C1030   1.408   .     A
C1021  C1023   1.404   .     A
C1024  C1026   1.414   .     A
C1025  C1027   1.414   .     A
C1026  C1028   1.416   .     A
C1026  C1031   1.415   .     A
C1027  C1030   1.416   .     A
C1027  C1032   1.415   .     A
C1028  C1034   1.412   .     A
C1029  F1039   1.360   .     S
C1029  C1032   1.408   .     A
C1030  C1035   1.412   .     A
C1031  C1033   1.408   .     A
C1031  C474    1.410   1_556 S
C1033  F1040   1.360   .     S
C1033  C477    1.397   1_556 S
C1034  C471    1.397   1_556 S
C1034  Br435   1.926   1_556 S
C1036  C666    1.383   1_565 S
N1043  Zn1053  2.016   .     S
N1044  Zn1054  2.016   .     S
O1045  Zn1053  1.990   .     S
O1046  Zn1054  1.990   .     S
O1047  Zn1054  1.980   .     S
O1048  Zn1053  1.980   .     S
O1049  Zn1053  1.967   .     S
O1050  Zn1054  1.967   .     S
O1051  Zn1054  1.905   .     S
O1052  Zn1053  1.905   .     S
Br1056 C1099   1.929   .     S
Br1057 C1100   1.928   .     S
Br1058 C1070   1.928   .     S
Br1059 C1073   1.907   .     S
Br1060 C1074   1.907   .     S
Br1061 C539    1.926   1_556 S
Br1062 C1087   1.947   .     S
Br1063 C1086   1.947   .     S
Br1064 C1085   1.933   .     S
Br1065 C1084   1.933   .     S
Br1066 C1082   1.931   .     S
Br1067 C1083   1.931   .     S
Br1068 C1098   1.929   .     S
C1069  C1072   1.407   .     S
C1069  O1107   1.281   .     A
C1069  O1109   1.283   .     A
C1070  C1072   1.399   .     A
C1070  C727    1.383   1_565 S
C1071  C1080   1.407   .     S
C1071  C1099   1.400   .     A
C1071  C1100   1.399   .     A
C1072  C1098   1.399   .     A
C1073  N1106   1.375   .     A
C1073  C951    1.413   1_655 S
C1074  N1105   1.375   .     A
C1075  H1103   1.078   .     S
C1075  N1105   1.359   .     A
C1076  H1104   1.078   .     S
C1076  N1106   1.359   .     A
C1076  C950    1.413   1_655 S
C1077  O1113   1.303   .     A
C1077  C1079   1.479   .     S
C1077  O1111   1.298   .     A
C1078  C1081   1.479   .     S
C1078  O1114   1.303   .     A
C1078  O1112   1.298   .     A
C1079  C1086   1.416   .     A
C1079  C1084   1.417   .     A
C1080  O1108   1.281   .     A
C1080  O1110   1.283   .     A
C1081  C1087   1.416   .     A
C1081  C1085   1.417   .     A
C1082  C1090   1.408   .     A
C1082  C1084   1.404   .     A
C1083  C1092   1.408   .     A
C1083  C1085   1.404   .     A
C1086  C1088   1.414   .     A
C1087  C1089   1.414   .     A
C1088  C1090   1.416   .     A
C1088  C1093   1.415   .     A
C1089  C1092   1.416   .     A
C1089  C1094   1.415   .     A
C1090  C1096   1.412   .     A
C1091  F1101   1.360   .     S
C1091  C1094   1.408   .     A
C1092  C1097   1.412   .     A
C1093  C1095   1.408   .     A
C1093  C536    1.410   1_556 S
C1095  F1102   1.360   .     S
C1095  C539    1.397   1_556 S
C1096  C533    1.397   1_556 S
C1096  Br497   1.926   1_556 S
C1098  C728    1.383   1_565 S
N1105  Zn1115  2.016   .     S
N1106  Zn1116  2.016   .     S
O1107  Zn1115  1.990   .     S
O1108  Zn1116  1.990   .     S
O1109  Zn1116  1.980   .     S
O1110  Zn1115  1.980   .     S
O1111  Zn1115  1.967   .     S
O1112  Zn1116  1.967   .     S
O1113  Zn1116  1.905   .     S
O1114  Zn1115  1.905   .     S
