data_str_m3_o1_o1_pcu_sym.21
_audit_creation_date              2020-01-03
_audit_creation_method            'Materials Studio'
_symmetry_space_group_name_H-M    'P1'
_symmetry_Int_Tables_number       1
_symmetry_cell_setting            triclinic
loop_
_symmetry_equiv_pos_as_xyz
  x,y,z
_cell_length_a                    30.2547
_cell_length_b                    30.0972
_cell_length_c                    29.5977
_cell_angle_alpha                 90.0018
_cell_angle_beta                  90.1589
_cell_angle_gamma                 89.9980
loop_
_atom_site_label
_atom_site_type_symbol
_atom_site_fract_x
_atom_site_fract_y
_atom_site_fract_z
_atom_site_U_iso_or_equiv
_atom_site_adp_type
_atom_site_occupancy
C1     C     0.05993   0.19001   0.16670   0.00000  Uiso   1.00
C2     C     0.49997   0.21098   0.30938   0.00000  Uiso   1.00
C3     C     0.00005   0.21098   0.02395   0.00000  Uiso   1.00
C4     C     0.49995   0.28902   0.30938   0.00000  Uiso   1.00
C5     C     0.25003   0.03902   0.02395   0.00000  Uiso   1.00
C6     C     0.24997   0.46098   0.30938   0.00000  Uiso   1.00
C7     C     0.25005   0.46098   0.02395   0.00000  Uiso   1.00
C8     C     0.24995   0.03902   0.30938   0.00000  Uiso   1.00
C9     C     0.40972   0.12212   0.13553   0.00000  Uiso   1.00
C10    C     0.09030   0.37786   0.19783   0.00000  Uiso   1.00
C11    C     0.12752   0.33998   0.13554   0.00000  Uiso   1.00
C12    C     0.44007   0.30999   0.16664   0.00000  Uiso   1.00
C13    C     0.37246   0.16004   0.19777   0.00000  Uiso   1.00
C14    C     0.09026   0.12210   0.19777   0.00000  Uiso   1.00
C15    C     0.40975   0.37791   0.13557   0.00000  Uiso   1.00
C16    C     0.37243   0.33993   0.19773   0.00000  Uiso   1.00
C17    C     0.12756   0.16006   0.13559   0.00000  Uiso   1.00
C18    C     0.15970   0.37214   0.13550   0.00000  Uiso   1.00
C19    C     0.34028   0.12788   0.19780   0.00000  Uiso   1.00
C20    C     0.37754   0.08996   0.13556   0.00000  Uiso   1.00
C21    C     0.12248   0.41002   0.19780   0.00000  Uiso   1.00
C22    C     0.34025   0.37209   0.19776   0.00000  Uiso   1.00
C23    C     0.44007   0.19001   0.16664   0.00000  Uiso   1.00
C24    C     0.15974   0.12790   0.13556   0.00000  Uiso   1.00
C25    C     0.12244   0.08994   0.19774   0.00000  Uiso   1.00
C26    C     0.37757   0.41007   0.13560   0.00000  Uiso   1.00
C27    C     0.09305   0.34305   0.16672   0.00000  Uiso   1.00
C28    C     0.40695   0.15695   0.16661   0.00000  Uiso   1.00
C29    C     0.40696   0.34305   0.16661   0.00000  Uiso   1.00
C30    C     0.09304   0.15695   0.16672   0.00000  Uiso   1.00
C31    C     0.34305   0.09305   0.16672   0.00000  Uiso   1.00
C32    C     0.15695   0.40695   0.16661   0.00000  Uiso   1.00
C33    C     0.15696   0.09305   0.16661   0.00000  Uiso   1.00
C34    C     0.05993   0.30999   0.16670   0.00000  Uiso   1.00
C35    C     0.34304   0.40695   0.16672   0.00000  Uiso   1.00
C36    C     0.30993   0.44001   0.16670   0.00000  Uiso   1.00
C37    C     0.19007   0.05999   0.16664   0.00000  Uiso   1.00
C38    C     0.19007   0.44001   0.16664   0.00000  Uiso   1.00
C39    C     0.30993   0.05999   0.16670   0.00000  Uiso   1.00
C40    C     0.00003   0.28902   0.02396   0.00000  Uiso   1.00
F41    F     0.00025   0.32817   0.04655   0.00000  Uiso   1.00
F42    F     0.05596   0.38131   0.22711   0.00000  Uiso   1.00
F43    F     0.13055   0.30539   0.10618   0.00000  Uiso   1.00
F44    F     0.36941   0.19465   0.22709   0.00000  Uiso   1.00
F45    F     0.05588   0.11861   0.22699   0.00000  Uiso   1.00
F46    F     0.44414   0.38140   0.10636   0.00000  Uiso   1.00
F47    F     0.36936   0.30529   0.22702   0.00000  Uiso   1.00
F48    F     0.13063   0.19469   0.10630   0.00000  Uiso   1.00
F49    F     0.19404   0.36869   0.10622   0.00000  Uiso   1.00
F50    F     0.30592   0.13135   0.22706   0.00000  Uiso   1.00
F51    F     0.38059   0.05535   0.10624   0.00000  Uiso   1.00
F52    F     0.49975   0.17183   0.28679   0.00000  Uiso   1.00
F53    F     0.11945   0.44461   0.22715   0.00000  Uiso   1.00
F54    F     0.30586   0.36860   0.22698   0.00000  Uiso   1.00
F55    F     0.19412   0.13139   0.10634   0.00000  Uiso   1.00
F56    F     0.11937   0.05531   0.22703   0.00000  Uiso   1.00
F57    F     0.38064   0.44471   0.10632   0.00000  Uiso   1.00
F58    F     0.00029   0.17183   0.04654   0.00000  Uiso   1.00
F59    F     0.49970   0.32817   0.28679   0.00000  Uiso   1.00
F60    F     0.25025   0.07817   0.04655   0.00000  Uiso   1.00
F61    F     0.24975   0.42183   0.28679   0.00000  Uiso   1.00
F62    F     0.25030   0.42183   0.04654   0.00000  Uiso   1.00
F63    F     0.24971   0.07817   0.28679   0.00000  Uiso   1.00
F64    F     0.44408   0.11865   0.10628   0.00000  Uiso   1.00
N65    N     0.00000   0.25000   0.28573   0.00000  Uiso   1.00
N66    N     0.00000   0.25000   0.04760   0.00000  Uiso   1.00
N67    N     0.25000   0.00000   0.28573   0.00000  Uiso   1.00
N68    N     0.25000   0.00000   0.04760   0.00000  Uiso   1.00
O69    O     0.04581   0.20419   0.20487   0.00000  Uiso   1.00
O70    O     0.20420   0.04581   0.12846   0.00000  Uiso   1.00
O71    O     0.20420   0.04581   0.20487   0.00000  Uiso   1.00
O72    O     0.29581   0.45419   0.12846   0.00000  Uiso   1.00
O73    O     0.20420   0.45419   0.12846   0.00000  Uiso   1.00
O74    O     0.29581   0.04581   0.20487   0.00000  Uiso   1.00
O75    O     0.29581   0.04581   0.12846   0.00000  Uiso   1.00
O76    O     0.20420   0.45419   0.20487   0.00000  Uiso   1.00
O77    O     0.45420   0.29581   0.12846   0.00000  Uiso   1.00
O78    O     0.45420   0.29581   0.20487   0.00000  Uiso   1.00
O79    O     0.04581   0.20419   0.12846   0.00000  Uiso   1.00
O80    O     0.45420   0.20419   0.12846   0.00000  Uiso   1.00
O81    O     0.04581   0.29581   0.20487   0.00000  Uiso   1.00
O82    O     0.04581   0.29581   0.12846   0.00000  Uiso   1.00
O83    O     0.45420   0.20419   0.20487   0.00000  Uiso   1.00
O84    O     0.29581   0.45419   0.20487   0.00000  Uiso   1.00
Zn85   Zn    0.00000   0.25000   0.21771   0.00000  Uiso   1.00
Zn86   Zn    0.00000   0.25000   0.11563   0.00000  Uiso   1.00
Zn87   Zn    0.25000   0.00000   0.21771   0.00000  Uiso   1.00
Zn88   Zn    0.25000   0.00000   0.11563   0.00000  Uiso   1.00
C89    C     0.55993   0.19001   0.16670   0.00000  Uiso   1.00
C90    C     0.99997   0.21098   0.30938   0.00000  Uiso   1.00
C91    C     0.50005   0.21098   0.02395   0.00000  Uiso   1.00
C92    C     0.99995   0.28902   0.30938   0.00000  Uiso   1.00
C93    C     0.75003   0.03902   0.02395   0.00000  Uiso   1.00
C94    C     0.74997   0.46098   0.30938   0.00000  Uiso   1.00
C95    C     0.75005   0.46098   0.02395   0.00000  Uiso   1.00
C96    C     0.74995   0.03902   0.30938   0.00000  Uiso   1.00
C97    C     0.90972   0.12212   0.13553   0.00000  Uiso   1.00
C98    C     0.59030   0.37786   0.19783   0.00000  Uiso   1.00
C99    C     0.62752   0.33998   0.13554   0.00000  Uiso   1.00
C100   C     0.94007   0.30999   0.16664   0.00000  Uiso   1.00
C101   C     0.87246   0.16004   0.19777   0.00000  Uiso   1.00
C102   C     0.59026   0.12210   0.19777   0.00000  Uiso   1.00
C103   C     0.90975   0.37791   0.13557   0.00000  Uiso   1.00
C104   C     0.87243   0.33993   0.19773   0.00000  Uiso   1.00
C105   C     0.62756   0.16006   0.13559   0.00000  Uiso   1.00
C106   C     0.65970   0.37214   0.13550   0.00000  Uiso   1.00
C107   C     0.84028   0.12788   0.19780   0.00000  Uiso   1.00
C108   C     0.87754   0.08996   0.13556   0.00000  Uiso   1.00
C109   C     0.62248   0.41002   0.19780   0.00000  Uiso   1.00
C110   C     0.84025   0.37209   0.19776   0.00000  Uiso   1.00
C111   C     0.94007   0.19001   0.16664   0.00000  Uiso   1.00
C112   C     0.65974   0.12790   0.13556   0.00000  Uiso   1.00
C113   C     0.62244   0.08994   0.19774   0.00000  Uiso   1.00
C114   C     0.87757   0.41007   0.13560   0.00000  Uiso   1.00
C115   C     0.59305   0.34305   0.16672   0.00000  Uiso   1.00
C116   C     0.90695   0.15695   0.16661   0.00000  Uiso   1.00
C117   C     0.90696   0.34305   0.16661   0.00000  Uiso   1.00
C118   C     0.59304   0.15695   0.16672   0.00000  Uiso   1.00
C119   C     0.84305   0.09305   0.16672   0.00000  Uiso   1.00
C120   C     0.65695   0.40695   0.16661   0.00000  Uiso   1.00
C121   C     0.65696   0.09305   0.16661   0.00000  Uiso   1.00
C122   C     0.55993   0.30999   0.16670   0.00000  Uiso   1.00
C123   C     0.84304   0.40695   0.16672   0.00000  Uiso   1.00
C124   C     0.80993   0.44001   0.16670   0.00000  Uiso   1.00
C125   C     0.69007   0.05999   0.16664   0.00000  Uiso   1.00
C126   C     0.69007   0.44001   0.16664   0.00000  Uiso   1.00
C127   C     0.80993   0.05999   0.16670   0.00000  Uiso   1.00
C128   C     0.50003   0.28902   0.02396   0.00000  Uiso   1.00
F129   F     0.50025   0.32817   0.04655   0.00000  Uiso   1.00
F130   F     0.55596   0.38131   0.22711   0.00000  Uiso   1.00
F131   F     0.63055   0.30539   0.10618   0.00000  Uiso   1.00
F132   F     0.86941   0.19465   0.22709   0.00000  Uiso   1.00
F133   F     0.55588   0.11861   0.22699   0.00000  Uiso   1.00
F134   F     0.94414   0.38140   0.10636   0.00000  Uiso   1.00
F135   F     0.86936   0.30529   0.22702   0.00000  Uiso   1.00
F136   F     0.63063   0.19469   0.10630   0.00000  Uiso   1.00
F137   F     0.69404   0.36869   0.10622   0.00000  Uiso   1.00
F138   F     0.80592   0.13135   0.22706   0.00000  Uiso   1.00
F139   F     0.88059   0.05535   0.10624   0.00000  Uiso   1.00
F140   F     0.99975   0.17183   0.28679   0.00000  Uiso   1.00
F141   F     0.61945   0.44461   0.22715   0.00000  Uiso   1.00
F142   F     0.80586   0.36860   0.22698   0.00000  Uiso   1.00
F143   F     0.69412   0.13139   0.10634   0.00000  Uiso   1.00
F144   F     0.61937   0.05531   0.22703   0.00000  Uiso   1.00
F145   F     0.88064   0.44471   0.10632   0.00000  Uiso   1.00
F146   F     0.50029   0.17183   0.04654   0.00000  Uiso   1.00
F147   F     0.99970   0.32817   0.28679   0.00000  Uiso   1.00
F148   F     0.75025   0.07817   0.04655   0.00000  Uiso   1.00
F149   F     0.74975   0.42183   0.28679   0.00000  Uiso   1.00
F150   F     0.75030   0.42183   0.04654   0.00000  Uiso   1.00
F151   F     0.74971   0.07817   0.28679   0.00000  Uiso   1.00
F152   F     0.94408   0.11865   0.10628   0.00000  Uiso   1.00
N153   N     0.50000   0.25000   0.28573   0.00000  Uiso   1.00
N154   N     0.50000   0.25000   0.04760   0.00000  Uiso   1.00
N155   N     0.75000   0.00000   0.28573   0.00000  Uiso   1.00
N156   N     0.75000   0.00000   0.04760   0.00000  Uiso   1.00
O157   O     0.54581   0.20419   0.20487   0.00000  Uiso   1.00
O158   O     0.70420   0.04581   0.12846   0.00000  Uiso   1.00
O159   O     0.70420   0.04581   0.20487   0.00000  Uiso   1.00
O160   O     0.79581   0.45419   0.12846   0.00000  Uiso   1.00
O161   O     0.70420   0.45419   0.12846   0.00000  Uiso   1.00
O162   O     0.79581   0.04581   0.20487   0.00000  Uiso   1.00
O163   O     0.79581   0.04581   0.12846   0.00000  Uiso   1.00
O164   O     0.70420   0.45419   0.20487   0.00000  Uiso   1.00
O165   O     0.95420   0.29581   0.12846   0.00000  Uiso   1.00
O166   O     0.95420   0.29581   0.20487   0.00000  Uiso   1.00
O167   O     0.54581   0.20419   0.12846   0.00000  Uiso   1.00
O168   O     0.95420   0.20419   0.12846   0.00000  Uiso   1.00
O169   O     0.54581   0.29581   0.20487   0.00000  Uiso   1.00
O170   O     0.54581   0.29581   0.12846   0.00000  Uiso   1.00
O171   O     0.95420   0.20419   0.20487   0.00000  Uiso   1.00
O172   O     0.79581   0.45419   0.20487   0.00000  Uiso   1.00
Zn173  Zn    0.50000   0.25000   0.21771   0.00000  Uiso   1.00
Zn174  Zn    0.50000   0.25000   0.11563   0.00000  Uiso   1.00
Zn175  Zn    0.75000   0.00000   0.21771   0.00000  Uiso   1.00
Zn176  Zn    0.75000   0.00000   0.11563   0.00000  Uiso   1.00
C177   C     0.05993   0.69001   0.16670   0.00000  Uiso   1.00
C178   C     0.49997   0.71098   0.30938   0.00000  Uiso   1.00
C179   C     0.00005   0.71098   0.02395   0.00000  Uiso   1.00
C180   C     0.49995   0.78902   0.30938   0.00000  Uiso   1.00
C181   C     0.25003   0.53902   0.02395   0.00000  Uiso   1.00
C182   C     0.24997   0.96098   0.30938   0.00000  Uiso   1.00
C183   C     0.25005   0.96098   0.02395   0.00000  Uiso   1.00
C184   C     0.24995   0.53902   0.30938   0.00000  Uiso   1.00
C185   C     0.40972   0.62212   0.13553   0.00000  Uiso   1.00
C186   C     0.09030   0.87786   0.19783   0.00000  Uiso   1.00
C187   C     0.12752   0.83998   0.13554   0.00000  Uiso   1.00
C188   C     0.44007   0.80999   0.16664   0.00000  Uiso   1.00
C189   C     0.37246   0.66004   0.19777   0.00000  Uiso   1.00
C190   C     0.09026   0.62210   0.19777   0.00000  Uiso   1.00
C191   C     0.40975   0.87791   0.13557   0.00000  Uiso   1.00
C192   C     0.37243   0.83993   0.19773   0.00000  Uiso   1.00
C193   C     0.12756   0.66006   0.13559   0.00000  Uiso   1.00
C194   C     0.15970   0.87214   0.13550   0.00000  Uiso   1.00
C195   C     0.34028   0.62788   0.19780   0.00000  Uiso   1.00
C196   C     0.37754   0.58996   0.13556   0.00000  Uiso   1.00
C197   C     0.12248   0.91002   0.19780   0.00000  Uiso   1.00
C198   C     0.34025   0.87209   0.19776   0.00000  Uiso   1.00
C199   C     0.44007   0.69001   0.16664   0.00000  Uiso   1.00
C200   C     0.15974   0.62790   0.13556   0.00000  Uiso   1.00
C201   C     0.12244   0.58994   0.19774   0.00000  Uiso   1.00
C202   C     0.37757   0.91007   0.13560   0.00000  Uiso   1.00
C203   C     0.09305   0.84305   0.16672   0.00000  Uiso   1.00
C204   C     0.40695   0.65695   0.16661   0.00000  Uiso   1.00
C205   C     0.40696   0.84305   0.16661   0.00000  Uiso   1.00
C206   C     0.09304   0.65695   0.16672   0.00000  Uiso   1.00
C207   C     0.34305   0.59305   0.16672   0.00000  Uiso   1.00
C208   C     0.15695   0.90695   0.16661   0.00000  Uiso   1.00
C209   C     0.15696   0.59305   0.16661   0.00000  Uiso   1.00
C210   C     0.05993   0.80999   0.16670   0.00000  Uiso   1.00
C211   C     0.34304   0.90695   0.16672   0.00000  Uiso   1.00
C212   C     0.30993   0.94001   0.16670   0.00000  Uiso   1.00
C213   C     0.19007   0.55999   0.16664   0.00000  Uiso   1.00
C214   C     0.19007   0.94001   0.16664   0.00000  Uiso   1.00
C215   C     0.30993   0.55999   0.16670   0.00000  Uiso   1.00
C216   C     0.00003   0.78902   0.02396   0.00000  Uiso   1.00
F217   F     0.00025   0.82817   0.04655   0.00000  Uiso   1.00
F218   F     0.05596   0.88131   0.22711   0.00000  Uiso   1.00
F219   F     0.13055   0.80539   0.10618   0.00000  Uiso   1.00
F220   F     0.36941   0.69465   0.22709   0.00000  Uiso   1.00
F221   F     0.05588   0.61861   0.22699   0.00000  Uiso   1.00
F222   F     0.44414   0.88140   0.10636   0.00000  Uiso   1.00
F223   F     0.36936   0.80529   0.22702   0.00000  Uiso   1.00
F224   F     0.13063   0.69469   0.10630   0.00000  Uiso   1.00
F225   F     0.19404   0.86869   0.10622   0.00000  Uiso   1.00
F226   F     0.30592   0.63135   0.22706   0.00000  Uiso   1.00
F227   F     0.38059   0.55535   0.10624   0.00000  Uiso   1.00
F228   F     0.49975   0.67183   0.28679   0.00000  Uiso   1.00
F229   F     0.11945   0.94461   0.22715   0.00000  Uiso   1.00
F230   F     0.30586   0.86860   0.22698   0.00000  Uiso   1.00
F231   F     0.19412   0.63139   0.10634   0.00000  Uiso   1.00
F232   F     0.11937   0.55531   0.22703   0.00000  Uiso   1.00
F233   F     0.38064   0.94471   0.10632   0.00000  Uiso   1.00
F234   F     0.00029   0.67183   0.04654   0.00000  Uiso   1.00
F235   F     0.49970   0.82817   0.28679   0.00000  Uiso   1.00
F236   F     0.25025   0.57817   0.04655   0.00000  Uiso   1.00
F237   F     0.24975   0.92183   0.28679   0.00000  Uiso   1.00
F238   F     0.25030   0.92183   0.04654   0.00000  Uiso   1.00
F239   F     0.24971   0.57817   0.28679   0.00000  Uiso   1.00
F240   F     0.44408   0.61865   0.10628   0.00000  Uiso   1.00
N241   N     0.00000   0.75000   0.28573   0.00000  Uiso   1.00
N242   N     0.00000   0.75000   0.04760   0.00000  Uiso   1.00
N243   N     0.25000   0.50000   0.28573   0.00000  Uiso   1.00
N244   N     0.25000   0.50000   0.04760   0.00000  Uiso   1.00
O245   O     0.04581   0.70419   0.20487   0.00000  Uiso   1.00
O246   O     0.20420   0.54581   0.12846   0.00000  Uiso   1.00
O247   O     0.20420   0.54581   0.20487   0.00000  Uiso   1.00
O248   O     0.29581   0.95419   0.12846   0.00000  Uiso   1.00
O249   O     0.20420   0.95419   0.12846   0.00000  Uiso   1.00
O250   O     0.29581   0.54581   0.20487   0.00000  Uiso   1.00
O251   O     0.29581   0.54581   0.12846   0.00000  Uiso   1.00
O252   O     0.20420   0.95419   0.20487   0.00000  Uiso   1.00
O253   O     0.45420   0.79581   0.12846   0.00000  Uiso   1.00
O254   O     0.45420   0.79581   0.20487   0.00000  Uiso   1.00
O255   O     0.04581   0.70419   0.12846   0.00000  Uiso   1.00
O256   O     0.45420   0.70419   0.12846   0.00000  Uiso   1.00
O257   O     0.04581   0.79581   0.20487   0.00000  Uiso   1.00
O258   O     0.04581   0.79581   0.12846   0.00000  Uiso   1.00
O259   O     0.45420   0.70419   0.20487   0.00000  Uiso   1.00
O260   O     0.29581   0.95419   0.20487   0.00000  Uiso   1.00
Zn261  Zn    0.00000   0.75000   0.21771   0.00000  Uiso   1.00
Zn262  Zn    0.00000   0.75000   0.11563   0.00000  Uiso   1.00
Zn263  Zn    0.25000   0.50000   0.21771   0.00000  Uiso   1.00
Zn264  Zn    0.25000   0.50000   0.11563   0.00000  Uiso   1.00
C265   C     0.55993   0.69001   0.16670   0.00000  Uiso   1.00
C266   C     0.99997   0.71098   0.30938   0.00000  Uiso   1.00
C267   C     0.50005   0.71098   0.02395   0.00000  Uiso   1.00
C268   C     0.99995   0.78902   0.30938   0.00000  Uiso   1.00
C269   C     0.75003   0.53902   0.02395   0.00000  Uiso   1.00
C270   C     0.74997   0.96098   0.30938   0.00000  Uiso   1.00
C271   C     0.75005   0.96098   0.02395   0.00000  Uiso   1.00
C272   C     0.74995   0.53902   0.30938   0.00000  Uiso   1.00
C273   C     0.90972   0.62212   0.13553   0.00000  Uiso   1.00
C274   C     0.59030   0.87786   0.19783   0.00000  Uiso   1.00
C275   C     0.62752   0.83998   0.13554   0.00000  Uiso   1.00
C276   C     0.94007   0.80999   0.16664   0.00000  Uiso   1.00
C277   C     0.87246   0.66004   0.19777   0.00000  Uiso   1.00
C278   C     0.59026   0.62210   0.19777   0.00000  Uiso   1.00
C279   C     0.90975   0.87791   0.13557   0.00000  Uiso   1.00
C280   C     0.87243   0.83993   0.19773   0.00000  Uiso   1.00
C281   C     0.62756   0.66006   0.13559   0.00000  Uiso   1.00
C282   C     0.65970   0.87214   0.13550   0.00000  Uiso   1.00
C283   C     0.84028   0.62788   0.19780   0.00000  Uiso   1.00
C284   C     0.87754   0.58996   0.13556   0.00000  Uiso   1.00
C285   C     0.62248   0.91002   0.19780   0.00000  Uiso   1.00
C286   C     0.84025   0.87209   0.19776   0.00000  Uiso   1.00
C287   C     0.94007   0.69001   0.16664   0.00000  Uiso   1.00
C288   C     0.65974   0.62790   0.13556   0.00000  Uiso   1.00
C289   C     0.62244   0.58994   0.19774   0.00000  Uiso   1.00
C290   C     0.87757   0.91007   0.13560   0.00000  Uiso   1.00
C291   C     0.59305   0.84305   0.16672   0.00000  Uiso   1.00
C292   C     0.90695   0.65695   0.16661   0.00000  Uiso   1.00
C293   C     0.90696   0.84305   0.16661   0.00000  Uiso   1.00
C294   C     0.59304   0.65695   0.16672   0.00000  Uiso   1.00
C295   C     0.84305   0.59305   0.16672   0.00000  Uiso   1.00
C296   C     0.65695   0.90695   0.16661   0.00000  Uiso   1.00
C297   C     0.65696   0.59305   0.16661   0.00000  Uiso   1.00
C298   C     0.55993   0.80999   0.16670   0.00000  Uiso   1.00
C299   C     0.84304   0.90695   0.16672   0.00000  Uiso   1.00
C300   C     0.80993   0.94001   0.16670   0.00000  Uiso   1.00
C301   C     0.69007   0.55999   0.16664   0.00000  Uiso   1.00
C302   C     0.69007   0.94001   0.16664   0.00000  Uiso   1.00
C303   C     0.80993   0.55999   0.16670   0.00000  Uiso   1.00
C304   C     0.50003   0.78902   0.02396   0.00000  Uiso   1.00
F305   F     0.50025   0.82817   0.04655   0.00000  Uiso   1.00
F306   F     0.55596   0.88131   0.22711   0.00000  Uiso   1.00
F307   F     0.63055   0.80539   0.10618   0.00000  Uiso   1.00
F308   F     0.86941   0.69465   0.22709   0.00000  Uiso   1.00
F309   F     0.55588   0.61861   0.22699   0.00000  Uiso   1.00
F310   F     0.94414   0.88140   0.10636   0.00000  Uiso   1.00
F311   F     0.86936   0.80529   0.22702   0.00000  Uiso   1.00
F312   F     0.63063   0.69469   0.10630   0.00000  Uiso   1.00
F313   F     0.69404   0.86869   0.10622   0.00000  Uiso   1.00
F314   F     0.80592   0.63135   0.22706   0.00000  Uiso   1.00
F315   F     0.88059   0.55535   0.10624   0.00000  Uiso   1.00
F316   F     0.99975   0.67183   0.28679   0.00000  Uiso   1.00
F317   F     0.61945   0.94461   0.22715   0.00000  Uiso   1.00
F318   F     0.80586   0.86860   0.22698   0.00000  Uiso   1.00
F319   F     0.69412   0.63139   0.10634   0.00000  Uiso   1.00
F320   F     0.61937   0.55531   0.22703   0.00000  Uiso   1.00
F321   F     0.88064   0.94471   0.10632   0.00000  Uiso   1.00
F322   F     0.50029   0.67183   0.04654   0.00000  Uiso   1.00
F323   F     0.99970   0.82817   0.28679   0.00000  Uiso   1.00
F324   F     0.75025   0.57817   0.04655   0.00000  Uiso   1.00
F325   F     0.74975   0.92183   0.28679   0.00000  Uiso   1.00
F326   F     0.75030   0.92183   0.04654   0.00000  Uiso   1.00
F327   F     0.74971   0.57817   0.28679   0.00000  Uiso   1.00
F328   F     0.94408   0.61865   0.10628   0.00000  Uiso   1.00
N329   N     0.50000   0.75000   0.28573   0.00000  Uiso   1.00
N330   N     0.50000   0.75000   0.04760   0.00000  Uiso   1.00
N331   N     0.75000   0.50000   0.28573   0.00000  Uiso   1.00
N332   N     0.75000   0.50000   0.04760   0.00000  Uiso   1.00
O333   O     0.54581   0.70419   0.20487   0.00000  Uiso   1.00
O334   O     0.70420   0.54581   0.12846   0.00000  Uiso   1.00
O335   O     0.70420   0.54581   0.20487   0.00000  Uiso   1.00
O336   O     0.79581   0.95419   0.12846   0.00000  Uiso   1.00
O337   O     0.70420   0.95419   0.12846   0.00000  Uiso   1.00
O338   O     0.79581   0.54581   0.20487   0.00000  Uiso   1.00
O339   O     0.79581   0.54581   0.12846   0.00000  Uiso   1.00
O340   O     0.70420   0.95419   0.20487   0.00000  Uiso   1.00
O341   O     0.95420   0.79581   0.12846   0.00000  Uiso   1.00
O342   O     0.95420   0.79581   0.20487   0.00000  Uiso   1.00
O343   O     0.54581   0.70419   0.12846   0.00000  Uiso   1.00
O344   O     0.95420   0.70419   0.12846   0.00000  Uiso   1.00
O345   O     0.54581   0.79581   0.20487   0.00000  Uiso   1.00
O346   O     0.54581   0.79581   0.12846   0.00000  Uiso   1.00
O347   O     0.95420   0.70419   0.20487   0.00000  Uiso   1.00
O348   O     0.79581   0.95419   0.20487   0.00000  Uiso   1.00
Zn349  Zn    0.50000   0.75000   0.21771   0.00000  Uiso   1.00
Zn350  Zn    0.50000   0.75000   0.11563   0.00000  Uiso   1.00
Zn351  Zn    0.75000   0.50000   0.21771   0.00000  Uiso   1.00
Zn352  Zn    0.75000   0.50000   0.11563   0.00000  Uiso   1.00
C353   C     0.05993   0.19001   0.50003   0.00000  Uiso   1.00
C354   C     0.49997   0.21098   0.64271   0.00000  Uiso   1.00
C355   C     0.00005   0.21098   0.35729   0.00000  Uiso   1.00
C356   C     0.49995   0.28902   0.64271   0.00000  Uiso   1.00
C357   C     0.25003   0.03902   0.35729   0.00000  Uiso   1.00
C358   C     0.24997   0.46098   0.64271   0.00000  Uiso   1.00
C359   C     0.25005   0.46098   0.35729   0.00000  Uiso   1.00
C360   C     0.24995   0.03902   0.64271   0.00000  Uiso   1.00
C361   C     0.40972   0.12212   0.46886   0.00000  Uiso   1.00
C362   C     0.09030   0.37786   0.53117   0.00000  Uiso   1.00
C363   C     0.12752   0.33998   0.46887   0.00000  Uiso   1.00
C364   C     0.44007   0.30999   0.49997   0.00000  Uiso   1.00
C365   C     0.37246   0.16004   0.53110   0.00000  Uiso   1.00
C366   C     0.09026   0.12210   0.53111   0.00000  Uiso   1.00
C367   C     0.40975   0.37791   0.46890   0.00000  Uiso   1.00
C368   C     0.37243   0.33993   0.53106   0.00000  Uiso   1.00
C369   C     0.12756   0.16006   0.46893   0.00000  Uiso   1.00
C370   C     0.15970   0.37214   0.46883   0.00000  Uiso   1.00
C371   C     0.34028   0.12788   0.53114   0.00000  Uiso   1.00
C372   C     0.37754   0.08996   0.46890   0.00000  Uiso   1.00
C373   C     0.12248   0.41002   0.53113   0.00000  Uiso   1.00
C374   C     0.34025   0.37209   0.53110   0.00000  Uiso   1.00
C375   C     0.44007   0.19001   0.49997   0.00000  Uiso   1.00
C376   C     0.15974   0.12790   0.46889   0.00000  Uiso   1.00
C377   C     0.12244   0.08994   0.53107   0.00000  Uiso   1.00
C378   C     0.37757   0.41007   0.46894   0.00000  Uiso   1.00
C379   C     0.09305   0.34305   0.50005   0.00000  Uiso   1.00
C380   C     0.40695   0.15695   0.49995   0.00000  Uiso   1.00
C381   C     0.40696   0.34305   0.49995   0.00000  Uiso   1.00
C382   C     0.09304   0.15695   0.50005   0.00000  Uiso   1.00
C383   C     0.34305   0.09305   0.50005   0.00000  Uiso   1.00
C384   C     0.15695   0.40695   0.49995   0.00000  Uiso   1.00
C385   C     0.15696   0.09305   0.49995   0.00000  Uiso   1.00
C386   C     0.05993   0.30999   0.50003   0.00000  Uiso   1.00
C387   C     0.34304   0.40695   0.50005   0.00000  Uiso   1.00
C388   C     0.30993   0.44001   0.50003   0.00000  Uiso   1.00
C389   C     0.19007   0.05999   0.49997   0.00000  Uiso   1.00
C390   C     0.19007   0.44001   0.49997   0.00000  Uiso   1.00
C391   C     0.30993   0.05999   0.50003   0.00000  Uiso   1.00
C392   C     0.00003   0.28902   0.35729   0.00000  Uiso   1.00
F393   F     0.00025   0.32817   0.37988   0.00000  Uiso   1.00
F394   F     0.05596   0.38131   0.56045   0.00000  Uiso   1.00
F395   F     0.13055   0.30539   0.43952   0.00000  Uiso   1.00
F396   F     0.36941   0.19465   0.56043   0.00000  Uiso   1.00
F397   F     0.05588   0.11861   0.56033   0.00000  Uiso   1.00
F398   F     0.44414   0.38140   0.43969   0.00000  Uiso   1.00
F399   F     0.36936   0.30529   0.56035   0.00000  Uiso   1.00
F400   F     0.13063   0.19469   0.43963   0.00000  Uiso   1.00
F401   F     0.19404   0.36869   0.43955   0.00000  Uiso   1.00
F402   F     0.30592   0.13135   0.56039   0.00000  Uiso   1.00
F403   F     0.38059   0.05535   0.43957   0.00000  Uiso   1.00
F404   F     0.49975   0.17183   0.62012   0.00000  Uiso   1.00
F405   F     0.11945   0.44461   0.56048   0.00000  Uiso   1.00
F406   F     0.30586   0.36860   0.56031   0.00000  Uiso   1.00
F407   F     0.19412   0.13139   0.43967   0.00000  Uiso   1.00
F408   F     0.11937   0.05531   0.56037   0.00000  Uiso   1.00
F409   F     0.38064   0.44471   0.43965   0.00000  Uiso   1.00
F410   F     0.00029   0.17183   0.37988   0.00000  Uiso   1.00
F411   F     0.49970   0.32817   0.62013   0.00000  Uiso   1.00
F412   F     0.25025   0.07817   0.37988   0.00000  Uiso   1.00
F413   F     0.24975   0.42183   0.62012   0.00000  Uiso   1.00
F414   F     0.25030   0.42183   0.37987   0.00000  Uiso   1.00
F415   F     0.24971   0.07817   0.62012   0.00000  Uiso   1.00
F416   F     0.44408   0.11865   0.43961   0.00000  Uiso   1.00
N417   N     0.00000   0.25000   0.61907   0.00000  Uiso   1.00
N418   N     0.00000   0.25000   0.38093   0.00000  Uiso   1.00
N419   N     0.25000   0.00000   0.61907   0.00000  Uiso   1.00
N420   N     0.25000   0.00000   0.38093   0.00000  Uiso   1.00
O421   O     0.04581   0.20419   0.53821   0.00000  Uiso   1.00
O422   O     0.20420   0.04581   0.46179   0.00000  Uiso   1.00
O423   O     0.20420   0.04581   0.53821   0.00000  Uiso   1.00
O424   O     0.29581   0.45419   0.46179   0.00000  Uiso   1.00
O425   O     0.20420   0.45419   0.46179   0.00000  Uiso   1.00
O426   O     0.29581   0.04581   0.53821   0.00000  Uiso   1.00
O427   O     0.29581   0.04581   0.46179   0.00000  Uiso   1.00
O428   O     0.20420   0.45419   0.53821   0.00000  Uiso   1.00
O429   O     0.45420   0.29581   0.46179   0.00000  Uiso   1.00
O430   O     0.45420   0.29581   0.53821   0.00000  Uiso   1.00
O431   O     0.04581   0.20419   0.46179   0.00000  Uiso   1.00
O432   O     0.45420   0.20419   0.46179   0.00000  Uiso   1.00
O433   O     0.04581   0.29581   0.53821   0.00000  Uiso   1.00
O434   O     0.04581   0.29581   0.46179   0.00000  Uiso   1.00
O435   O     0.45420   0.20419   0.53821   0.00000  Uiso   1.00
O436   O     0.29581   0.45419   0.53821   0.00000  Uiso   1.00
Zn437  Zn    0.00000   0.25000   0.55104   0.00000  Uiso   1.00
Zn438  Zn    0.00000   0.25000   0.44896   0.00000  Uiso   1.00
Zn439  Zn    0.25000   0.00000   0.55104   0.00000  Uiso   1.00
Zn440  Zn    0.25000   0.00000   0.44896   0.00000  Uiso   1.00
C441   C     0.55993   0.19001   0.50003   0.00000  Uiso   1.00
C442   C     0.99997   0.21098   0.64271   0.00000  Uiso   1.00
C443   C     0.50005   0.21098   0.35729   0.00000  Uiso   1.00
C444   C     0.99995   0.28902   0.64271   0.00000  Uiso   1.00
C445   C     0.75003   0.03902   0.35729   0.00000  Uiso   1.00
C446   C     0.74997   0.46098   0.64271   0.00000  Uiso   1.00
C447   C     0.75005   0.46098   0.35729   0.00000  Uiso   1.00
C448   C     0.74995   0.03902   0.64271   0.00000  Uiso   1.00
C449   C     0.90972   0.12212   0.46886   0.00000  Uiso   1.00
C450   C     0.59030   0.37786   0.53117   0.00000  Uiso   1.00
C451   C     0.62752   0.33998   0.46887   0.00000  Uiso   1.00
C452   C     0.94007   0.30999   0.49997   0.00000  Uiso   1.00
C453   C     0.87246   0.16004   0.53110   0.00000  Uiso   1.00
C454   C     0.59026   0.12210   0.53111   0.00000  Uiso   1.00
C455   C     0.90975   0.37791   0.46890   0.00000  Uiso   1.00
C456   C     0.87243   0.33993   0.53106   0.00000  Uiso   1.00
C457   C     0.62756   0.16006   0.46893   0.00000  Uiso   1.00
C458   C     0.65970   0.37214   0.46883   0.00000  Uiso   1.00
C459   C     0.84028   0.12788   0.53114   0.00000  Uiso   1.00
C460   C     0.87754   0.08996   0.46890   0.00000  Uiso   1.00
C461   C     0.62248   0.41002   0.53113   0.00000  Uiso   1.00
C462   C     0.84025   0.37209   0.53110   0.00000  Uiso   1.00
C463   C     0.94007   0.19001   0.49997   0.00000  Uiso   1.00
C464   C     0.65974   0.12790   0.46889   0.00000  Uiso   1.00
C465   C     0.62244   0.08994   0.53107   0.00000  Uiso   1.00
C466   C     0.87757   0.41007   0.46894   0.00000  Uiso   1.00
C467   C     0.59305   0.34305   0.50005   0.00000  Uiso   1.00
C468   C     0.90695   0.15695   0.49995   0.00000  Uiso   1.00
C469   C     0.90696   0.34305   0.49995   0.00000  Uiso   1.00
C470   C     0.59304   0.15695   0.50005   0.00000  Uiso   1.00
C471   C     0.84305   0.09305   0.50005   0.00000  Uiso   1.00
C472   C     0.65695   0.40695   0.49995   0.00000  Uiso   1.00
C473   C     0.65696   0.09305   0.49995   0.00000  Uiso   1.00
C474   C     0.55993   0.30999   0.50003   0.00000  Uiso   1.00
C475   C     0.84304   0.40695   0.50005   0.00000  Uiso   1.00
C476   C     0.80993   0.44001   0.50003   0.00000  Uiso   1.00
C477   C     0.69007   0.05999   0.49997   0.00000  Uiso   1.00
C478   C     0.69007   0.44001   0.49997   0.00000  Uiso   1.00
C479   C     0.80993   0.05999   0.50003   0.00000  Uiso   1.00
C480   C     0.50003   0.28902   0.35729   0.00000  Uiso   1.00
F481   F     0.50025   0.32817   0.37988   0.00000  Uiso   1.00
F482   F     0.55596   0.38131   0.56045   0.00000  Uiso   1.00
F483   F     0.63055   0.30539   0.43952   0.00000  Uiso   1.00
F484   F     0.86941   0.19465   0.56043   0.00000  Uiso   1.00
F485   F     0.55588   0.11861   0.56033   0.00000  Uiso   1.00
F486   F     0.94414   0.38140   0.43969   0.00000  Uiso   1.00
F487   F     0.86936   0.30529   0.56035   0.00000  Uiso   1.00
F488   F     0.63063   0.19469   0.43963   0.00000  Uiso   1.00
F489   F     0.69404   0.36869   0.43955   0.00000  Uiso   1.00
F490   F     0.80592   0.13135   0.56039   0.00000  Uiso   1.00
F491   F     0.88059   0.05535   0.43957   0.00000  Uiso   1.00
F492   F     0.99975   0.17183   0.62012   0.00000  Uiso   1.00
F493   F     0.61945   0.44461   0.56048   0.00000  Uiso   1.00
F494   F     0.80586   0.36860   0.56031   0.00000  Uiso   1.00
F495   F     0.69412   0.13139   0.43967   0.00000  Uiso   1.00
F496   F     0.61937   0.05531   0.56037   0.00000  Uiso   1.00
F497   F     0.88064   0.44471   0.43965   0.00000  Uiso   1.00
F498   F     0.50029   0.17183   0.37988   0.00000  Uiso   1.00
F499   F     0.99970   0.32817   0.62013   0.00000  Uiso   1.00
F500   F     0.75025   0.07817   0.37988   0.00000  Uiso   1.00
F501   F     0.74975   0.42183   0.62012   0.00000  Uiso   1.00
F502   F     0.75030   0.42183   0.37987   0.00000  Uiso   1.00
F503   F     0.74971   0.07817   0.62012   0.00000  Uiso   1.00
F504   F     0.94408   0.11865   0.43961   0.00000  Uiso   1.00
N505   N     0.50000   0.25000   0.61907   0.00000  Uiso   1.00
N506   N     0.50000   0.25000   0.38093   0.00000  Uiso   1.00
N507   N     0.75000   0.00000   0.61907   0.00000  Uiso   1.00
N508   N     0.75000   0.00000   0.38093   0.00000  Uiso   1.00
O509   O     0.54581   0.20419   0.53821   0.00000  Uiso   1.00
O510   O     0.70420   0.04581   0.46179   0.00000  Uiso   1.00
O511   O     0.70420   0.04581   0.53821   0.00000  Uiso   1.00
O512   O     0.79581   0.45419   0.46179   0.00000  Uiso   1.00
O513   O     0.70420   0.45419   0.46179   0.00000  Uiso   1.00
O514   O     0.79581   0.04581   0.53821   0.00000  Uiso   1.00
O515   O     0.79581   0.04581   0.46179   0.00000  Uiso   1.00
O516   O     0.70420   0.45419   0.53821   0.00000  Uiso   1.00
O517   O     0.95420   0.29581   0.46179   0.00000  Uiso   1.00
O518   O     0.95420   0.29581   0.53821   0.00000  Uiso   1.00
O519   O     0.54581   0.20419   0.46179   0.00000  Uiso   1.00
O520   O     0.95420   0.20419   0.46179   0.00000  Uiso   1.00
O521   O     0.54581   0.29581   0.53821   0.00000  Uiso   1.00
O522   O     0.54581   0.29581   0.46179   0.00000  Uiso   1.00
O523   O     0.95420   0.20419   0.53821   0.00000  Uiso   1.00
O524   O     0.79581   0.45419   0.53821   0.00000  Uiso   1.00
Zn525  Zn    0.50000   0.25000   0.55104   0.00000  Uiso   1.00
Zn526  Zn    0.50000   0.25000   0.44896   0.00000  Uiso   1.00
Zn527  Zn    0.75000   0.00000   0.55104   0.00000  Uiso   1.00
Zn528  Zn    0.75000   0.00000   0.44896   0.00000  Uiso   1.00
C529   C     0.05993   0.69001   0.50003   0.00000  Uiso   1.00
C530   C     0.49997   0.71098   0.64271   0.00000  Uiso   1.00
C531   C     0.00005   0.71098   0.35729   0.00000  Uiso   1.00
C532   C     0.49995   0.78902   0.64271   0.00000  Uiso   1.00
C533   C     0.25003   0.53902   0.35729   0.00000  Uiso   1.00
C534   C     0.24997   0.96098   0.64271   0.00000  Uiso   1.00
C535   C     0.25005   0.96098   0.35729   0.00000  Uiso   1.00
C536   C     0.24995   0.53902   0.64271   0.00000  Uiso   1.00
C537   C     0.40972   0.62212   0.46886   0.00000  Uiso   1.00
C538   C     0.09030   0.87786   0.53117   0.00000  Uiso   1.00
C539   C     0.12752   0.83998   0.46887   0.00000  Uiso   1.00
C540   C     0.44007   0.80999   0.49997   0.00000  Uiso   1.00
C541   C     0.37246   0.66004   0.53110   0.00000  Uiso   1.00
C542   C     0.09026   0.62210   0.53111   0.00000  Uiso   1.00
C543   C     0.40975   0.87791   0.46890   0.00000  Uiso   1.00
C544   C     0.37243   0.83993   0.53106   0.00000  Uiso   1.00
C545   C     0.12756   0.66006   0.46893   0.00000  Uiso   1.00
C546   C     0.15970   0.87214   0.46883   0.00000  Uiso   1.00
C547   C     0.34028   0.62788   0.53114   0.00000  Uiso   1.00
C548   C     0.37754   0.58996   0.46890   0.00000  Uiso   1.00
C549   C     0.12248   0.91002   0.53113   0.00000  Uiso   1.00
C550   C     0.34025   0.87209   0.53110   0.00000  Uiso   1.00
C551   C     0.44007   0.69001   0.49997   0.00000  Uiso   1.00
C552   C     0.15974   0.62790   0.46889   0.00000  Uiso   1.00
C553   C     0.12244   0.58994   0.53107   0.00000  Uiso   1.00
C554   C     0.37757   0.91007   0.46894   0.00000  Uiso   1.00
C555   C     0.09305   0.84305   0.50005   0.00000  Uiso   1.00
C556   C     0.40695   0.65695   0.49995   0.00000  Uiso   1.00
C557   C     0.40696   0.84305   0.49995   0.00000  Uiso   1.00
C558   C     0.09304   0.65695   0.50005   0.00000  Uiso   1.00
C559   C     0.34305   0.59305   0.50005   0.00000  Uiso   1.00
C560   C     0.15695   0.90695   0.49995   0.00000  Uiso   1.00
C561   C     0.15696   0.59305   0.49995   0.00000  Uiso   1.00
C562   C     0.05993   0.80999   0.50003   0.00000  Uiso   1.00
C563   C     0.34304   0.90695   0.50005   0.00000  Uiso   1.00
C564   C     0.30993   0.94001   0.50003   0.00000  Uiso   1.00
C565   C     0.19007   0.55999   0.49997   0.00000  Uiso   1.00
C566   C     0.19007   0.94001   0.49997   0.00000  Uiso   1.00
C567   C     0.30993   0.55999   0.50003   0.00000  Uiso   1.00
C568   C     0.00003   0.78902   0.35729   0.00000  Uiso   1.00
F569   F     0.00025   0.82817   0.37988   0.00000  Uiso   1.00
F570   F     0.05596   0.88131   0.56045   0.00000  Uiso   1.00
F571   F     0.13055   0.80539   0.43952   0.00000  Uiso   1.00
F572   F     0.36941   0.69465   0.56043   0.00000  Uiso   1.00
F573   F     0.05588   0.61861   0.56033   0.00000  Uiso   1.00
F574   F     0.44414   0.88140   0.43969   0.00000  Uiso   1.00
F575   F     0.36936   0.80529   0.56035   0.00000  Uiso   1.00
F576   F     0.13063   0.69469   0.43963   0.00000  Uiso   1.00
F577   F     0.19404   0.86869   0.43955   0.00000  Uiso   1.00
F578   F     0.30592   0.63135   0.56039   0.00000  Uiso   1.00
F579   F     0.38059   0.55535   0.43957   0.00000  Uiso   1.00
F580   F     0.49975   0.67183   0.62012   0.00000  Uiso   1.00
F581   F     0.11945   0.94461   0.56048   0.00000  Uiso   1.00
F582   F     0.30586   0.86860   0.56031   0.00000  Uiso   1.00
F583   F     0.19412   0.63139   0.43967   0.00000  Uiso   1.00
F584   F     0.11937   0.55531   0.56037   0.00000  Uiso   1.00
F585   F     0.38064   0.94471   0.43965   0.00000  Uiso   1.00
F586   F     0.00029   0.67183   0.37988   0.00000  Uiso   1.00
F587   F     0.49970   0.82817   0.62013   0.00000  Uiso   1.00
F588   F     0.25025   0.57817   0.37988   0.00000  Uiso   1.00
F589   F     0.24975   0.92183   0.62012   0.00000  Uiso   1.00
F590   F     0.25030   0.92183   0.37987   0.00000  Uiso   1.00
F591   F     0.24971   0.57817   0.62012   0.00000  Uiso   1.00
F592   F     0.44408   0.61865   0.43961   0.00000  Uiso   1.00
N593   N     0.00000   0.75000   0.61907   0.00000  Uiso   1.00
N594   N     0.00000   0.75000   0.38093   0.00000  Uiso   1.00
N595   N     0.25000   0.50000   0.61907   0.00000  Uiso   1.00
N596   N     0.25000   0.50000   0.38093   0.00000  Uiso   1.00
O597   O     0.04581   0.70419   0.53821   0.00000  Uiso   1.00
O598   O     0.20420   0.54581   0.46179   0.00000  Uiso   1.00
O599   O     0.20420   0.54581   0.53821   0.00000  Uiso   1.00
O600   O     0.29581   0.95419   0.46179   0.00000  Uiso   1.00
O601   O     0.20420   0.95419   0.46179   0.00000  Uiso   1.00
O602   O     0.29581   0.54581   0.53821   0.00000  Uiso   1.00
O603   O     0.29581   0.54581   0.46179   0.00000  Uiso   1.00
O604   O     0.20420   0.95419   0.53821   0.00000  Uiso   1.00
O605   O     0.45420   0.79581   0.46179   0.00000  Uiso   1.00
O606   O     0.45420   0.79581   0.53821   0.00000  Uiso   1.00
O607   O     0.04581   0.70419   0.46179   0.00000  Uiso   1.00
O608   O     0.45420   0.70419   0.46179   0.00000  Uiso   1.00
O609   O     0.04581   0.79581   0.53821   0.00000  Uiso   1.00
O610   O     0.04581   0.79581   0.46179   0.00000  Uiso   1.00
O611   O     0.45420   0.70419   0.53821   0.00000  Uiso   1.00
O612   O     0.29581   0.95419   0.53821   0.00000  Uiso   1.00
Zn613  Zn    0.00000   0.75000   0.55104   0.00000  Uiso   1.00
Zn614  Zn    0.00000   0.75000   0.44896   0.00000  Uiso   1.00
Zn615  Zn    0.25000   0.50000   0.55104   0.00000  Uiso   1.00
Zn616  Zn    0.25000   0.50000   0.44896   0.00000  Uiso   1.00
C617   C     0.55993   0.69001   0.50003   0.00000  Uiso   1.00
C618   C     0.99997   0.71098   0.64271   0.00000  Uiso   1.00
C619   C     0.50005   0.71098   0.35729   0.00000  Uiso   1.00
C620   C     0.99995   0.78902   0.64271   0.00000  Uiso   1.00
C621   C     0.75003   0.53902   0.35729   0.00000  Uiso   1.00
C622   C     0.74997   0.96098   0.64271   0.00000  Uiso   1.00
C623   C     0.75005   0.96098   0.35729   0.00000  Uiso   1.00
C624   C     0.74995   0.53902   0.64271   0.00000  Uiso   1.00
C625   C     0.90972   0.62212   0.46886   0.00000  Uiso   1.00
C626   C     0.59030   0.87786   0.53117   0.00000  Uiso   1.00
C627   C     0.62752   0.83998   0.46887   0.00000  Uiso   1.00
C628   C     0.94007   0.80999   0.49997   0.00000  Uiso   1.00
C629   C     0.87246   0.66004   0.53110   0.00000  Uiso   1.00
C630   C     0.59026   0.62210   0.53111   0.00000  Uiso   1.00
C631   C     0.90975   0.87791   0.46890   0.00000  Uiso   1.00
C632   C     0.87243   0.83993   0.53106   0.00000  Uiso   1.00
C633   C     0.62756   0.66006   0.46893   0.00000  Uiso   1.00
C634   C     0.65970   0.87214   0.46883   0.00000  Uiso   1.00
C635   C     0.84028   0.62788   0.53114   0.00000  Uiso   1.00
C636   C     0.87754   0.58996   0.46890   0.00000  Uiso   1.00
C637   C     0.62248   0.91002   0.53113   0.00000  Uiso   1.00
C638   C     0.84025   0.87209   0.53110   0.00000  Uiso   1.00
C639   C     0.94007   0.69001   0.49997   0.00000  Uiso   1.00
C640   C     0.65974   0.62790   0.46889   0.00000  Uiso   1.00
C641   C     0.62244   0.58994   0.53107   0.00000  Uiso   1.00
C642   C     0.87757   0.91007   0.46894   0.00000  Uiso   1.00
C643   C     0.59305   0.84305   0.50005   0.00000  Uiso   1.00
C644   C     0.90695   0.65695   0.49995   0.00000  Uiso   1.00
C645   C     0.90696   0.84305   0.49995   0.00000  Uiso   1.00
C646   C     0.59304   0.65695   0.50005   0.00000  Uiso   1.00
C647   C     0.84305   0.59305   0.50005   0.00000  Uiso   1.00
C648   C     0.65695   0.90695   0.49995   0.00000  Uiso   1.00
C649   C     0.65696   0.59305   0.49995   0.00000  Uiso   1.00
C650   C     0.55993   0.80999   0.50003   0.00000  Uiso   1.00
C651   C     0.84304   0.90695   0.50005   0.00000  Uiso   1.00
C652   C     0.80993   0.94001   0.50003   0.00000  Uiso   1.00
C653   C     0.69007   0.55999   0.49997   0.00000  Uiso   1.00
C654   C     0.69007   0.94001   0.49997   0.00000  Uiso   1.00
C655   C     0.80993   0.55999   0.50003   0.00000  Uiso   1.00
C656   C     0.50003   0.78902   0.35729   0.00000  Uiso   1.00
F657   F     0.50025   0.82817   0.37988   0.00000  Uiso   1.00
F658   F     0.55596   0.88131   0.56045   0.00000  Uiso   1.00
F659   F     0.63055   0.80539   0.43952   0.00000  Uiso   1.00
F660   F     0.86941   0.69465   0.56043   0.00000  Uiso   1.00
F661   F     0.55588   0.61861   0.56033   0.00000  Uiso   1.00
F662   F     0.94414   0.88140   0.43969   0.00000  Uiso   1.00
F663   F     0.86936   0.80529   0.56035   0.00000  Uiso   1.00
F664   F     0.63063   0.69469   0.43963   0.00000  Uiso   1.00
F665   F     0.69404   0.86869   0.43955   0.00000  Uiso   1.00
F666   F     0.80592   0.63135   0.56039   0.00000  Uiso   1.00
F667   F     0.88059   0.55535   0.43957   0.00000  Uiso   1.00
F668   F     0.99975   0.67183   0.62012   0.00000  Uiso   1.00
F669   F     0.61945   0.94461   0.56048   0.00000  Uiso   1.00
F670   F     0.80586   0.86860   0.56031   0.00000  Uiso   1.00
F671   F     0.69412   0.63139   0.43967   0.00000  Uiso   1.00
F672   F     0.61937   0.55531   0.56037   0.00000  Uiso   1.00
F673   F     0.88064   0.94471   0.43965   0.00000  Uiso   1.00
F674   F     0.50029   0.67183   0.37988   0.00000  Uiso   1.00
F675   F     0.99970   0.82817   0.62013   0.00000  Uiso   1.00
F676   F     0.75025   0.57817   0.37988   0.00000  Uiso   1.00
F677   F     0.74975   0.92183   0.62012   0.00000  Uiso   1.00
F678   F     0.75030   0.92183   0.37987   0.00000  Uiso   1.00
F679   F     0.74971   0.57817   0.62012   0.00000  Uiso   1.00
F680   F     0.94408   0.61865   0.43961   0.00000  Uiso   1.00
N681   N     0.50000   0.75000   0.61907   0.00000  Uiso   1.00
N682   N     0.50000   0.75000   0.38093   0.00000  Uiso   1.00
N683   N     0.75000   0.50000   0.61907   0.00000  Uiso   1.00
N684   N     0.75000   0.50000   0.38093   0.00000  Uiso   1.00
O685   O     0.54581   0.70419   0.53821   0.00000  Uiso   1.00
O686   O     0.70420   0.54581   0.46179   0.00000  Uiso   1.00
O687   O     0.70420   0.54581   0.53821   0.00000  Uiso   1.00
O688   O     0.79581   0.95419   0.46179   0.00000  Uiso   1.00
O689   O     0.70420   0.95419   0.46179   0.00000  Uiso   1.00
O690   O     0.79581   0.54581   0.53821   0.00000  Uiso   1.00
O691   O     0.79581   0.54581   0.46179   0.00000  Uiso   1.00
O692   O     0.70420   0.95419   0.53821   0.00000  Uiso   1.00
O693   O     0.95420   0.79581   0.46179   0.00000  Uiso   1.00
O694   O     0.95420   0.79581   0.53821   0.00000  Uiso   1.00
O695   O     0.54581   0.70419   0.46179   0.00000  Uiso   1.00
O696   O     0.95420   0.70419   0.46179   0.00000  Uiso   1.00
O697   O     0.54581   0.79581   0.53821   0.00000  Uiso   1.00
O698   O     0.54581   0.79581   0.46179   0.00000  Uiso   1.00
O699   O     0.95420   0.70419   0.53821   0.00000  Uiso   1.00
O700   O     0.79581   0.95419   0.53821   0.00000  Uiso   1.00
Zn701  Zn    0.50000   0.75000   0.55104   0.00000  Uiso   1.00
Zn702  Zn    0.50000   0.75000   0.44896   0.00000  Uiso   1.00
Zn703  Zn    0.75000   0.50000   0.55104   0.00000  Uiso   1.00
Zn704  Zn    0.75000   0.50000   0.44896   0.00000  Uiso   1.00
C705   C     0.05993   0.19001   0.83336   0.00000  Uiso   1.00
C706   C     0.49997   0.21098   0.97604   0.00000  Uiso   1.00
C707   C     0.00005   0.21098   0.69062   0.00000  Uiso   1.00
C708   C     0.49995   0.28902   0.97605   0.00000  Uiso   1.00
C709   C     0.25003   0.03902   0.69062   0.00000  Uiso   1.00
C710   C     0.24997   0.46098   0.97605   0.00000  Uiso   1.00
C711   C     0.25005   0.46098   0.69062   0.00000  Uiso   1.00
C712   C     0.24995   0.03902   0.97605   0.00000  Uiso   1.00
C713   C     0.40972   0.12212   0.80220   0.00000  Uiso   1.00
C714   C     0.09030   0.37786   0.86450   0.00000  Uiso   1.00
C715   C     0.12752   0.33998   0.80220   0.00000  Uiso   1.00
C716   C     0.44007   0.30999   0.83330   0.00000  Uiso   1.00
C717   C     0.37246   0.16004   0.86444   0.00000  Uiso   1.00
C718   C     0.09026   0.12210   0.86444   0.00000  Uiso   1.00
C719   C     0.40975   0.37791   0.80224   0.00000  Uiso   1.00
C720   C     0.37243   0.33993   0.86440   0.00000  Uiso   1.00
C721   C     0.12756   0.16006   0.80226   0.00000  Uiso   1.00
C722   C     0.15970   0.37214   0.80217   0.00000  Uiso   1.00
C723   C     0.34028   0.12788   0.86447   0.00000  Uiso   1.00
C724   C     0.37754   0.08996   0.80223   0.00000  Uiso   1.00
C725   C     0.12248   0.41002   0.86446   0.00000  Uiso   1.00
C726   C     0.34025   0.37209   0.86443   0.00000  Uiso   1.00
C727   C     0.44007   0.19001   0.83330   0.00000  Uiso   1.00
C728   C     0.15974   0.12790   0.80223   0.00000  Uiso   1.00
C729   C     0.12244   0.08994   0.86441   0.00000  Uiso   1.00
C730   C     0.37757   0.41007   0.80227   0.00000  Uiso   1.00
C731   C     0.09305   0.34305   0.83339   0.00000  Uiso   1.00
C732   C     0.40695   0.15695   0.83328   0.00000  Uiso   1.00
C733   C     0.40696   0.34305   0.83328   0.00000  Uiso   1.00
C734   C     0.09304   0.15695   0.83339   0.00000  Uiso   1.00
C735   C     0.34305   0.09305   0.83339   0.00000  Uiso   1.00
C736   C     0.15695   0.40695   0.83328   0.00000  Uiso   1.00
C737   C     0.15696   0.09305   0.83328   0.00000  Uiso   1.00
C738   C     0.05993   0.30999   0.83336   0.00000  Uiso   1.00
C739   C     0.34304   0.40695   0.83339   0.00000  Uiso   1.00
C740   C     0.30993   0.44001   0.83336   0.00000  Uiso   1.00
C741   C     0.19007   0.05999   0.83330   0.00000  Uiso   1.00
C742   C     0.19007   0.44001   0.83330   0.00000  Uiso   1.00
C743   C     0.30993   0.05999   0.83336   0.00000  Uiso   1.00
C744   C     0.00003   0.28902   0.69062   0.00000  Uiso   1.00
F745   F     0.00025   0.32817   0.71321   0.00000  Uiso   1.00
F746   F     0.05596   0.38131   0.89378   0.00000  Uiso   1.00
F747   F     0.13055   0.30539   0.77285   0.00000  Uiso   1.00
F748   F     0.36941   0.19465   0.89376   0.00000  Uiso   1.00
F749   F     0.05588   0.11861   0.89366   0.00000  Uiso   1.00
F750   F     0.44414   0.38140   0.77302   0.00000  Uiso   1.00
F751   F     0.36936   0.30529   0.89368   0.00000  Uiso   1.00
F752   F     0.13063   0.19469   0.77297   0.00000  Uiso   1.00
F753   F     0.19404   0.36869   0.77289   0.00000  Uiso   1.00
F754   F     0.30592   0.13135   0.89372   0.00000  Uiso   1.00
F755   F     0.38059   0.05535   0.77291   0.00000  Uiso   1.00
F756   F     0.49975   0.17183   0.95345   0.00000  Uiso   1.00
F757   F     0.11945   0.44461   0.89382   0.00000  Uiso   1.00
F758   F     0.30586   0.36860   0.89364   0.00000  Uiso   1.00
F759   F     0.19412   0.13139   0.77301   0.00000  Uiso   1.00
F760   F     0.11937   0.05531   0.89370   0.00000  Uiso   1.00
F761   F     0.38064   0.44471   0.77298   0.00000  Uiso   1.00
F762   F     0.00029   0.17183   0.71321   0.00000  Uiso   1.00
F763   F     0.49970   0.32817   0.95346   0.00000  Uiso   1.00
F764   F     0.25025   0.07817   0.71321   0.00000  Uiso   1.00
F765   F     0.24975   0.42183   0.95345   0.00000  Uiso   1.00
F766   F     0.25030   0.42183   0.71321   0.00000  Uiso   1.00
F767   F     0.24971   0.07817   0.95346   0.00000  Uiso   1.00
F768   F     0.44408   0.11865   0.77294   0.00000  Uiso   1.00
N769   N     0.00000   0.25000   0.95240   0.00000  Uiso   1.00
N770   N     0.00000   0.25000   0.71427   0.00000  Uiso   1.00
N771   N     0.25000   0.00000   0.95240   0.00000  Uiso   1.00
N772   N     0.25000   0.00000   0.71427   0.00000  Uiso   1.00
O773   O     0.04581   0.20419   0.87154   0.00000  Uiso   1.00
O774   O     0.20420   0.04581   0.79513   0.00000  Uiso   1.00
O775   O     0.20420   0.04581   0.87154   0.00000  Uiso   1.00
O776   O     0.29581   0.45419   0.79513   0.00000  Uiso   1.00
O777   O     0.20420   0.45419   0.79513   0.00000  Uiso   1.00
O778   O     0.29581   0.04581   0.87154   0.00000  Uiso   1.00
O779   O     0.29581   0.04581   0.79513   0.00000  Uiso   1.00
O780   O     0.20420   0.45419   0.87154   0.00000  Uiso   1.00
O781   O     0.45420   0.29581   0.79513   0.00000  Uiso   1.00
O782   O     0.45420   0.29581   0.87154   0.00000  Uiso   1.00
O783   O     0.04581   0.20419   0.79513   0.00000  Uiso   1.00
O784   O     0.45420   0.20419   0.79513   0.00000  Uiso   1.00
O785   O     0.04581   0.29581   0.87154   0.00000  Uiso   1.00
O786   O     0.04581   0.29581   0.79513   0.00000  Uiso   1.00
O787   O     0.45420   0.20419   0.87154   0.00000  Uiso   1.00
O788   O     0.29581   0.45419   0.87154   0.00000  Uiso   1.00
Zn789  Zn    0.00000   0.25000   0.88437   0.00000  Uiso   1.00
Zn790  Zn    0.00000   0.25000   0.78229   0.00000  Uiso   1.00
Zn791  Zn    0.25000   0.00000   0.88437   0.00000  Uiso   1.00
Zn792  Zn    0.25000   0.00000   0.78229   0.00000  Uiso   1.00
C793   C     0.55993   0.19001   0.83336   0.00000  Uiso   1.00
C794   C     0.99997   0.21098   0.97604   0.00000  Uiso   1.00
C795   C     0.50005   0.21098   0.69062   0.00000  Uiso   1.00
C796   C     0.99995   0.28902   0.97605   0.00000  Uiso   1.00
C797   C     0.75003   0.03902   0.69062   0.00000  Uiso   1.00
C798   C     0.74997   0.46098   0.97605   0.00000  Uiso   1.00
C799   C     0.75005   0.46098   0.69062   0.00000  Uiso   1.00
C800   C     0.74995   0.03902   0.97605   0.00000  Uiso   1.00
C801   C     0.90972   0.12212   0.80220   0.00000  Uiso   1.00
C802   C     0.59030   0.37786   0.86450   0.00000  Uiso   1.00
C803   C     0.62752   0.33998   0.80220   0.00000  Uiso   1.00
C804   C     0.94007   0.30999   0.83330   0.00000  Uiso   1.00
C805   C     0.87246   0.16004   0.86444   0.00000  Uiso   1.00
C806   C     0.59026   0.12210   0.86444   0.00000  Uiso   1.00
C807   C     0.90975   0.37791   0.80224   0.00000  Uiso   1.00
C808   C     0.87243   0.33993   0.86440   0.00000  Uiso   1.00
C809   C     0.62756   0.16006   0.80226   0.00000  Uiso   1.00
C810   C     0.65970   0.37214   0.80217   0.00000  Uiso   1.00
C811   C     0.84028   0.12788   0.86447   0.00000  Uiso   1.00
C812   C     0.87754   0.08996   0.80223   0.00000  Uiso   1.00
C813   C     0.62248   0.41002   0.86446   0.00000  Uiso   1.00
C814   C     0.84025   0.37209   0.86443   0.00000  Uiso   1.00
C815   C     0.94007   0.19001   0.83330   0.00000  Uiso   1.00
C816   C     0.65974   0.12790   0.80223   0.00000  Uiso   1.00
C817   C     0.62244   0.08994   0.86441   0.00000  Uiso   1.00
C818   C     0.87757   0.41007   0.80227   0.00000  Uiso   1.00
C819   C     0.59305   0.34305   0.83339   0.00000  Uiso   1.00
C820   C     0.90695   0.15695   0.83328   0.00000  Uiso   1.00
C821   C     0.90696   0.34305   0.83328   0.00000  Uiso   1.00
C822   C     0.59304   0.15695   0.83339   0.00000  Uiso   1.00
C823   C     0.84305   0.09305   0.83339   0.00000  Uiso   1.00
C824   C     0.65695   0.40695   0.83328   0.00000  Uiso   1.00
C825   C     0.65696   0.09305   0.83328   0.00000  Uiso   1.00
C826   C     0.55993   0.30999   0.83336   0.00000  Uiso   1.00
C827   C     0.84304   0.40695   0.83339   0.00000  Uiso   1.00
C828   C     0.80993   0.44001   0.83336   0.00000  Uiso   1.00
C829   C     0.69007   0.05999   0.83330   0.00000  Uiso   1.00
C830   C     0.69007   0.44001   0.83330   0.00000  Uiso   1.00
C831   C     0.80993   0.05999   0.83336   0.00000  Uiso   1.00
C832   C     0.50003   0.28902   0.69062   0.00000  Uiso   1.00
F833   F     0.50025   0.32817   0.71321   0.00000  Uiso   1.00
F834   F     0.55596   0.38131   0.89378   0.00000  Uiso   1.00
F835   F     0.63055   0.30539   0.77285   0.00000  Uiso   1.00
F836   F     0.86941   0.19465   0.89376   0.00000  Uiso   1.00
F837   F     0.55588   0.11861   0.89366   0.00000  Uiso   1.00
F838   F     0.94414   0.38140   0.77302   0.00000  Uiso   1.00
F839   F     0.86936   0.30529   0.89368   0.00000  Uiso   1.00
F840   F     0.63063   0.19469   0.77297   0.00000  Uiso   1.00
F841   F     0.69404   0.36869   0.77289   0.00000  Uiso   1.00
F842   F     0.80592   0.13135   0.89372   0.00000  Uiso   1.00
F843   F     0.88059   0.05535   0.77291   0.00000  Uiso   1.00
F844   F     0.99975   0.17183   0.95345   0.00000  Uiso   1.00
F845   F     0.61945   0.44461   0.89382   0.00000  Uiso   1.00
F846   F     0.80586   0.36860   0.89364   0.00000  Uiso   1.00
F847   F     0.69412   0.13139   0.77301   0.00000  Uiso   1.00
F848   F     0.61937   0.05531   0.89370   0.00000  Uiso   1.00
F849   F     0.88064   0.44471   0.77298   0.00000  Uiso   1.00
F850   F     0.50029   0.17183   0.71321   0.00000  Uiso   1.00
F851   F     0.99970   0.32817   0.95346   0.00000  Uiso   1.00
F852   F     0.75025   0.07817   0.71321   0.00000  Uiso   1.00
F853   F     0.74975   0.42183   0.95345   0.00000  Uiso   1.00
F854   F     0.75030   0.42183   0.71321   0.00000  Uiso   1.00
F855   F     0.74971   0.07817   0.95346   0.00000  Uiso   1.00
F856   F     0.94408   0.11865   0.77294   0.00000  Uiso   1.00
N857   N     0.50000   0.25000   0.95240   0.00000  Uiso   1.00
N858   N     0.50000   0.25000   0.71427   0.00000  Uiso   1.00
N859   N     0.75000   0.00000   0.95240   0.00000  Uiso   1.00
N860   N     0.75000   0.00000   0.71427   0.00000  Uiso   1.00
O861   O     0.54581   0.20419   0.87154   0.00000  Uiso   1.00
O862   O     0.70420   0.04581   0.79513   0.00000  Uiso   1.00
O863   O     0.70420   0.04581   0.87154   0.00000  Uiso   1.00
O864   O     0.79581   0.45419   0.79513   0.00000  Uiso   1.00
O865   O     0.70420   0.45419   0.79513   0.00000  Uiso   1.00
O866   O     0.79581   0.04581   0.87154   0.00000  Uiso   1.00
O867   O     0.79581   0.04581   0.79513   0.00000  Uiso   1.00
O868   O     0.70420   0.45419   0.87154   0.00000  Uiso   1.00
O869   O     0.95420   0.29581   0.79513   0.00000  Uiso   1.00
O870   O     0.95420   0.29581   0.87154   0.00000  Uiso   1.00
O871   O     0.54581   0.20419   0.79513   0.00000  Uiso   1.00
O872   O     0.95420   0.20419   0.79513   0.00000  Uiso   1.00
O873   O     0.54581   0.29581   0.87154   0.00000  Uiso   1.00
O874   O     0.54581   0.29581   0.79513   0.00000  Uiso   1.00
O875   O     0.95420   0.20419   0.87154   0.00000  Uiso   1.00
O876   O     0.79581   0.45419   0.87154   0.00000  Uiso   1.00
Zn877  Zn    0.50000   0.25000   0.88437   0.00000  Uiso   1.00
Zn878  Zn    0.50000   0.25000   0.78229   0.00000  Uiso   1.00
Zn879  Zn    0.75000   0.00000   0.88437   0.00000  Uiso   1.00
Zn880  Zn    0.75000   0.00000   0.78229   0.00000  Uiso   1.00
C881   C     0.05993   0.69001   0.83336   0.00000  Uiso   1.00
C882   C     0.49997   0.71098   0.97604   0.00000  Uiso   1.00
C883   C     0.00005   0.71098   0.69062   0.00000  Uiso   1.00
C884   C     0.49995   0.78902   0.97605   0.00000  Uiso   1.00
C885   C     0.25003   0.53902   0.69062   0.00000  Uiso   1.00
C886   C     0.24997   0.96098   0.97605   0.00000  Uiso   1.00
C887   C     0.25005   0.96098   0.69062   0.00000  Uiso   1.00
C888   C     0.24995   0.53902   0.97605   0.00000  Uiso   1.00
C889   C     0.40972   0.62212   0.80220   0.00000  Uiso   1.00
C890   C     0.09030   0.87786   0.86450   0.00000  Uiso   1.00
C891   C     0.12752   0.83998   0.80220   0.00000  Uiso   1.00
C892   C     0.44007   0.80999   0.83330   0.00000  Uiso   1.00
C893   C     0.37246   0.66004   0.86444   0.00000  Uiso   1.00
C894   C     0.09026   0.62210   0.86444   0.00000  Uiso   1.00
C895   C     0.40975   0.87791   0.80224   0.00000  Uiso   1.00
C896   C     0.37243   0.83993   0.86440   0.00000  Uiso   1.00
C897   C     0.12756   0.66006   0.80226   0.00000  Uiso   1.00
C898   C     0.15970   0.87214   0.80217   0.00000  Uiso   1.00
C899   C     0.34028   0.62788   0.86447   0.00000  Uiso   1.00
C900   C     0.37754   0.58996   0.80223   0.00000  Uiso   1.00
C901   C     0.12248   0.91002   0.86446   0.00000  Uiso   1.00
C902   C     0.34025   0.87209   0.86443   0.00000  Uiso   1.00
C903   C     0.44007   0.69001   0.83330   0.00000  Uiso   1.00
C904   C     0.15974   0.62790   0.80223   0.00000  Uiso   1.00
C905   C     0.12244   0.58994   0.86441   0.00000  Uiso   1.00
C906   C     0.37757   0.91007   0.80227   0.00000  Uiso   1.00
C907   C     0.09305   0.84305   0.83339   0.00000  Uiso   1.00
C908   C     0.40695   0.65695   0.83328   0.00000  Uiso   1.00
C909   C     0.40696   0.84305   0.83328   0.00000  Uiso   1.00
C910   C     0.09304   0.65695   0.83339   0.00000  Uiso   1.00
C911   C     0.34305   0.59305   0.83339   0.00000  Uiso   1.00
C912   C     0.15695   0.90695   0.83328   0.00000  Uiso   1.00
C913   C     0.15696   0.59305   0.83328   0.00000  Uiso   1.00
C914   C     0.05993   0.80999   0.83336   0.00000  Uiso   1.00
C915   C     0.34304   0.90695   0.83339   0.00000  Uiso   1.00
C916   C     0.30993   0.94001   0.83336   0.00000  Uiso   1.00
C917   C     0.19007   0.55999   0.83330   0.00000  Uiso   1.00
C918   C     0.19007   0.94001   0.83330   0.00000  Uiso   1.00
C919   C     0.30993   0.55999   0.83336   0.00000  Uiso   1.00
C920   C     0.00003   0.78902   0.69062   0.00000  Uiso   1.00
F921   F     0.00025   0.82817   0.71321   0.00000  Uiso   1.00
F922   F     0.05596   0.88131   0.89378   0.00000  Uiso   1.00
F923   F     0.13055   0.80539   0.77285   0.00000  Uiso   1.00
F924   F     0.36941   0.69465   0.89376   0.00000  Uiso   1.00
F925   F     0.05588   0.61861   0.89366   0.00000  Uiso   1.00
F926   F     0.44414   0.88140   0.77302   0.00000  Uiso   1.00
F927   F     0.36936   0.80529   0.89368   0.00000  Uiso   1.00
F928   F     0.13063   0.69469   0.77297   0.00000  Uiso   1.00
F929   F     0.19404   0.86869   0.77289   0.00000  Uiso   1.00
F930   F     0.30592   0.63135   0.89372   0.00000  Uiso   1.00
F931   F     0.38059   0.55535   0.77291   0.00000  Uiso   1.00
F932   F     0.49975   0.67183   0.95345   0.00000  Uiso   1.00
F933   F     0.11945   0.94461   0.89382   0.00000  Uiso   1.00
F934   F     0.30586   0.86860   0.89364   0.00000  Uiso   1.00
F935   F     0.19412   0.63139   0.77301   0.00000  Uiso   1.00
F936   F     0.11937   0.55531   0.89370   0.00000  Uiso   1.00
F937   F     0.38064   0.94471   0.77298   0.00000  Uiso   1.00
F938   F     0.00029   0.67183   0.71321   0.00000  Uiso   1.00
F939   F     0.49970   0.82817   0.95346   0.00000  Uiso   1.00
F940   F     0.25025   0.57817   0.71321   0.00000  Uiso   1.00
F941   F     0.24975   0.92183   0.95345   0.00000  Uiso   1.00
F942   F     0.25030   0.92183   0.71321   0.00000  Uiso   1.00
F943   F     0.24971   0.57817   0.95346   0.00000  Uiso   1.00
F944   F     0.44408   0.61865   0.77294   0.00000  Uiso   1.00
N945   N     0.00000   0.75000   0.95240   0.00000  Uiso   1.00
N946   N     0.00000   0.75000   0.71427   0.00000  Uiso   1.00
N947   N     0.25000   0.50000   0.95240   0.00000  Uiso   1.00
N948   N     0.25000   0.50000   0.71427   0.00000  Uiso   1.00
O949   O     0.04581   0.70419   0.87154   0.00000  Uiso   1.00
O950   O     0.20420   0.54581   0.79513   0.00000  Uiso   1.00
O951   O     0.20420   0.54581   0.87154   0.00000  Uiso   1.00
O952   O     0.29581   0.95419   0.79513   0.00000  Uiso   1.00
O953   O     0.20420   0.95419   0.79513   0.00000  Uiso   1.00
O954   O     0.29581   0.54581   0.87154   0.00000  Uiso   1.00
O955   O     0.29581   0.54581   0.79513   0.00000  Uiso   1.00
O956   O     0.20420   0.95419   0.87154   0.00000  Uiso   1.00
O957   O     0.45420   0.79581   0.79513   0.00000  Uiso   1.00
O958   O     0.45420   0.79581   0.87154   0.00000  Uiso   1.00
O959   O     0.04581   0.70419   0.79513   0.00000  Uiso   1.00
O960   O     0.45420   0.70419   0.79513   0.00000  Uiso   1.00
O961   O     0.04581   0.79581   0.87154   0.00000  Uiso   1.00
O962   O     0.04581   0.79581   0.79513   0.00000  Uiso   1.00
O963   O     0.45420   0.70419   0.87154   0.00000  Uiso   1.00
O964   O     0.29581   0.95419   0.87154   0.00000  Uiso   1.00
Zn965  Zn    0.00000   0.75000   0.88437   0.00000  Uiso   1.00
Zn966  Zn    0.00000   0.75000   0.78229   0.00000  Uiso   1.00
Zn967  Zn    0.25000   0.50000   0.88437   0.00000  Uiso   1.00
Zn968  Zn    0.25000   0.50000   0.78229   0.00000  Uiso   1.00
C969   C     0.55993   0.69001   0.83336   0.00000  Uiso   1.00
C970   C     0.99997   0.71098   0.97604   0.00000  Uiso   1.00
C971   C     0.50005   0.71098   0.69062   0.00000  Uiso   1.00
C972   C     0.99995   0.78902   0.97605   0.00000  Uiso   1.00
C973   C     0.75003   0.53902   0.69062   0.00000  Uiso   1.00
C974   C     0.74997   0.96098   0.97605   0.00000  Uiso   1.00
C975   C     0.75005   0.96098   0.69062   0.00000  Uiso   1.00
C976   C     0.74995   0.53902   0.97605   0.00000  Uiso   1.00
C977   C     0.90972   0.62212   0.80220   0.00000  Uiso   1.00
C978   C     0.59030   0.87786   0.86450   0.00000  Uiso   1.00
C979   C     0.62752   0.83998   0.80220   0.00000  Uiso   1.00
C980   C     0.94007   0.80999   0.83330   0.00000  Uiso   1.00
C981   C     0.87246   0.66004   0.86444   0.00000  Uiso   1.00
C982   C     0.59026   0.62210   0.86444   0.00000  Uiso   1.00
C983   C     0.90975   0.87791   0.80224   0.00000  Uiso   1.00
C984   C     0.87243   0.83993   0.86440   0.00000  Uiso   1.00
C985   C     0.62756   0.66006   0.80226   0.00000  Uiso   1.00
C986   C     0.65970   0.87214   0.80217   0.00000  Uiso   1.00
C987   C     0.84028   0.62788   0.86447   0.00000  Uiso   1.00
C988   C     0.87754   0.58996   0.80223   0.00000  Uiso   1.00
C989   C     0.62248   0.91002   0.86446   0.00000  Uiso   1.00
C990   C     0.84025   0.87209   0.86443   0.00000  Uiso   1.00
C991   C     0.94007   0.69001   0.83330   0.00000  Uiso   1.00
C992   C     0.65974   0.62790   0.80223   0.00000  Uiso   1.00
C993   C     0.62244   0.58994   0.86441   0.00000  Uiso   1.00
C994   C     0.87757   0.91007   0.80227   0.00000  Uiso   1.00
C995   C     0.59305   0.84305   0.83339   0.00000  Uiso   1.00
C996   C     0.90695   0.65695   0.83328   0.00000  Uiso   1.00
C997   C     0.90696   0.84305   0.83328   0.00000  Uiso   1.00
C998   C     0.59304   0.65695   0.83339   0.00000  Uiso   1.00
C999   C     0.84305   0.59305   0.83339   0.00000  Uiso   1.00
C1000  C     0.65695   0.90695   0.83328   0.00000  Uiso   1.00
C1001  C     0.65696   0.59305   0.83328   0.00000  Uiso   1.00
C1002  C     0.55993   0.80999   0.83336   0.00000  Uiso   1.00
C1003  C     0.84304   0.90695   0.83339   0.00000  Uiso   1.00
C1004  C     0.80993   0.94001   0.83336   0.00000  Uiso   1.00
C1005  C     0.69007   0.55999   0.83330   0.00000  Uiso   1.00
C1006  C     0.69007   0.94001   0.83330   0.00000  Uiso   1.00
C1007  C     0.80993   0.55999   0.83336   0.00000  Uiso   1.00
C1008  C     0.50003   0.78902   0.69062   0.00000  Uiso   1.00
F1009  F     0.50025   0.82817   0.71321   0.00000  Uiso   1.00
F1010  F     0.55596   0.88131   0.89378   0.00000  Uiso   1.00
F1011  F     0.63055   0.80539   0.77285   0.00000  Uiso   1.00
F1012  F     0.86941   0.69465   0.89376   0.00000  Uiso   1.00
F1013  F     0.55588   0.61861   0.89366   0.00000  Uiso   1.00
F1014  F     0.94414   0.88140   0.77302   0.00000  Uiso   1.00
F1015  F     0.86936   0.80529   0.89368   0.00000  Uiso   1.00
F1016  F     0.63063   0.69469   0.77297   0.00000  Uiso   1.00
F1017  F     0.69404   0.86869   0.77289   0.00000  Uiso   1.00
F1018  F     0.80592   0.63135   0.89372   0.00000  Uiso   1.00
F1019  F     0.88059   0.55535   0.77291   0.00000  Uiso   1.00
F1020  F     0.99975   0.67183   0.95345   0.00000  Uiso   1.00
F1021  F     0.61945   0.94461   0.89382   0.00000  Uiso   1.00
F1022  F     0.80586   0.86860   0.89364   0.00000  Uiso   1.00
F1023  F     0.69412   0.63139   0.77301   0.00000  Uiso   1.00
F1024  F     0.61937   0.55531   0.89370   0.00000  Uiso   1.00
F1025  F     0.88064   0.94471   0.77298   0.00000  Uiso   1.00
F1026  F     0.50029   0.67183   0.71321   0.00000  Uiso   1.00
F1027  F     0.99970   0.82817   0.95346   0.00000  Uiso   1.00
F1028  F     0.75025   0.57817   0.71321   0.00000  Uiso   1.00
F1029  F     0.74975   0.92183   0.95345   0.00000  Uiso   1.00
F1030  F     0.75030   0.92183   0.71321   0.00000  Uiso   1.00
F1031  F     0.74971   0.57817   0.95346   0.00000  Uiso   1.00
F1032  F     0.94408   0.61865   0.77294   0.00000  Uiso   1.00
N1033  N     0.50000   0.75000   0.95240   0.00000  Uiso   1.00
N1034  N     0.50000   0.75000   0.71427   0.00000  Uiso   1.00
N1035  N     0.75000   0.50000   0.95240   0.00000  Uiso   1.00
N1036  N     0.75000   0.50000   0.71427   0.00000  Uiso   1.00
O1037  O     0.54581   0.70419   0.87154   0.00000  Uiso   1.00
O1038  O     0.70420   0.54581   0.79513   0.00000  Uiso   1.00
O1039  O     0.70420   0.54581   0.87154   0.00000  Uiso   1.00
O1040  O     0.79581   0.95419   0.79513   0.00000  Uiso   1.00
O1041  O     0.70420   0.95419   0.79513   0.00000  Uiso   1.00
O1042  O     0.79581   0.54581   0.87154   0.00000  Uiso   1.00
O1043  O     0.79581   0.54581   0.79513   0.00000  Uiso   1.00
O1044  O     0.70420   0.95419   0.87154   0.00000  Uiso   1.00
O1045  O     0.95420   0.79581   0.79513   0.00000  Uiso   1.00
O1046  O     0.95420   0.79581   0.87154   0.00000  Uiso   1.00
O1047  O     0.54581   0.70419   0.79513   0.00000  Uiso   1.00
O1048  O     0.95420   0.70419   0.79513   0.00000  Uiso   1.00
O1049  O     0.54581   0.79581   0.87154   0.00000  Uiso   1.00
O1050  O     0.54581   0.79581   0.79513   0.00000  Uiso   1.00
O1051  O     0.95420   0.70419   0.87154   0.00000  Uiso   1.00
O1052  O     0.79581   0.95419   0.87154   0.00000  Uiso   1.00
Zn1053 Zn    0.50000   0.75000   0.88437   0.00000  Uiso   1.00
Zn1054 Zn    0.50000   0.75000   0.78229   0.00000  Uiso   1.00
Zn1055 Zn    0.75000   0.50000   0.88437   0.00000  Uiso   1.00
Zn1056 Zn    0.75000   0.50000   0.78229   0.00000  Uiso   1.00
loop_
_geom_bond_atom_site_label_1
_geom_bond_atom_site_label_2
_geom_bond_distance
_geom_bond_site_symmetry_2
_ccdc_geom_bond_type
C1     O69     1.282   .     A
C1     O79     1.282   .     A
C1     C30     1.412   .     S
C2     F52     1.355   .     S
C2     C443    1.418   .     S
C2     N153    1.367   .     S
C3     N66     1.367   .     A
C3     F58     1.355   .     S
C3     C794    1.418   1_454 S
C4     F59     1.355   .     S
C4     C480    1.418   .     S
C4     N153    1.367   .     S
C5     F60     1.355   .     S
C5     C712    1.418   1_554 S
C5     N68     1.367   .     S
C6     F61     1.355   .     S
C6     C359    1.418   .     S
C6     N243    1.367   .     S
C7     N244    1.367   .     A
C7     F62     1.355   .     S
C7     C710    1.418   1_554 S
C8     F63     1.355   .     S
C8     N67     1.367   .     A
C8     C357    1.418   .     S
C9     F64     1.359   .     S
C9     C20     1.373   .     A
C9     C28     1.398   .     A
C10    C27     1.398   .     A
C10    F42     1.359   .     S
C10    C21     1.373   .     A
C11    C18     1.373   .     A
C11    F43     1.359   .     S
C11    C27     1.398   .     A
C12    C29     1.412   .     S
C12    O78     1.282   .     A
C12    O77     1.282   .     A
C13    C28     1.398   .     A
C13    C19     1.373   .     A
C13    F44     1.359   .     S
C14    C30     1.397   .     A
C14    F45     1.359   .     S
C14    C25     1.373   .     A
C15    C29     1.397   .     A
C15    C26     1.373   .     A
C15    F46     1.359   .     S
C16    F47     1.359   .     S
C16    C29     1.398   .     A
C16    C22     1.373   .     A
C17    F48     1.359   .     S
C17    C30     1.398   .     A
C17    C24     1.373   .     A
C18    C32     1.398   .     A
C18    F49     1.359   .     S
C19    C31     1.398   .     A
C19    F50     1.359   .     S
C20    F51     1.359   .     S
C20    C31     1.398   .     A
C21    C32     1.398   .     A
C21    F53     1.359   .     S
C22    C35     1.397   .     A
C22    F54     1.359   .     S
C23    O83     1.282   .     A
C23    C28     1.412   .     S
C23    O80     1.282   .     A
C24    F55     1.359   .     S
C24    C33     1.397   .     A
C25    F56     1.359   .     S
C25    C33     1.398   .     A
C26    C35     1.398   .     A
C26    F57     1.359   .     S
C27    C34     1.412   .     S
C31    C39     1.412   .     S
C32    C38     1.412   .     S
C33    C37     1.412   .     S
C34    O81     1.282   .     A
C34    O82     1.282   .     A
C35    C36     1.412   .     S
C36    O84     1.282   .     A
C36    O72     1.282   .     A
C37    O70     1.282   .     A
C37    O71     1.282   .     A
C38    O76     1.282   .     A
C38    O73     1.282   .     A
C39    O74     1.282   .     A
C39    O75     1.282   .     A
C40    N66     1.367   .     A
C40    F41     1.355   .     S
C40    C796    1.418   1_454 S
N65    Zn85    2.013   .     S
N65    C90     1.367   1_455 S
N65    C92     1.367   1_455 S
N66    Zn86    2.013   .     S
N67    C182    1.367   1_545 S
N67    Zn87    2.013   .     S
N68    C183    1.367   1_545 A
N68    Zn88    2.013   .     S
O69    Zn85    1.992   .     S
O70    Zn88    1.992   .     S
O71    Zn87    1.991   .     S
O72    Zn264   1.991   .     S
O73    Zn264   1.992   .     S
O74    Zn87    1.992   .     S
O75    Zn88    1.991   .     S
O76    Zn263   1.991   .     S
O77    Zn174   1.992   .     S
O78    Zn173   1.991   .     S
O79    Zn86    1.991   .     S
O80    Zn174   1.992   .     S
O81    Zn85    1.992   .     S
O82    Zn86    1.991   .     S
O83    Zn173   1.991   .     S
O84    Zn263   1.992   .     S
Zn85   O171    1.991   1_455 S
Zn85   O166    1.991   1_455 S
Zn86   O168    1.992   1_455 S
Zn86   O165    1.992   1_455 S
Zn87   O260    1.992   1_545 S
Zn87   O252    1.991   1_545 S
Zn88   O249    1.992   1_545 S
Zn88   O248    1.991   1_545 S
C89    O157    1.282   .     A
C89    O167    1.282   .     A
C89    C118    1.412   .     S
C90    F140    1.355   .     S
C90    C355    1.418   1_655 S
C90    N65     1.367   1_655 S
C91    N154    1.367   .     A
C91    F146    1.355   .     S
C91    C706    1.418   1_554 S
C92    F147    1.355   .     S
C92    C392    1.418   1_655 S
C92    N65     1.367   1_655 S
C93    F148    1.355   .     S
C93    C800    1.418   1_554 S
C93    N156    1.367   .     S
C94    F149    1.355   .     S
C94    C447    1.418   .     S
C94    N331    1.367   .     S
C95    N332    1.367   .     A
C95    F150    1.355   .     S
C95    C798    1.418   1_554 S
C96    F151    1.355   .     S
C96    N155    1.367   .     A
C96    C445    1.418   .     S
C97    F152    1.359   .     S
C97    C108    1.373   .     A
C97    C116    1.398   .     A
C98    C115    1.398   .     A
C98    F130    1.359   .     S
C98    C109    1.373   .     A
C99    C106    1.373   .     A
C99    F131    1.359   .     S
C99    C115    1.398   .     A
C100   C117    1.412   .     S
C100   O166    1.282   .     A
C100   O165    1.282   .     A
C101   C116    1.398   .     A
C101   C107    1.373   .     A
C101   F132    1.359   .     S
C102   C118    1.397   .     A
C102   F133    1.359   .     S
C102   C113    1.373   .     A
C103   C117    1.397   .     A
C103   C114    1.373   .     A
C103   F134    1.359   .     S
C104   F135    1.359   .     S
C104   C117    1.398   .     A
C104   C110    1.373   .     A
C105   F136    1.359   .     S
C105   C118    1.398   .     A
C105   C112    1.373   .     A
C106   C120    1.398   .     A
C106   F137    1.359   .     S
C107   C119    1.398   .     A
C107   F138    1.359   .     S
C108   F139    1.359   .     S
C108   C119    1.398   .     A
C109   C120    1.398   .     A
C109   F141    1.359   .     S
C110   C123    1.397   .     A
C110   F142    1.359   .     S
C111   O171    1.282   .     A
C111   C116    1.412   .     S
C111   O168    1.282   .     A
C112   F143    1.359   .     S
C112   C121    1.397   .     A
C113   F144    1.359   .     S
C113   C121    1.398   .     A
C114   C123    1.398   .     A
C114   F145    1.359   .     S
C115   C122    1.412   .     S
C119   C127    1.412   .     S
C120   C126    1.412   .     S
C121   C125    1.412   .     S
C122   O169    1.282   .     A
C122   O170    1.282   .     A
C123   C124    1.412   .     S
C124   O172    1.282   .     A
C124   O160    1.282   .     A
C125   O158    1.282   .     A
C125   O159    1.282   .     A
C126   O164    1.282   .     A
C126   O161    1.282   .     A
C127   O162    1.282   .     A
C127   O163    1.282   .     A
C128   N154    1.367   .     A
C128   F129    1.355   .     S
C128   C708    1.418   1_554 S
N153   Zn173   2.013   .     S
N154   Zn174   2.013   .     S
N155   C270    1.367   1_545 S
N155   Zn175   2.013   .     S
N156   C271    1.367   1_545 A
N156   Zn176   2.013   .     S
O157   Zn173   1.992   .     S
O158   Zn176   1.992   .     S
O159   Zn175   1.991   .     S
O160   Zn352   1.991   .     S
O161   Zn352   1.992   .     S
O162   Zn175   1.992   .     S
O163   Zn176   1.991   .     S
O164   Zn351   1.991   .     S
O165   Zn86    1.992   1_655 S
O166   Zn85    1.991   1_655 S
O167   Zn174   1.991   .     S
O168   Zn86    1.992   1_655 S
O169   Zn173   1.992   .     S
O170   Zn174   1.991   .     S
O171   Zn85    1.991   1_655 S
O172   Zn351   1.992   .     S
Zn175  O348    1.992   1_545 S
Zn175  O340    1.991   1_545 S
Zn176  O337    1.992   1_545 S
Zn176  O336    1.991   1_545 S
C177   O245    1.282   .     A
C177   O255    1.282   .     A
C177   C206    1.412   .     S
C178   F228    1.355   .     S
C178   C619    1.418   .     S
C178   N329    1.367   .     S
C179   N242    1.367   .     A
C179   F234    1.355   .     S
C179   C970    1.418   1_454 S
C180   F235    1.355   .     S
C180   C656    1.418   .     S
C180   N329    1.367   .     S
C181   F236    1.355   .     S
C181   C888    1.418   1_554 S
C181   N244    1.367   .     S
C182   F237    1.355   .     S
C182   C535    1.418   .     S
C182   N67     1.367   1_565 S
C183   N68     1.367   1_565 A
C183   F238    1.355   .     S
C183   C886    1.418   1_554 S
C184   F239    1.355   .     S
C184   N243    1.367   .     A
C184   C533    1.418   .     S
C185   F240    1.359   .     S
C185   C196    1.373   .     A
C185   C204    1.398   .     A
C186   C203    1.398   .     A
C186   F218    1.359   .     S
C186   C197    1.373   .     A
C187   C194    1.373   .     A
C187   F219    1.359   .     S
C187   C203    1.398   .     A
C188   C205    1.412   .     S
C188   O254    1.282   .     A
C188   O253    1.282   .     A
C189   C204    1.398   .     A
C189   C195    1.373   .     A
C189   F220    1.359   .     S
C190   C206    1.397   .     A
C190   F221    1.359   .     S
C190   C201    1.373   .     A
C191   C205    1.397   .     A
C191   C202    1.373   .     A
C191   F222    1.359   .     S
C192   F223    1.359   .     S
C192   C205    1.398   .     A
C192   C198    1.373   .     A
C193   F224    1.359   .     S
C193   C206    1.398   .     A
C193   C200    1.373   .     A
C194   C208    1.398   .     A
C194   F225    1.359   .     S
C195   C207    1.398   .     A
C195   F226    1.359   .     S
C196   F227    1.359   .     S
C196   C207    1.398   .     A
C197   C208    1.398   .     A
C197   F229    1.359   .     S
C198   C211    1.397   .     A
C198   F230    1.359   .     S
C199   O259    1.282   .     A
C199   C204    1.412   .     S
C199   O256    1.282   .     A
C200   F231    1.359   .     S
C200   C209    1.397   .     A
C201   F232    1.359   .     S
C201   C209    1.398   .     A
C202   C211    1.398   .     A
C202   F233    1.359   .     S
C203   C210    1.412   .     S
C207   C215    1.412   .     S
C208   C214    1.412   .     S
C209   C213    1.412   .     S
C210   O257    1.282   .     A
C210   O258    1.282   .     A
C211   C212    1.412   .     S
C212   O260    1.282   .     A
C212   O248    1.282   .     A
C213   O246    1.282   .     A
C213   O247    1.282   .     A
C214   O252    1.282   .     A
C214   O249    1.282   .     A
C215   O250    1.282   .     A
C215   O251    1.282   .     A
C216   N242    1.367   .     A
C216   F217    1.355   .     S
C216   C972    1.418   1_454 S
N241   Zn261   2.013   .     S
N241   C266    1.367   1_455 S
N241   C268    1.367   1_455 S
N242   Zn262   2.013   .     S
N243   Zn263   2.013   .     S
N244   Zn264   2.013   .     S
O245   Zn261   1.992   .     S
O246   Zn264   1.992   .     S
O247   Zn263   1.991   .     S
O248   Zn88    1.991   1_565 S
O249   Zn88    1.992   1_565 S
O250   Zn263   1.992   .     S
O251   Zn264   1.991   .     S
O252   Zn87    1.991   1_565 S
O253   Zn350   1.992   .     S
O254   Zn349   1.991   .     S
O255   Zn262   1.991   .     S
O256   Zn350   1.992   .     S
O257   Zn261   1.992   .     S
O258   Zn262   1.991   .     S
O259   Zn349   1.991   .     S
O260   Zn87    1.992   1_565 S
Zn261  O347    1.991   1_455 S
Zn261  O342    1.991   1_455 S
Zn262  O344    1.992   1_455 S
Zn262  O341    1.992   1_455 S
C265   O333    1.282   .     A
C265   O343    1.282   .     A
C265   C294    1.412   .     S
C266   F316    1.355   .     S
C266   C531    1.418   1_655 S
C266   N241    1.367   1_655 S
C267   N330    1.367   .     A
C267   F322    1.355   .     S
C267   C882    1.418   1_554 S
C268   F323    1.355   .     S
C268   C568    1.418   1_655 S
C268   N241    1.367   1_655 S
C269   F324    1.355   .     S
C269   C976    1.418   1_554 S
C269   N332    1.367   .     S
C270   F325    1.355   .     S
C270   C623    1.418   .     S
C270   N155    1.367   1_565 S
C271   N156    1.367   1_565 A
C271   F326    1.355   .     S
C271   C974    1.418   1_554 S
C272   F327    1.355   .     S
C272   N331    1.367   .     A
C272   C621    1.418   .     S
C273   F328    1.359   .     S
C273   C284    1.373   .     A
C273   C292    1.398   .     A
C274   C291    1.398   .     A
C274   F306    1.359   .     S
C274   C285    1.373   .     A
C275   C282    1.373   .     A
C275   F307    1.359   .     S
C275   C291    1.398   .     A
C276   C293    1.412   .     S
C276   O342    1.282   .     A
C276   O341    1.282   .     A
C277   C292    1.398   .     A
C277   C283    1.373   .     A
C277   F308    1.359   .     S
C278   C294    1.397   .     A
C278   F309    1.359   .     S
C278   C289    1.373   .     A
C279   C293    1.397   .     A
C279   C290    1.373   .     A
C279   F310    1.359   .     S
C280   F311    1.359   .     S
C280   C293    1.398   .     A
C280   C286    1.373   .     A
C281   F312    1.359   .     S
C281   C294    1.398   .     A
C281   C288    1.373   .     A
C282   C296    1.398   .     A
C282   F313    1.359   .     S
C283   C295    1.398   .     A
C283   F314    1.359   .     S
C284   F315    1.359   .     S
C284   C295    1.398   .     A
C285   C296    1.398   .     A
C285   F317    1.359   .     S
C286   C299    1.397   .     A
C286   F318    1.359   .     S
C287   O347    1.282   .     A
C287   C292    1.412   .     S
C287   O344    1.282   .     A
C288   F319    1.359   .     S
C288   C297    1.397   .     A
C289   F320    1.359   .     S
C289   C297    1.398   .     A
C290   C299    1.398   .     A
C290   F321    1.359   .     S
C291   C298    1.412   .     S
C295   C303    1.412   .     S
C296   C302    1.412   .     S
C297   C301    1.412   .     S
C298   O345    1.282   .     A
C298   O346    1.282   .     A
C299   C300    1.412   .     S
C300   O348    1.282   .     A
C300   O336    1.282   .     A
C301   O334    1.282   .     A
C301   O335    1.282   .     A
C302   O340    1.282   .     A
C302   O337    1.282   .     A
C303   O338    1.282   .     A
C303   O339    1.282   .     A
C304   N330    1.367   .     A
C304   F305    1.355   .     S
C304   C884    1.418   1_554 S
N329   Zn349   2.013   .     S
N330   Zn350   2.013   .     S
N331   Zn351   2.013   .     S
N332   Zn352   2.013   .     S
O333   Zn349   1.992   .     S
O334   Zn352   1.992   .     S
O335   Zn351   1.991   .     S
O336   Zn176   1.991   1_565 S
O337   Zn176   1.992   1_565 S
O338   Zn351   1.992   .     S
O339   Zn352   1.991   .     S
O340   Zn175   1.991   1_565 S
O341   Zn262   1.992   1_655 S
O342   Zn261   1.991   1_655 S
O343   Zn350   1.991   .     S
O344   Zn262   1.992   1_655 S
O345   Zn349   1.992   .     S
O346   Zn350   1.991   .     S
O347   Zn261   1.991   1_655 S
O348   Zn175   1.992   1_565 S
C353   O421    1.282   .     A
C353   O431    1.282   .     A
C353   C382    1.412   .     S
C354   F404    1.355   .     S
C354   C795    1.418   .     S
C354   N505    1.367   .     S
C355   N418    1.367   .     A
C355   F410    1.355   .     S
C355   C90     1.418   1_455 S
C356   F411    1.355   .     S
C356   C832    1.418   .     S
C356   N505    1.367   .     S
C357   F412    1.355   .     S
C357   N420    1.367   .     S
C358   F413    1.355   .     S
C358   C711    1.418   .     S
C358   N595    1.367   .     S
C359   N596    1.367   .     A
C359   F414    1.355   .     S
C360   F415    1.355   .     S
C360   N419    1.367   .     A
C360   C709    1.418   .     S
C361   F416    1.359   .     S
C361   C372    1.373   .     A
C361   C380    1.398   .     A
C362   C379    1.398   .     A
C362   F394    1.359   .     S
C362   C373    1.373   .     A
C363   C370    1.373   .     A
C363   F395    1.359   .     S
C363   C379    1.398   .     A
C364   C381    1.412   .     S
C364   O430    1.282   .     A
C364   O429    1.282   .     A
C365   C380    1.398   .     A
C365   C371    1.373   .     A
C365   F396    1.359   .     S
C366   C382    1.397   .     A
C366   F397    1.359   .     S
C366   C377    1.373   .     A
C367   C381    1.397   .     A
C367   C378    1.373   .     A
C367   F398    1.359   .     S
C368   F399    1.359   .     S
C368   C381    1.398   .     A
C368   C374    1.373   .     A
C369   F400    1.359   .     S
C369   C382    1.398   .     A
C369   C376    1.373   .     A
C370   C384    1.398   .     A
C370   F401    1.359   .     S
C371   C383    1.398   .     A
C371   F402    1.359   .     S
C372   F403    1.359   .     S
C372   C383    1.398   .     A
C373   C384    1.398   .     A
C373   F405    1.359   .     S
C374   C387    1.397   .     A
C374   F406    1.359   .     S
C375   O435    1.282   .     A
C375   C380    1.412   .     S
C375   O432    1.282   .     A
C376   F407    1.359   .     S
C376   C385    1.397   .     A
C377   F408    1.359   .     S
C377   C385    1.398   .     A
C378   C387    1.398   .     A
C378   F409    1.359   .     S
C379   C386    1.412   .     S
C383   C391    1.412   .     S
C384   C390    1.412   .     S
C385   C389    1.412   .     S
C386   O433    1.282   .     A
C386   O434    1.282   .     A
C387   C388    1.412   .     S
C388   O436    1.282   .     A
C388   O424    1.282   .     A
C389   O422    1.282   .     A
C389   O423    1.282   .     A
C390   O428    1.282   .     A
C390   O425    1.282   .     A
C391   O426    1.282   .     A
C391   O427    1.282   .     A
C392   N418    1.367   .     A
C392   F393    1.355   .     S
C392   C92     1.418   1_455 S
N417   Zn437   2.013   .     S
N417   C442    1.367   1_455 S
N417   C444    1.367   1_455 S
N418   Zn438   2.013   .     S
N419   C534    1.367   1_545 S
N419   Zn439   2.013   .     S
N420   C535    1.367   1_545 A
N420   Zn440   2.013   .     S
O421   Zn437   1.992   .     S
O422   Zn440   1.992   .     S
O423   Zn439   1.991   .     S
O424   Zn616   1.991   .     S
O425   Zn616   1.992   .     S
O426   Zn439   1.992   .     S
O427   Zn440   1.991   .     S
O428   Zn615   1.991   .     S
O429   Zn526   1.992   .     S
O430   Zn525   1.991   .     S
O431   Zn438   1.991   .     S
O432   Zn526   1.992   .     S
O433   Zn437   1.992   .     S
O434   Zn438   1.991   .     S
O435   Zn525   1.991   .     S
O436   Zn615   1.992   .     S
Zn437  O523    1.991   1_455 S
Zn437  O518    1.991   1_455 S
Zn438  O520    1.992   1_455 S
Zn438  O517    1.992   1_455 S
Zn439  O612    1.992   1_545 S
Zn439  O604    1.991   1_545 S
Zn440  O601    1.992   1_545 S
Zn440  O600    1.991   1_545 S
C441   O509    1.282   .     A
C441   O519    1.282   .     A
C441   C470    1.412   .     S
C442   F492    1.355   .     S
C442   C707    1.418   1_655 S
C442   N417    1.367   1_655 S
C443   N506    1.367   .     A
C443   F498    1.355   .     S
C444   F499    1.355   .     S
C444   C744    1.418   1_655 S
C444   N417    1.367   1_655 S
C445   F500    1.355   .     S
C445   N508    1.367   .     S
C446   F501    1.355   .     S
C446   C799    1.418   .     S
C446   N683    1.367   .     S
C447   N684    1.367   .     A
C447   F502    1.355   .     S
C448   F503    1.355   .     S
C448   N507    1.367   .     A
C448   C797    1.418   .     S
C449   F504    1.359   .     S
C449   C460    1.373   .     A
C449   C468    1.398   .     A
C450   C467    1.398   .     A
C450   F482    1.359   .     S
C450   C461    1.373   .     A
C451   C458    1.373   .     A
C451   F483    1.359   .     S
C451   C467    1.398   .     A
C452   C469    1.412   .     S
C452   O518    1.282   .     A
C452   O517    1.282   .     A
C453   C468    1.398   .     A
C453   C459    1.373   .     A
C453   F484    1.359   .     S
C454   C470    1.397   .     A
C454   F485    1.359   .     S
C454   C465    1.373   .     A
C455   C469    1.397   .     A
C455   C466    1.373   .     A
C455   F486    1.359   .     S
C456   F487    1.359   .     S
C456   C469    1.398   .     A
C456   C462    1.373   .     A
C457   F488    1.359   .     S
C457   C470    1.398   .     A
C457   C464    1.373   .     A
C458   C472    1.398   .     A
C458   F489    1.359   .     S
C459   C471    1.398   .     A
C459   F490    1.359   .     S
C460   F491    1.359   .     S
C460   C471    1.398   .     A
C461   C472    1.398   .     A
C461   F493    1.359   .     S
C462   C475    1.397   .     A
C462   F494    1.359   .     S
C463   O523    1.282   .     A
C463   C468    1.412   .     S
C463   O520    1.282   .     A
C464   F495    1.359   .     S
C464   C473    1.397   .     A
C465   F496    1.359   .     S
C465   C473    1.398   .     A
C466   C475    1.398   .     A
C466   F497    1.359   .     S
C467   C474    1.412   .     S
C471   C479    1.412   .     S
C472   C478    1.412   .     S
C473   C477    1.412   .     S
C474   O521    1.282   .     A
C474   O522    1.282   .     A
C475   C476    1.412   .     S
C476   O524    1.282   .     A
C476   O512    1.282   .     A
C477   O510    1.282   .     A
C477   O511    1.282   .     A
C478   O516    1.282   .     A
C478   O513    1.282   .     A
C479   O514    1.282   .     A
C479   O515    1.282   .     A
C480   N506    1.367   .     A
C480   F481    1.355   .     S
N505   Zn525   2.013   .     S
N506   Zn526   2.013   .     S
N507   C622    1.367   1_545 S
N507   Zn527   2.013   .     S
N508   C623    1.367   1_545 A
N508   Zn528   2.013   .     S
O509   Zn525   1.992   .     S
O510   Zn528   1.992   .     S
O511   Zn527   1.991   .     S
O512   Zn704   1.991   .     S
O513   Zn704   1.992   .     S
O514   Zn527   1.992   .     S
O515   Zn528   1.991   .     S
O516   Zn703   1.991   .     S
O517   Zn438   1.992   1_655 S
O518   Zn437   1.991   1_655 S
O519   Zn526   1.991   .     S
O520   Zn438   1.992   1_655 S
O521   Zn525   1.992   .     S
O522   Zn526   1.991   .     S
O523   Zn437   1.991   1_655 S
O524   Zn703   1.992   .     S
Zn527  O700    1.992   1_545 S
Zn527  O692    1.991   1_545 S
Zn528  O689    1.992   1_545 S
Zn528  O688    1.991   1_545 S
C529   O597    1.282   .     A
C529   O607    1.282   .     A
C529   C558    1.412   .     S
C530   F580    1.355   .     S
C530   C971    1.418   .     S
C530   N681    1.367   .     S
C531   N594    1.367   .     A
C531   F586    1.355   .     S
C531   C266    1.418   1_455 S
C532   F587    1.355   .     S
C532   C1008   1.418   .     S
C532   N681    1.367   .     S
C533   F588    1.355   .     S
C533   N596    1.367   .     S
C534   F589    1.355   .     S
C534   C887    1.418   .     S
C534   N419    1.367   1_565 S
C535   N420    1.367   1_565 A
C535   F590    1.355   .     S
C536   F591    1.355   .     S
C536   N595    1.367   .     A
C536   C885    1.418   .     S
C537   F592    1.359   .     S
C537   C548    1.373   .     A
C537   C556    1.398   .     A
C538   C555    1.398   .     A
C538   F570    1.359   .     S
C538   C549    1.373   .     A
C539   C546    1.373   .     A
C539   F571    1.359   .     S
C539   C555    1.398   .     A
C540   C557    1.412   .     S
C540   O606    1.282   .     A
C540   O605    1.282   .     A
C541   C556    1.398   .     A
C541   C547    1.373   .     A
C541   F572    1.359   .     S
C542   C558    1.397   .     A
C542   F573    1.359   .     S
C542   C553    1.373   .     A
C543   C557    1.397   .     A
C543   C554    1.373   .     A
C543   F574    1.359   .     S
C544   F575    1.359   .     S
C544   C557    1.398   .     A
C544   C550    1.373   .     A
C545   F576    1.359   .     S
C545   C558    1.398   .     A
C545   C552    1.373   .     A
C546   C560    1.398   .     A
C546   F577    1.359   .     S
C547   C559    1.398   .     A
C547   F578    1.359   .     S
C548   F579    1.359   .     S
C548   C559    1.398   .     A
C549   C560    1.398   .     A
C549   F581    1.359   .     S
C550   C563    1.397   .     A
C550   F582    1.359   .     S
C551   O611    1.282   .     A
C551   C556    1.412   .     S
C551   O608    1.282   .     A
C552   F583    1.359   .     S
C552   C561    1.397   .     A
C553   F584    1.359   .     S
C553   C561    1.398   .     A
C554   C563    1.398   .     A
C554   F585    1.359   .     S
C555   C562    1.412   .     S
C559   C567    1.412   .     S
C560   C566    1.412   .     S
C561   C565    1.412   .     S
C562   O609    1.282   .     A
C562   O610    1.282   .     A
C563   C564    1.412   .     S
C564   O612    1.282   .     A
C564   O600    1.282   .     A
C565   O598    1.282   .     A
C565   O599    1.282   .     A
C566   O604    1.282   .     A
C566   O601    1.282   .     A
C567   O602    1.282   .     A
C567   O603    1.282   .     A
C568   N594    1.367   .     A
C568   F569    1.355   .     S
C568   C268    1.418   1_455 S
N593   Zn613   2.013   .     S
N593   C618    1.367   1_455 S
N593   C620    1.367   1_455 S
N594   Zn614   2.013   .     S
N595   Zn615   2.013   .     S
N596   Zn616   2.013   .     S
O597   Zn613   1.992   .     S
O598   Zn616   1.992   .     S
O599   Zn615   1.991   .     S
O600   Zn440   1.991   1_565 S
O601   Zn440   1.992   1_565 S
O602   Zn615   1.992   .     S
O603   Zn616   1.991   .     S
O604   Zn439   1.991   1_565 S
O605   Zn702   1.992   .     S
O606   Zn701   1.991   .     S
O607   Zn614   1.991   .     S
O608   Zn702   1.992   .     S
O609   Zn613   1.992   .     S
O610   Zn614   1.991   .     S
O611   Zn701   1.991   .     S
O612   Zn439   1.992   1_565 S
Zn613  O699    1.991   1_455 S
Zn613  O694    1.991   1_455 S
Zn614  O696    1.992   1_455 S
Zn614  O693    1.992   1_455 S
C617   O685    1.282   .     A
C617   O695    1.282   .     A
C617   C646    1.412   .     S
C618   F668    1.355   .     S
C618   C883    1.418   1_655 S
C618   N593    1.367   1_655 S
C619   N682    1.367   .     A
C619   F674    1.355   .     S
C620   F675    1.355   .     S
C620   C920    1.418   1_655 S
C620   N593    1.367   1_655 S
C621   F676    1.355   .     S
C621   N684    1.367   .     S
C622   F677    1.355   .     S
C622   C975    1.418   .     S
C622   N507    1.367   1_565 S
C623   N508    1.367   1_565 A
C623   F678    1.355   .     S
C624   F679    1.355   .     S
C624   N683    1.367   .     A
C624   C973    1.418   .     S
C625   F680    1.359   .     S
C625   C636    1.373   .     A
C625   C644    1.398   .     A
C626   C643    1.398   .     A
C626   F658    1.359   .     S
C626   C637    1.373   .     A
C627   C634    1.373   .     A
C627   F659    1.359   .     S
C627   C643    1.398   .     A
C628   C645    1.412   .     S
C628   O694    1.282   .     A
C628   O693    1.282   .     A
C629   C644    1.398   .     A
C629   C635    1.373   .     A
C629   F660    1.359   .     S
C630   C646    1.397   .     A
C630   F661    1.359   .     S
C630   C641    1.373   .     A
C631   C645    1.397   .     A
C631   C642    1.373   .     A
C631   F662    1.359   .     S
C632   F663    1.359   .     S
C632   C645    1.398   .     A
C632   C638    1.373   .     A
C633   F664    1.359   .     S
C633   C646    1.398   .     A
C633   C640    1.373   .     A
C634   C648    1.398   .     A
C634   F665    1.359   .     S
C635   C647    1.398   .     A
C635   F666    1.359   .     S
C636   F667    1.359   .     S
C636   C647    1.398   .     A
C637   C648    1.398   .     A
C637   F669    1.359   .     S
C638   C651    1.397   .     A
C638   F670    1.359   .     S
C639   O699    1.282   .     A
C639   C644    1.412   .     S
C639   O696    1.282   .     A
C640   F671    1.359   .     S
C640   C649    1.397   .     A
C641   F672    1.359   .     S
C641   C649    1.398   .     A
C642   C651    1.398   .     A
C642   F673    1.359   .     S
C643   C650    1.412   .     S
C647   C655    1.412   .     S
C648   C654    1.412   .     S
C649   C653    1.412   .     S
C650   O697    1.282   .     A
C650   O698    1.282   .     A
C651   C652    1.412   .     S
C652   O700    1.282   .     A
C652   O688    1.282   .     A
C653   O686    1.282   .     A
C653   O687    1.282   .     A
C654   O692    1.282   .     A
C654   O689    1.282   .     A
C655   O690    1.282   .     A
C655   O691    1.282   .     A
C656   N682    1.367   .     A
C656   F657    1.355   .     S
N681   Zn701   2.013   .     S
N682   Zn702   2.013   .     S
N683   Zn703   2.013   .     S
N684   Zn704   2.013   .     S
O685   Zn701   1.992   .     S
O686   Zn704   1.992   .     S
O687   Zn703   1.991   .     S
O688   Zn528   1.991   1_565 S
O689   Zn528   1.992   1_565 S
O690   Zn703   1.992   .     S
O691   Zn704   1.991   .     S
O692   Zn527   1.991   1_565 S
O693   Zn614   1.992   1_655 S
O694   Zn613   1.991   1_655 S
O695   Zn702   1.991   .     S
O696   Zn614   1.992   1_655 S
O697   Zn701   1.992   .     S
O698   Zn702   1.991   .     S
O699   Zn613   1.991   1_655 S
O700   Zn527   1.992   1_565 S
C705   O773    1.282   .     A
C705   O783    1.282   .     A
C705   C734    1.412   .     S
C706   F756    1.355   .     S
C706   C91     1.418   1_556 S
C706   N857    1.367   .     S
C707   N770    1.367   .     A
C707   F762    1.355   .     S
C707   C442    1.418   1_455 S
C708   F763    1.355   .     S
C708   C128    1.418   1_556 S
C708   N857    1.367   .     S
C709   F764    1.355   .     S
C709   N772    1.367   .     S
C710   F765    1.355   .     S
C710   C7      1.418   1_556 S
C710   N947    1.367   .     S
C711   N948    1.367   .     A
C711   F766    1.355   .     S
C712   F767    1.355   .     S
C712   N771    1.367   .     A
C712   C5      1.418   1_556 S
C713   F768    1.359   .     S
C713   C724    1.373   .     A
C713   C732    1.398   .     A
C714   C731    1.398   .     A
C714   F746    1.359   .     S
C714   C725    1.373   .     A
C715   C722    1.373   .     A
C715   F747    1.359   .     S
C715   C731    1.398   .     A
C716   C733    1.412   .     S
C716   O782    1.282   .     A
C716   O781    1.282   .     A
C717   C732    1.398   .     A
C717   C723    1.373   .     A
C717   F748    1.359   .     S
C718   C734    1.397   .     A
C718   F749    1.359   .     S
C718   C729    1.373   .     A
C719   C733    1.397   .     A
C719   C730    1.373   .     A
C719   F750    1.359   .     S
C720   F751    1.359   .     S
C720   C733    1.398   .     A
C720   C726    1.373   .     A
C721   F752    1.359   .     S
C721   C734    1.398   .     A
C721   C728    1.373   .     A
C722   C736    1.398   .     A
C722   F753    1.359   .     S
C723   C735    1.398   .     A
C723   F754    1.359   .     S
C724   F755    1.359   .     S
C724   C735    1.398   .     A
C725   C736    1.398   .     A
C725   F757    1.359   .     S
C726   C739    1.397   .     A
C726   F758    1.359   .     S
C727   O787    1.282   .     A
C727   C732    1.412   .     S
C727   O784    1.282   .     A
C728   F759    1.359   .     S
C728   C737    1.397   .     A
C729   F760    1.359   .     S
C729   C737    1.398   .     A
C730   C739    1.398   .     A
C730   F761    1.359   .     S
C731   C738    1.412   .     S
C735   C743    1.412   .     S
C736   C742    1.412   .     S
C737   C741    1.412   .     S
C738   O785    1.282   .     A
C738   O786    1.282   .     A
C739   C740    1.412   .     S
C740   O788    1.282   .     A
C740   O776    1.282   .     A
C741   O774    1.282   .     A
C741   O775    1.282   .     A
C742   O780    1.282   .     A
C742   O777    1.282   .     A
C743   O778    1.282   .     A
C743   O779    1.282   .     A
C744   N770    1.367   .     A
C744   F745    1.355   .     S
C744   C444    1.418   1_455 S
N769   Zn789   2.013   .     S
N769   C794    1.367   1_455 S
N769   C796    1.367   1_455 S
N770   Zn790   2.013   .     S
N771   C886    1.367   1_545 S
N771   Zn791   2.013   .     S
N772   C887    1.367   1_545 A
N772   Zn792   2.013   .     S
O773   Zn789   1.992   .     S
O774   Zn792   1.992   .     S
O775   Zn791   1.991   .     S
O776   Zn968   1.991   .     S
O777   Zn968   1.992   .     S
O778   Zn791   1.992   .     S
O779   Zn792   1.991   .     S
O780   Zn967   1.991   .     S
O781   Zn878   1.992   .     S
O782   Zn877   1.991   .     S
O783   Zn790   1.991   .     S
O784   Zn878   1.992   .     S
O785   Zn789   1.992   .     S
O786   Zn790   1.991   .     S
O787   Zn877   1.991   .     S
O788   Zn967   1.992   .     S
Zn789  O875    1.991   1_455 S
Zn789  O870    1.991   1_455 S
Zn790  O872    1.992   1_455 S
Zn790  O869    1.992   1_455 S
Zn791  O964    1.992   1_545 S
Zn791  O956    1.991   1_545 S
Zn792  O953    1.992   1_545 S
Zn792  O952    1.991   1_545 S
C793   O861    1.282   .     A
C793   O871    1.282   .     A
C793   C822    1.412   .     S
C794   F844    1.355   .     S
C794   C3      1.418   1_656 S
C794   N769    1.367   1_655 S
C795   N858    1.367   .     A
C795   F850    1.355   .     S
C796   F851    1.355   .     S
C796   C40     1.418   1_656 S
C796   N769    1.367   1_655 S
C797   F852    1.355   .     S
C797   N860    1.367   .     S
C798   F853    1.355   .     S
C798   C95     1.418   1_556 S
C798   N1035   1.367   .     S
C799   N1036   1.367   .     A
C799   F854    1.355   .     S
C800   F855    1.355   .     S
C800   N859    1.367   .     A
C800   C93     1.418   1_556 S
C801   F856    1.359   .     S
C801   C812    1.373   .     A
C801   C820    1.398   .     A
C802   C819    1.398   .     A
C802   F834    1.359   .     S
C802   C813    1.373   .     A
C803   C810    1.373   .     A
C803   F835    1.359   .     S
C803   C819    1.398   .     A
C804   C821    1.412   .     S
C804   O870    1.282   .     A
C804   O869    1.282   .     A
C805   C820    1.398   .     A
C805   C811    1.373   .     A
C805   F836    1.359   .     S
C806   C822    1.397   .     A
C806   F837    1.359   .     S
C806   C817    1.373   .     A
C807   C821    1.397   .     A
C807   C818    1.373   .     A
C807   F838    1.359   .     S
C808   F839    1.359   .     S
C808   C821    1.398   .     A
C808   C814    1.373   .     A
C809   F840    1.359   .     S
C809   C822    1.398   .     A
C809   C816    1.373   .     A
C810   C824    1.398   .     A
C810   F841    1.359   .     S
C811   C823    1.398   .     A
C811   F842    1.359   .     S
C812   F843    1.359   .     S
C812   C823    1.398   .     A
C813   C824    1.398   .     A
C813   F845    1.359   .     S
C814   C827    1.397   .     A
C814   F846    1.359   .     S
C815   O875    1.282   .     A
C815   C820    1.412   .     S
C815   O872    1.282   .     A
C816   F847    1.359   .     S
C816   C825    1.397   .     A
C817   F848    1.359   .     S
C817   C825    1.398   .     A
C818   C827    1.398   .     A
C818   F849    1.359   .     S
C819   C826    1.412   .     S
C823   C831    1.412   .     S
C824   C830    1.412   .     S
C825   C829    1.412   .     S
C826   O873    1.282   .     A
C826   O874    1.282   .     A
C827   C828    1.412   .     S
C828   O876    1.282   .     A
C828   O864    1.282   .     A
C829   O862    1.282   .     A
C829   O863    1.282   .     A
C830   O868    1.282   .     A
C830   O865    1.282   .     A
C831   O866    1.282   .     A
C831   O867    1.282   .     A
C832   N858    1.367   .     A
C832   F833    1.355   .     S
N857   Zn877   2.013   .     S
N858   Zn878   2.013   .     S
N859   C974    1.367   1_545 S
N859   Zn879   2.013   .     S
N860   C975    1.367   1_545 A
N860   Zn880   2.013   .     S
O861   Zn877   1.992   .     S
O862   Zn880   1.992   .     S
O863   Zn879   1.991   .     S
O864   Zn1056  1.991   .     S
O865   Zn1056  1.992   .     S
O866   Zn879   1.992   .     S
O867   Zn880   1.991   .     S
O868   Zn1055  1.991   .     S
O869   Zn790   1.992   1_655 S
O870   Zn789   1.991   1_655 S
O871   Zn878   1.991   .     S
O872   Zn790   1.992   1_655 S
O873   Zn877   1.992   .     S
O874   Zn878   1.991   .     S
O875   Zn789   1.991   1_655 S
O876   Zn1055  1.992   .     S
Zn879  O1052   1.992   1_545 S
Zn879  O1044   1.991   1_545 S
Zn880  O1041   1.992   1_545 S
Zn880  O1040   1.991   1_545 S
C881   O949    1.282   .     A
C881   O959    1.282   .     A
C881   C910    1.412   .     S
C882   F932    1.355   .     S
C882   C267    1.418   1_556 S
C882   N1033   1.367   .     S
C883   N946    1.367   .     A
C883   F938    1.355   .     S
C883   C618    1.418   1_455 S
C884   F939    1.355   .     S
C884   C304    1.418   1_556 S
C884   N1033   1.367   .     S
C885   F940    1.355   .     S
C885   N948    1.367   .     S
C886   F941    1.355   .     S
C886   C183    1.418   1_556 S
C886   N771    1.367   1_565 S
C887   N772    1.367   1_565 A
C887   F942    1.355   .     S
C888   F943    1.355   .     S
C888   N947    1.367   .     A
C888   C181    1.418   1_556 S
C889   F944    1.359   .     S
C889   C900    1.373   .     A
C889   C908    1.398   .     A
C890   C907    1.398   .     A
C890   F922    1.359   .     S
C890   C901    1.373   .     A
C891   C898    1.373   .     A
C891   F923    1.359   .     S
C891   C907    1.398   .     A
C892   C909    1.412   .     S
C892   O958    1.282   .     A
C892   O957    1.282   .     A
C893   C908    1.398   .     A
C893   C899    1.373   .     A
C893   F924    1.359   .     S
C894   C910    1.397   .     A
C894   F925    1.359   .     S
C894   C905    1.373   .     A
C895   C909    1.397   .     A
C895   C906    1.373   .     A
C895   F926    1.359   .     S
C896   F927    1.359   .     S
C896   C909    1.398   .     A
C896   C902    1.373   .     A
C897   F928    1.359   .     S
C897   C910    1.398   .     A
C897   C904    1.373   .     A
C898   C912    1.398   .     A
C898   F929    1.359   .     S
C899   C911    1.398   .     A
C899   F930    1.359   .     S
C900   F931    1.359   .     S
C900   C911    1.398   .     A
C901   C912    1.398   .     A
C901   F933    1.359   .     S
C902   C915    1.397   .     A
C902   F934    1.359   .     S
C903   O963    1.282   .     A
C903   C908    1.412   .     S
C903   O960    1.282   .     A
C904   F935    1.359   .     S
C904   C913    1.397   .     A
C905   F936    1.359   .     S
C905   C913    1.398   .     A
C906   C915    1.398   .     A
C906   F937    1.359   .     S
C907   C914    1.412   .     S
C911   C919    1.412   .     S
C912   C918    1.412   .     S
C913   C917    1.412   .     S
C914   O961    1.282   .     A
C914   O962    1.282   .     A
C915   C916    1.412   .     S
C916   O964    1.282   .     A
C916   O952    1.282   .     A
C917   O950    1.282   .     A
C917   O951    1.282   .     A
C918   O956    1.282   .     A
C918   O953    1.282   .     A
C919   O954    1.282   .     A
C919   O955    1.282   .     A
C920   N946    1.367   .     A
C920   F921    1.355   .     S
C920   C620    1.418   1_455 S
N945   Zn965   2.013   .     S
N945   C970    1.367   1_455 S
N945   C972    1.367   1_455 S
N946   Zn966   2.013   .     S
N947   Zn967   2.013   .     S
N948   Zn968   2.013   .     S
O949   Zn965   1.992   .     S
O950   Zn968   1.992   .     S
O951   Zn967   1.991   .     S
O952   Zn792   1.991   1_565 S
O953   Zn792   1.992   1_565 S
O954   Zn967   1.992   .     S
O955   Zn968   1.991   .     S
O956   Zn791   1.991   1_565 S
O957   Zn1054  1.992   .     S
O958   Zn1053  1.991   .     S
O959   Zn966   1.991   .     S
O960   Zn1054  1.992   .     S
O961   Zn965   1.992   .     S
O962   Zn966   1.991   .     S
O963   Zn1053  1.991   .     S
O964   Zn791   1.992   1_565 S
Zn965  O1051   1.991   1_455 S
Zn965  O1046   1.991   1_455 S
Zn966  O1048   1.992   1_455 S
Zn966  O1045   1.992   1_455 S
C969   O1037   1.282   .     A
C969   O1047   1.282   .     A
C969   C998    1.412   .     S
C970   F1020   1.355   .     S
C970   C179    1.418   1_656 S
C970   N945    1.367   1_655 S
C971   N1034   1.367   .     A
C971   F1026   1.355   .     S
C972   F1027   1.355   .     S
C972   C216    1.418   1_656 S
C972   N945    1.367   1_655 S
C973   F1028   1.355   .     S
C973   N1036   1.367   .     S
C974   F1029   1.355   .     S
C974   C271    1.418   1_556 S
C974   N859    1.367   1_565 S
C975   N860    1.367   1_565 A
C975   F1030   1.355   .     S
C976   F1031   1.355   .     S
C976   N1035   1.367   .     A
C976   C269    1.418   1_556 S
C977   F1032   1.359   .     S
C977   C988    1.373   .     A
C977   C996    1.398   .     A
C978   C995    1.398   .     A
C978   F1010   1.359   .     S
C978   C989    1.373   .     A
C979   C986    1.373   .     A
C979   F1011   1.359   .     S
C979   C995    1.398   .     A
C980   C997    1.412   .     S
C980   O1046   1.282   .     A
C980   O1045   1.282   .     A
C981   C996    1.398   .     A
C981   C987    1.373   .     A
C981   F1012   1.359   .     S
C982   C998    1.397   .     A
C982   F1013   1.359   .     S
C982   C993    1.373   .     A
C983   C997    1.397   .     A
C983   C994    1.373   .     A
C983   F1014   1.359   .     S
C984   F1015   1.359   .     S
C984   C997    1.398   .     A
C984   C990    1.373   .     A
C985   F1016   1.359   .     S
C985   C998    1.398   .     A
C985   C992    1.373   .     A
C986   C1000   1.398   .     A
C986   F1017   1.359   .     S
C987   C999    1.398   .     A
C987   F1018   1.359   .     S
C988   F1019   1.359   .     S
C988   C999    1.398   .     A
C989   C1000   1.398   .     A
C989   F1021   1.359   .     S
C990   C1003   1.397   .     A
C990   F1022   1.359   .     S
C991   O1051   1.282   .     A
C991   C996    1.412   .     S
C991   O1048   1.282   .     A
C992   F1023   1.359   .     S
C992   C1001   1.397   .     A
C993   F1024   1.359   .     S
C993   C1001   1.398   .     A
C994   C1003   1.398   .     A
C994   F1025   1.359   .     S
C995   C1002   1.412   .     S
C999   C1007   1.412   .     S
C1000  C1006   1.412   .     S
C1001  C1005   1.412   .     S
C1002  O1049   1.282   .     A
C1002  O1050   1.282   .     A
C1003  C1004   1.412   .     S
C1004  O1052   1.282   .     A
C1004  O1040   1.282   .     A
C1005  O1038   1.282   .     A
C1005  O1039   1.282   .     A
C1006  O1044   1.282   .     A
C1006  O1041   1.282   .     A
C1007  O1042   1.282   .     A
C1007  O1043   1.282   .     A
C1008  N1034   1.367   .     A
C1008  F1009   1.355   .     S
N1033  Zn1053  2.013   .     S
N1034  Zn1054  2.013   .     S
N1035  Zn1055  2.013   .     S
N1036  Zn1056  2.013   .     S
O1037  Zn1053  1.992   .     S
O1038  Zn1056  1.992   .     S
O1039  Zn1055  1.991   .     S
O1040  Zn880   1.991   1_565 S
O1041  Zn880   1.992   1_565 S
O1042  Zn1055  1.992   .     S
O1043  Zn1056  1.991   .     S
O1044  Zn879   1.991   1_565 S
O1045  Zn966   1.992   1_655 S
O1046  Zn965   1.991   1_655 S
O1047  Zn1054  1.991   .     S
O1048  Zn966   1.992   1_655 S
O1049  Zn1053  1.992   .     S
O1050  Zn1054  1.991   .     S
O1051  Zn965   1.991   1_655 S
O1052  Zn879   1.992   1_565 S
