data_str_m3_o10_o18_pcu_sym.88
_audit_creation_date              2020-01-03
_audit_creation_method            'Materials Studio'
_symmetry_space_group_name_H-M    'P1'
_symmetry_Int_Tables_number       1
_symmetry_cell_setting            triclinic
loop_
_symmetry_equiv_pos_as_xyz
  x,y,z
_cell_length_a                    23.6375
_cell_length_b                    26.0609
_cell_length_c                    27.2461
_cell_angle_alpha                 96.0412
_cell_angle_beta                  91.6733
_cell_angle_gamma                 93.8217
loop_
_atom_site_label
_atom_site_type_symbol
_atom_site_fract_x
_atom_site_fract_y
_atom_site_fract_z
_atom_site_U_iso_or_equiv
_atom_site_adp_type
_atom_site_occupancy
O1     O     0.29719   0.24631   0.25309   0.00000  Uiso   1.00
O2     O     0.03614   0.08702   0.24690   0.00000  Uiso   1.00
O3     O     0.05822   0.23702   0.24501   0.00000  Uiso   1.00
O4     O     0.27512   0.09632   0.25498   0.00000  Uiso   1.00
C5     C     0.01418   0.26409   0.24539   0.00000  Uiso   1.00
C6     C     0.31808   0.06827   0.24879   0.00000  Uiso   1.00
O7     O     0.30328   0.17397   0.32247   0.00000  Uiso   1.00
O8     O     0.03005   0.15937   0.17753   0.00000  Uiso   1.00
O9     O     0.06431   0.16467   0.31439   0.00000  Uiso   1.00
O10    O     0.26902   0.16866   0.18561   0.00000  Uiso   1.00
C11    C     0.02043   0.17048   0.34189   0.00000  Uiso   1.00
C12    C     0.31247   0.16085   0.15834   0.00000  Uiso   1.00
Zn13   Zn    0.27033   0.17287   0.25539   0.00000  Uiso   1.00
Zn14   Zn    0.06300   0.16046   0.24460   0.00000  Uiso   1.00
C15    C     0.02959   0.17391   0.39635   0.00000  Uiso   1.00
C16    C     0.30055   0.14794   0.10493   0.00000  Uiso   1.00
C17    C     0.02234   0.22342   0.47612   0.00000  Uiso   1.00
C18    C     0.28533   0.07608   0.04084   0.00000  Uiso   1.00
C19    C     0.00045   0.20834   0.42825   0.00000  Uiso   1.00
C20    C     0.31837   0.10112   0.08116   0.00000  Uiso   1.00
C21    C     0.07290   0.14636   0.41612   0.00000  Uiso   1.00
C22    C     0.25740   0.17372   0.08278   0.00000  Uiso   1.00
C23    C     0.09212   0.15884   0.46648   0.00000  Uiso   1.00
C24    C     0.21976   0.14456   0.04674   0.00000  Uiso   1.00
C25    C     0.06803   0.20002   0.49496   0.00000  Uiso   1.00
C26    C     0.23576   0.09600   0.02527   0.00000  Uiso   1.00
C27    C     0.13709   0.13488   0.48884   0.00000  Uiso   1.00
C28    C     0.16617   0.16074   0.03187   0.00000  Uiso   1.00
C29    C     0.13844   0.19889   0.06041   0.00000  Uiso   1.00
C30    C     0.15233   0.08516   0.47161   0.00000  Uiso   1.00
C31    C     0.08933   0.21752   0.04252   0.00000  Uiso   1.00
C32    C     0.20107   0.06617   0.48938   0.00000  Uiso   1.00
H33    H     0.06930   0.24732   0.06525   0.00000  Uiso   1.00
H34    H     0.21166   0.02777   0.47484   0.00000  Uiso   1.00
H35    H     0.00329   0.25402   0.49865   0.00000  Uiso   1.00
H36    H     0.29539   0.03868   0.02346   0.00000  Uiso   1.00
H37    H     0.15360   0.21403   0.09721   0.00000  Uiso   1.00
H38    H     0.12539   0.05898   0.44638   0.00000  Uiso   1.00
C39    C     0.02115   0.31724   0.23762   0.00000  Uiso   1.00
C40    C     0.30876   0.01306   0.24269   0.00000  Uiso   1.00
N41    N     0.14695   0.15216   0.23739   0.00000  Uiso   1.00
N42    N     0.18638   0.18117   0.26260   0.00000  Uiso   1.00
N43    N     0.25603   0.22943   0.09388   0.00000  Uiso   1.00
O44    O     0.24147   0.25770   0.05965   0.00000  Uiso   1.00
O45    O     0.27888   0.25339   0.13468   0.00000  Uiso   1.00
N46    N     0.09810   0.10784   0.38368   0.00000  Uiso   1.00
O47    O     0.15076   0.11450   0.37181   0.00000  Uiso   1.00
O48    O     0.06654   0.06884   0.36164   0.00000  Uiso   1.00
O49    O     0.03067   0.07860   0.10170   0.00000  Uiso   1.00
C50    C     0.05753   0.04470   0.06709   0.00000  Uiso   1.00
H51    H     0.06252   0.06059   0.03105   0.00000  Uiso   1.00
H52    H     0.03412   0.00601   0.06233   0.00000  Uiso   1.00
H53    H     0.10065   0.03886   0.08129   0.00000  Uiso   1.00
O54    O     0.28581   0.23001   0.41228   0.00000  Uiso   1.00
C55    C     0.23944   0.21114   0.43857   0.00000  Uiso   1.00
H56    H     0.20228   0.23374   0.43254   0.00000  Uiso   1.00
H57    H     0.24756   0.21519   0.47883   0.00000  Uiso   1.00
H58    H     0.22831   0.16969   0.42594   0.00000  Uiso   1.00
O59    O     0.07606   0.00433   0.23159   0.00000  Uiso   1.00
C60    C     0.09295   0.32029   0.18362   0.00000  Uiso   1.00
H61    H     0.06276   0.33076   0.15490   0.00000  Uiso   1.00
H62    H     0.09762   0.27802   0.17841   0.00000  Uiso   1.00
H63    H     0.13543   0.00542   0.17784   0.00000  Uiso   1.00
O64    O     0.25354   0.32380   0.23348   0.00000  Uiso   1.00
C65    C     0.21667   0.00618   0.27133   0.00000  Uiso   1.00
H66    H     0.19560   0.04120   0.26341   0.00000  Uiso   1.00
H67    H     0.23787   0.01136   0.30876   0.00000  Uiso   1.00
H68    H     0.18121   0.30989   0.27102   0.00000  Uiso   1.00
O69    O     0.16872   0.11360   0.20914   0.00000  Uiso   1.00
C70    C     0.13924   0.10876   0.16381   0.00000  Uiso   1.00
H71    H     0.13529   0.14678   0.14941   0.00000  Uiso   1.00
H72    H     0.09735   0.08902   0.16804   0.00000  Uiso   1.00
H73    H     0.16342   0.08494   0.13684   0.00000  Uiso   1.00
O74    O     0.16510   0.22219   0.28758   0.00000  Uiso   1.00
C75    C     0.19697   0.23332   0.33155   0.00000  Uiso   1.00
H76    H     0.23929   0.25174   0.32537   0.00000  Uiso   1.00
H77    H     0.20058   0.19754   0.34955   0.00000  Uiso   1.00
H78    H     0.17445   0.26106   0.35630   0.00000  Uiso   1.00
O79    O     0.63052   0.24631   0.25309   0.00000  Uiso   1.00
O80    O     0.36948   0.08702   0.24690   0.00000  Uiso   1.00
O81    O     0.39155   0.23702   0.24501   0.00000  Uiso   1.00
O82    O     0.60845   0.09632   0.25498   0.00000  Uiso   1.00
C83    C     0.34751   0.26409   0.24539   0.00000  Uiso   1.00
C84    C     0.65141   0.06827   0.24879   0.00000  Uiso   1.00
O85    O     0.63662   0.17397   0.32247   0.00000  Uiso   1.00
O86    O     0.36338   0.15937   0.17753   0.00000  Uiso   1.00
O87    O     0.39764   0.16467   0.31439   0.00000  Uiso   1.00
O88    O     0.60236   0.16866   0.18561   0.00000  Uiso   1.00
C89    C     0.35377   0.17048   0.34189   0.00000  Uiso   1.00
C90    C     0.64581   0.16085   0.15834   0.00000  Uiso   1.00
Zn91   Zn    0.60366   0.17287   0.25539   0.00000  Uiso   1.00
Zn92   Zn    0.39634   0.16046   0.24460   0.00000  Uiso   1.00
C93    C     0.36293   0.17391   0.39635   0.00000  Uiso   1.00
C94    C     0.63388   0.14794   0.10493   0.00000  Uiso   1.00
C95    C     0.35567   0.22342   0.47612   0.00000  Uiso   1.00
C96    C     0.61866   0.07608   0.04084   0.00000  Uiso   1.00
C97    C     0.33378   0.20834   0.42825   0.00000  Uiso   1.00
C98    C     0.65171   0.10112   0.08116   0.00000  Uiso   1.00
C99    C     0.40623   0.14636   0.41612   0.00000  Uiso   1.00
C100   C     0.59073   0.17372   0.08278   0.00000  Uiso   1.00
C101   C     0.42546   0.15884   0.46648   0.00000  Uiso   1.00
C102   C     0.55309   0.14456   0.04674   0.00000  Uiso   1.00
C103   C     0.40136   0.20002   0.49496   0.00000  Uiso   1.00
C104   C     0.56909   0.09600   0.02527   0.00000  Uiso   1.00
C105   C     0.47042   0.13488   0.48884   0.00000  Uiso   1.00
C106   C     0.49950   0.16074   0.03187   0.00000  Uiso   1.00
C107   C     0.47177   0.19889   0.06041   0.00000  Uiso   1.00
C108   C     0.48566   0.08516   0.47161   0.00000  Uiso   1.00
C109   C     0.42266   0.21752   0.04252   0.00000  Uiso   1.00
C110   C     0.53440   0.06617   0.48938   0.00000  Uiso   1.00
H111   H     0.40264   0.24732   0.06525   0.00000  Uiso   1.00
H112   H     0.54500   0.02777   0.47484   0.00000  Uiso   1.00
H113   H     0.33662   0.25402   0.49865   0.00000  Uiso   1.00
H114   H     0.62872   0.03868   0.02346   0.00000  Uiso   1.00
H115   H     0.48693   0.21403   0.09721   0.00000  Uiso   1.00
H116   H     0.45873   0.05898   0.44638   0.00000  Uiso   1.00
C117   C     0.35448   0.31724   0.23762   0.00000  Uiso   1.00
C118   C     0.64210   0.01306   0.24269   0.00000  Uiso   1.00
N119   N     0.48029   0.15216   0.23739   0.00000  Uiso   1.00
N120   N     0.51971   0.18117   0.26260   0.00000  Uiso   1.00
N121   N     0.58936   0.22943   0.09388   0.00000  Uiso   1.00
O122   O     0.57480   0.25770   0.05965   0.00000  Uiso   1.00
O123   O     0.61222   0.25339   0.13468   0.00000  Uiso   1.00
N124   N     0.43143   0.10784   0.38368   0.00000  Uiso   1.00
O125   O     0.48409   0.11450   0.37181   0.00000  Uiso   1.00
O126   O     0.39988   0.06884   0.36164   0.00000  Uiso   1.00
O127   O     0.36400   0.07860   0.10170   0.00000  Uiso   1.00
C128   C     0.39087   0.04470   0.06709   0.00000  Uiso   1.00
H129   H     0.39585   0.06059   0.03105   0.00000  Uiso   1.00
H130   H     0.36745   0.00601   0.06233   0.00000  Uiso   1.00
H131   H     0.43398   0.03886   0.08129   0.00000  Uiso   1.00
O132   O     0.61915   0.23001   0.41228   0.00000  Uiso   1.00
C133   C     0.57278   0.21114   0.43857   0.00000  Uiso   1.00
H134   H     0.53561   0.23374   0.43254   0.00000  Uiso   1.00
H135   H     0.58090   0.21519   0.47883   0.00000  Uiso   1.00
H136   H     0.56165   0.16969   0.42594   0.00000  Uiso   1.00
O137   O     0.40940   0.00433   0.23159   0.00000  Uiso   1.00
C138   C     0.42628   0.32029   0.18362   0.00000  Uiso   1.00
H139   H     0.39609   0.33076   0.15490   0.00000  Uiso   1.00
H140   H     0.43095   0.27802   0.17841   0.00000  Uiso   1.00
H141   H     0.46876   0.00542   0.17784   0.00000  Uiso   1.00
O142   O     0.58687   0.32380   0.23348   0.00000  Uiso   1.00
C143   C     0.55001   0.00618   0.27133   0.00000  Uiso   1.00
H144   H     0.52894   0.04120   0.26341   0.00000  Uiso   1.00
H145   H     0.57121   0.01136   0.30876   0.00000  Uiso   1.00
H146   H     0.51454   0.30989   0.27102   0.00000  Uiso   1.00
O147   O     0.50206   0.11360   0.20914   0.00000  Uiso   1.00
C148   C     0.47257   0.10876   0.16381   0.00000  Uiso   1.00
H149   H     0.46862   0.14678   0.14941   0.00000  Uiso   1.00
H150   H     0.43068   0.08902   0.16804   0.00000  Uiso   1.00
H151   H     0.49676   0.08494   0.13684   0.00000  Uiso   1.00
O152   O     0.49844   0.22219   0.28758   0.00000  Uiso   1.00
C153   C     0.53031   0.23332   0.33155   0.00000  Uiso   1.00
H154   H     0.57263   0.25174   0.32537   0.00000  Uiso   1.00
H155   H     0.53391   0.19754   0.34955   0.00000  Uiso   1.00
H156   H     0.50779   0.26106   0.35630   0.00000  Uiso   1.00
O157   O     0.96386   0.24631   0.25309   0.00000  Uiso   1.00
O158   O     0.70281   0.08702   0.24690   0.00000  Uiso   1.00
O159   O     0.72488   0.23702   0.24501   0.00000  Uiso   1.00
O160   O     0.94178   0.09632   0.25498   0.00000  Uiso   1.00
C161   C     0.68085   0.26409   0.24539   0.00000  Uiso   1.00
C162   C     0.98474   0.06827   0.24879   0.00000  Uiso   1.00
O163   O     0.96995   0.17397   0.32247   0.00000  Uiso   1.00
O164   O     0.69672   0.15937   0.17753   0.00000  Uiso   1.00
O165   O     0.73098   0.16467   0.31439   0.00000  Uiso   1.00
O166   O     0.93569   0.16866   0.18561   0.00000  Uiso   1.00
C167   C     0.68710   0.17048   0.34189   0.00000  Uiso   1.00
C168   C     0.97914   0.16085   0.15834   0.00000  Uiso   1.00
Zn169  Zn    0.93700   0.17287   0.25539   0.00000  Uiso   1.00
Zn170  Zn    0.72967   0.16046   0.24460   0.00000  Uiso   1.00
C171   C     0.69626   0.17391   0.39635   0.00000  Uiso   1.00
C172   C     0.96721   0.14794   0.10493   0.00000  Uiso   1.00
C173   C     0.68900   0.22342   0.47612   0.00000  Uiso   1.00
C174   C     0.95200   0.07608   0.04084   0.00000  Uiso   1.00
C175   C     0.66711   0.20834   0.42825   0.00000  Uiso   1.00
C176   C     0.98504   0.10112   0.08116   0.00000  Uiso   1.00
C177   C     0.73957   0.14636   0.41612   0.00000  Uiso   1.00
C178   C     0.92407   0.17372   0.08278   0.00000  Uiso   1.00
C179   C     0.75879   0.15884   0.46648   0.00000  Uiso   1.00
C180   C     0.88642   0.14456   0.04674   0.00000  Uiso   1.00
C181   C     0.73470   0.20002   0.49496   0.00000  Uiso   1.00
C182   C     0.90242   0.09600   0.02527   0.00000  Uiso   1.00
C183   C     0.80376   0.13488   0.48884   0.00000  Uiso   1.00
C184   C     0.83284   0.16074   0.03187   0.00000  Uiso   1.00
C185   C     0.80511   0.19889   0.06041   0.00000  Uiso   1.00
C186   C     0.81899   0.08516   0.47161   0.00000  Uiso   1.00
C187   C     0.75600   0.21752   0.04252   0.00000  Uiso   1.00
C188   C     0.86773   0.06617   0.48938   0.00000  Uiso   1.00
H189   H     0.73597   0.24732   0.06525   0.00000  Uiso   1.00
H190   H     0.87833   0.02777   0.47484   0.00000  Uiso   1.00
H191   H     0.66995   0.25402   0.49865   0.00000  Uiso   1.00
H192   H     0.96206   0.03868   0.02346   0.00000  Uiso   1.00
H193   H     0.82026   0.21403   0.09721   0.00000  Uiso   1.00
H194   H     0.79206   0.05898   0.44638   0.00000  Uiso   1.00
C195   C     0.68781   0.31724   0.23762   0.00000  Uiso   1.00
C196   C     0.97543   0.01306   0.24269   0.00000  Uiso   1.00
N197   N     0.81362   0.15216   0.23739   0.00000  Uiso   1.00
N198   N     0.85305   0.18117   0.26260   0.00000  Uiso   1.00
N199   N     0.92269   0.22943   0.09388   0.00000  Uiso   1.00
O200   O     0.90814   0.25770   0.05965   0.00000  Uiso   1.00
O201   O     0.94555   0.25339   0.13468   0.00000  Uiso   1.00
N202   N     0.76477   0.10784   0.38368   0.00000  Uiso   1.00
O203   O     0.81743   0.11450   0.37181   0.00000  Uiso   1.00
O204   O     0.73321   0.06884   0.36164   0.00000  Uiso   1.00
O205   O     0.69733   0.07860   0.10170   0.00000  Uiso   1.00
C206   C     0.72420   0.04470   0.06709   0.00000  Uiso   1.00
H207   H     0.72918   0.06059   0.03105   0.00000  Uiso   1.00
H208   H     0.70079   0.00601   0.06233   0.00000  Uiso   1.00
H209   H     0.76732   0.03886   0.08129   0.00000  Uiso   1.00
O210   O     0.95248   0.23001   0.41228   0.00000  Uiso   1.00
C211   C     0.90611   0.21114   0.43857   0.00000  Uiso   1.00
H212   H     0.86895   0.23374   0.43254   0.00000  Uiso   1.00
H213   H     0.91423   0.21519   0.47883   0.00000  Uiso   1.00
H214   H     0.89498   0.16969   0.42594   0.00000  Uiso   1.00
O215   O     0.74273   0.00433   0.23159   0.00000  Uiso   1.00
C216   C     0.75961   0.32029   0.18362   0.00000  Uiso   1.00
H217   H     0.72943   0.33076   0.15490   0.00000  Uiso   1.00
H218   H     0.76428   0.27802   0.17841   0.00000  Uiso   1.00
H219   H     0.80209   0.00542   0.17784   0.00000  Uiso   1.00
O220   O     0.92020   0.32380   0.23348   0.00000  Uiso   1.00
C221   C     0.88334   0.00618   0.27133   0.00000  Uiso   1.00
H222   H     0.86227   0.04120   0.26341   0.00000  Uiso   1.00
H223   H     0.90454   0.01136   0.30876   0.00000  Uiso   1.00
H224   H     0.84788   0.30989   0.27102   0.00000  Uiso   1.00
O225   O     0.83539   0.11360   0.20914   0.00000  Uiso   1.00
C226   C     0.80591   0.10876   0.16381   0.00000  Uiso   1.00
H227   H     0.80195   0.14678   0.14941   0.00000  Uiso   1.00
H228   H     0.76401   0.08902   0.16804   0.00000  Uiso   1.00
H229   H     0.83009   0.08494   0.13684   0.00000  Uiso   1.00
O230   O     0.83177   0.22219   0.28758   0.00000  Uiso   1.00
C231   C     0.86364   0.23332   0.33155   0.00000  Uiso   1.00
H232   H     0.90596   0.25174   0.32537   0.00000  Uiso   1.00
H233   H     0.86724   0.19754   0.34955   0.00000  Uiso   1.00
H234   H     0.84112   0.26106   0.35630   0.00000  Uiso   1.00
O235   O     0.29719   0.57964   0.25309   0.00000  Uiso   1.00
O236   O     0.03614   0.42036   0.24690   0.00000  Uiso   1.00
O237   O     0.05822   0.57035   0.24501   0.00000  Uiso   1.00
O238   O     0.27512   0.42965   0.25498   0.00000  Uiso   1.00
C239   C     0.01418   0.59742   0.24539   0.00000  Uiso   1.00
C240   C     0.31808   0.40161   0.24879   0.00000  Uiso   1.00
O241   O     0.30328   0.50730   0.32247   0.00000  Uiso   1.00
O242   O     0.03005   0.49270   0.17753   0.00000  Uiso   1.00
O243   O     0.06431   0.49801   0.31439   0.00000  Uiso   1.00
O244   O     0.26902   0.50199   0.18561   0.00000  Uiso   1.00
C245   C     0.02043   0.50381   0.34189   0.00000  Uiso   1.00
C246   C     0.31247   0.49419   0.15834   0.00000  Uiso   1.00
Zn247  Zn    0.27033   0.50621   0.25539   0.00000  Uiso   1.00
Zn248  Zn    0.06300   0.49379   0.24460   0.00000  Uiso   1.00
C249   C     0.02959   0.50724   0.39635   0.00000  Uiso   1.00
C250   C     0.30055   0.48127   0.10493   0.00000  Uiso   1.00
C251   C     0.02234   0.55675   0.47612   0.00000  Uiso   1.00
C252   C     0.28533   0.40941   0.04084   0.00000  Uiso   1.00
C253   C     0.00045   0.54167   0.42825   0.00000  Uiso   1.00
C254   C     0.31837   0.43446   0.08116   0.00000  Uiso   1.00
C255   C     0.07290   0.47969   0.41612   0.00000  Uiso   1.00
C256   C     0.25740   0.50706   0.08278   0.00000  Uiso   1.00
C257   C     0.09212   0.49217   0.46648   0.00000  Uiso   1.00
C258   C     0.21976   0.47789   0.04674   0.00000  Uiso   1.00
C259   C     0.06803   0.53336   0.49496   0.00000  Uiso   1.00
C260   C     0.23576   0.42934   0.02527   0.00000  Uiso   1.00
C261   C     0.13709   0.46822   0.48884   0.00000  Uiso   1.00
C262   C     0.16617   0.49407   0.03187   0.00000  Uiso   1.00
C263   C     0.13844   0.53222   0.06041   0.00000  Uiso   1.00
C264   C     0.15233   0.41849   0.47161   0.00000  Uiso   1.00
C265   C     0.08933   0.55085   0.04252   0.00000  Uiso   1.00
C266   C     0.20107   0.39950   0.48938   0.00000  Uiso   1.00
H267   H     0.06930   0.58065   0.06525   0.00000  Uiso   1.00
H268   H     0.21166   0.36110   0.47484   0.00000  Uiso   1.00
H269   H     0.00329   0.58735   0.49865   0.00000  Uiso   1.00
H270   H     0.29539   0.37201   0.02346   0.00000  Uiso   1.00
H271   H     0.15360   0.54737   0.09721   0.00000  Uiso   1.00
H272   H     0.12539   0.39231   0.44638   0.00000  Uiso   1.00
C273   C     0.02115   0.65057   0.23762   0.00000  Uiso   1.00
C274   C     0.30876   0.34640   0.24269   0.00000  Uiso   1.00
N275   N     0.14695   0.48550   0.23739   0.00000  Uiso   1.00
N276   N     0.18638   0.51450   0.26260   0.00000  Uiso   1.00
N277   N     0.25603   0.56277   0.09388   0.00000  Uiso   1.00
O278   O     0.24147   0.59103   0.05965   0.00000  Uiso   1.00
O279   O     0.27888   0.58673   0.13468   0.00000  Uiso   1.00
N280   N     0.09810   0.44118   0.38368   0.00000  Uiso   1.00
O281   O     0.15076   0.44783   0.37181   0.00000  Uiso   1.00
O282   O     0.06654   0.40217   0.36164   0.00000  Uiso   1.00
O283   O     0.03067   0.41193   0.10170   0.00000  Uiso   1.00
C284   C     0.05753   0.37804   0.06709   0.00000  Uiso   1.00
H285   H     0.06252   0.39392   0.03105   0.00000  Uiso   1.00
H286   H     0.03412   0.33935   0.06233   0.00000  Uiso   1.00
H287   H     0.10065   0.37219   0.08129   0.00000  Uiso   1.00
O288   O     0.28581   0.56334   0.41228   0.00000  Uiso   1.00
C289   C     0.23944   0.54447   0.43857   0.00000  Uiso   1.00
H290   H     0.20228   0.56707   0.43254   0.00000  Uiso   1.00
H291   H     0.24756   0.54852   0.47883   0.00000  Uiso   1.00
H292   H     0.22831   0.50303   0.42594   0.00000  Uiso   1.00
O293   O     0.07606   0.33766   0.23159   0.00000  Uiso   1.00
C294   C     0.09295   0.65362   0.18362   0.00000  Uiso   1.00
H295   H     0.06276   0.66409   0.15490   0.00000  Uiso   1.00
H296   H     0.09762   0.61136   0.17841   0.00000  Uiso   1.00
H297   H     0.13543   0.33876   0.17784   0.00000  Uiso   1.00
O298   O     0.25354   0.65714   0.23348   0.00000  Uiso   1.00
C299   C     0.21667   0.33951   0.27133   0.00000  Uiso   1.00
H300   H     0.19560   0.37453   0.26341   0.00000  Uiso   1.00
H301   H     0.23787   0.34469   0.30876   0.00000  Uiso   1.00
H302   H     0.18121   0.64322   0.27102   0.00000  Uiso   1.00
O303   O     0.16872   0.44693   0.20914   0.00000  Uiso   1.00
C304   C     0.13924   0.44210   0.16381   0.00000  Uiso   1.00
H305   H     0.13529   0.48012   0.14941   0.00000  Uiso   1.00
H306   H     0.09735   0.42235   0.16804   0.00000  Uiso   1.00
H307   H     0.16342   0.41828   0.13684   0.00000  Uiso   1.00
O308   O     0.16510   0.55552   0.28758   0.00000  Uiso   1.00
C309   C     0.19697   0.56665   0.33155   0.00000  Uiso   1.00
H310   H     0.23929   0.58508   0.32537   0.00000  Uiso   1.00
H311   H     0.20058   0.53088   0.34955   0.00000  Uiso   1.00
H312   H     0.17445   0.59439   0.35630   0.00000  Uiso   1.00
O313   O     0.63052   0.57964   0.25309   0.00000  Uiso   1.00
O314   O     0.36948   0.42036   0.24690   0.00000  Uiso   1.00
O315   O     0.39155   0.57035   0.24501   0.00000  Uiso   1.00
O316   O     0.60845   0.42965   0.25498   0.00000  Uiso   1.00
C317   C     0.34751   0.59742   0.24539   0.00000  Uiso   1.00
C318   C     0.65141   0.40161   0.24879   0.00000  Uiso   1.00
O319   O     0.63662   0.50730   0.32247   0.00000  Uiso   1.00
O320   O     0.36338   0.49270   0.17753   0.00000  Uiso   1.00
O321   O     0.39764   0.49801   0.31439   0.00000  Uiso   1.00
O322   O     0.60236   0.50199   0.18561   0.00000  Uiso   1.00
C323   C     0.35377   0.50381   0.34189   0.00000  Uiso   1.00
C324   C     0.64581   0.49419   0.15834   0.00000  Uiso   1.00
Zn325  Zn    0.60366   0.50621   0.25539   0.00000  Uiso   1.00
Zn326  Zn    0.39634   0.49379   0.24460   0.00000  Uiso   1.00
C327   C     0.36293   0.50724   0.39635   0.00000  Uiso   1.00
C328   C     0.63388   0.48127   0.10493   0.00000  Uiso   1.00
C329   C     0.35567   0.55675   0.47612   0.00000  Uiso   1.00
C330   C     0.61866   0.40941   0.04084   0.00000  Uiso   1.00
C331   C     0.33378   0.54167   0.42825   0.00000  Uiso   1.00
C332   C     0.65171   0.43446   0.08116   0.00000  Uiso   1.00
C333   C     0.40623   0.47969   0.41612   0.00000  Uiso   1.00
C334   C     0.59073   0.50706   0.08278   0.00000  Uiso   1.00
C335   C     0.42546   0.49217   0.46648   0.00000  Uiso   1.00
C336   C     0.55309   0.47789   0.04674   0.00000  Uiso   1.00
C337   C     0.40136   0.53336   0.49496   0.00000  Uiso   1.00
C338   C     0.56909   0.42934   0.02527   0.00000  Uiso   1.00
C339   C     0.47042   0.46822   0.48884   0.00000  Uiso   1.00
C340   C     0.49950   0.49407   0.03187   0.00000  Uiso   1.00
C341   C     0.47177   0.53222   0.06041   0.00000  Uiso   1.00
C342   C     0.48566   0.41849   0.47161   0.00000  Uiso   1.00
C343   C     0.42266   0.55085   0.04252   0.00000  Uiso   1.00
C344   C     0.53440   0.39950   0.48938   0.00000  Uiso   1.00
H345   H     0.40264   0.58065   0.06525   0.00000  Uiso   1.00
H346   H     0.54500   0.36110   0.47484   0.00000  Uiso   1.00
H347   H     0.33662   0.58735   0.49865   0.00000  Uiso   1.00
H348   H     0.62872   0.37201   0.02346   0.00000  Uiso   1.00
H349   H     0.48693   0.54737   0.09721   0.00000  Uiso   1.00
H350   H     0.45873   0.39231   0.44638   0.00000  Uiso   1.00
C351   C     0.35448   0.65057   0.23762   0.00000  Uiso   1.00
C352   C     0.64210   0.34640   0.24269   0.00000  Uiso   1.00
N353   N     0.48029   0.48550   0.23739   0.00000  Uiso   1.00
N354   N     0.51971   0.51450   0.26260   0.00000  Uiso   1.00
N355   N     0.58936   0.56277   0.09388   0.00000  Uiso   1.00
O356   O     0.57480   0.59103   0.05965   0.00000  Uiso   1.00
O357   O     0.61222   0.58673   0.13468   0.00000  Uiso   1.00
N358   N     0.43143   0.44118   0.38368   0.00000  Uiso   1.00
O359   O     0.48409   0.44783   0.37181   0.00000  Uiso   1.00
O360   O     0.39988   0.40217   0.36164   0.00000  Uiso   1.00
O361   O     0.36400   0.41193   0.10170   0.00000  Uiso   1.00
C362   C     0.39087   0.37804   0.06709   0.00000  Uiso   1.00
H363   H     0.39585   0.39392   0.03105   0.00000  Uiso   1.00
H364   H     0.36745   0.33935   0.06233   0.00000  Uiso   1.00
H365   H     0.43398   0.37219   0.08129   0.00000  Uiso   1.00
O366   O     0.61915   0.56334   0.41228   0.00000  Uiso   1.00
C367   C     0.57278   0.54447   0.43857   0.00000  Uiso   1.00
H368   H     0.53561   0.56707   0.43254   0.00000  Uiso   1.00
H369   H     0.58090   0.54852   0.47883   0.00000  Uiso   1.00
H370   H     0.56165   0.50303   0.42594   0.00000  Uiso   1.00
O371   O     0.40940   0.33766   0.23159   0.00000  Uiso   1.00
C372   C     0.42628   0.65362   0.18362   0.00000  Uiso   1.00
H373   H     0.39609   0.66409   0.15490   0.00000  Uiso   1.00
H374   H     0.43095   0.61136   0.17841   0.00000  Uiso   1.00
H375   H     0.46876   0.33876   0.17784   0.00000  Uiso   1.00
O376   O     0.58687   0.65714   0.23348   0.00000  Uiso   1.00
C377   C     0.55001   0.33951   0.27133   0.00000  Uiso   1.00
H378   H     0.52894   0.37453   0.26341   0.00000  Uiso   1.00
H379   H     0.57121   0.34469   0.30876   0.00000  Uiso   1.00
H380   H     0.51454   0.64322   0.27102   0.00000  Uiso   1.00
O381   O     0.50206   0.44693   0.20914   0.00000  Uiso   1.00
C382   C     0.47257   0.44210   0.16381   0.00000  Uiso   1.00
H383   H     0.46862   0.48012   0.14941   0.00000  Uiso   1.00
H384   H     0.43068   0.42235   0.16804   0.00000  Uiso   1.00
H385   H     0.49676   0.41828   0.13684   0.00000  Uiso   1.00
O386   O     0.49844   0.55552   0.28758   0.00000  Uiso   1.00
C387   C     0.53031   0.56665   0.33155   0.00000  Uiso   1.00
H388   H     0.57263   0.58508   0.32537   0.00000  Uiso   1.00
H389   H     0.53391   0.53088   0.34955   0.00000  Uiso   1.00
H390   H     0.50779   0.59439   0.35630   0.00000  Uiso   1.00
O391   O     0.96386   0.57964   0.25309   0.00000  Uiso   1.00
O392   O     0.70281   0.42036   0.24690   0.00000  Uiso   1.00
O393   O     0.72488   0.57035   0.24501   0.00000  Uiso   1.00
O394   O     0.94178   0.42965   0.25498   0.00000  Uiso   1.00
C395   C     0.68085   0.59742   0.24539   0.00000  Uiso   1.00
C396   C     0.98474   0.40161   0.24879   0.00000  Uiso   1.00
O397   O     0.96995   0.50730   0.32247   0.00000  Uiso   1.00
O398   O     0.69672   0.49270   0.17753   0.00000  Uiso   1.00
O399   O     0.73098   0.49801   0.31439   0.00000  Uiso   1.00
O400   O     0.93569   0.50199   0.18561   0.00000  Uiso   1.00
C401   C     0.68710   0.50381   0.34189   0.00000  Uiso   1.00
C402   C     0.97914   0.49419   0.15834   0.00000  Uiso   1.00
Zn403  Zn    0.93700   0.50621   0.25539   0.00000  Uiso   1.00
Zn404  Zn    0.72967   0.49379   0.24460   0.00000  Uiso   1.00
C405   C     0.69626   0.50724   0.39635   0.00000  Uiso   1.00
C406   C     0.96721   0.48127   0.10493   0.00000  Uiso   1.00
C407   C     0.68900   0.55675   0.47612   0.00000  Uiso   1.00
C408   C     0.95200   0.40941   0.04084   0.00000  Uiso   1.00
C409   C     0.66711   0.54167   0.42825   0.00000  Uiso   1.00
C410   C     0.98504   0.43446   0.08116   0.00000  Uiso   1.00
C411   C     0.73957   0.47969   0.41612   0.00000  Uiso   1.00
C412   C     0.92407   0.50706   0.08278   0.00000  Uiso   1.00
C413   C     0.75879   0.49217   0.46648   0.00000  Uiso   1.00
C414   C     0.88642   0.47789   0.04674   0.00000  Uiso   1.00
C415   C     0.73470   0.53336   0.49496   0.00000  Uiso   1.00
C416   C     0.90242   0.42934   0.02527   0.00000  Uiso   1.00
C417   C     0.80376   0.46822   0.48884   0.00000  Uiso   1.00
C418   C     0.83284   0.49407   0.03187   0.00000  Uiso   1.00
C419   C     0.80511   0.53222   0.06041   0.00000  Uiso   1.00
C420   C     0.81899   0.41849   0.47161   0.00000  Uiso   1.00
C421   C     0.75600   0.55085   0.04252   0.00000  Uiso   1.00
C422   C     0.86773   0.39950   0.48938   0.00000  Uiso   1.00
H423   H     0.73597   0.58065   0.06525   0.00000  Uiso   1.00
H424   H     0.87833   0.36110   0.47484   0.00000  Uiso   1.00
H425   H     0.66995   0.58735   0.49865   0.00000  Uiso   1.00
H426   H     0.96206   0.37201   0.02346   0.00000  Uiso   1.00
H427   H     0.82026   0.54737   0.09721   0.00000  Uiso   1.00
H428   H     0.79206   0.39231   0.44638   0.00000  Uiso   1.00
C429   C     0.68781   0.65057   0.23762   0.00000  Uiso   1.00
C430   C     0.97543   0.34640   0.24269   0.00000  Uiso   1.00
N431   N     0.81362   0.48550   0.23739   0.00000  Uiso   1.00
N432   N     0.85305   0.51450   0.26260   0.00000  Uiso   1.00
N433   N     0.92269   0.56277   0.09388   0.00000  Uiso   1.00
O434   O     0.90814   0.59103   0.05965   0.00000  Uiso   1.00
O435   O     0.94555   0.58673   0.13468   0.00000  Uiso   1.00
N436   N     0.76477   0.44118   0.38368   0.00000  Uiso   1.00
O437   O     0.81743   0.44783   0.37181   0.00000  Uiso   1.00
O438   O     0.73321   0.40217   0.36164   0.00000  Uiso   1.00
O439   O     0.69733   0.41193   0.10170   0.00000  Uiso   1.00
C440   C     0.72420   0.37804   0.06709   0.00000  Uiso   1.00
H441   H     0.72918   0.39392   0.03105   0.00000  Uiso   1.00
H442   H     0.70079   0.33935   0.06233   0.00000  Uiso   1.00
H443   H     0.76732   0.37219   0.08129   0.00000  Uiso   1.00
O444   O     0.95248   0.56334   0.41228   0.00000  Uiso   1.00
C445   C     0.90611   0.54447   0.43857   0.00000  Uiso   1.00
H446   H     0.86895   0.56707   0.43254   0.00000  Uiso   1.00
H447   H     0.91423   0.54852   0.47883   0.00000  Uiso   1.00
H448   H     0.89498   0.50303   0.42594   0.00000  Uiso   1.00
O449   O     0.74273   0.33766   0.23159   0.00000  Uiso   1.00
C450   C     0.75961   0.65362   0.18362   0.00000  Uiso   1.00
H451   H     0.72943   0.66409   0.15490   0.00000  Uiso   1.00
H452   H     0.76428   0.61136   0.17841   0.00000  Uiso   1.00
H453   H     0.80209   0.33876   0.17784   0.00000  Uiso   1.00
O454   O     0.92020   0.65714   0.23348   0.00000  Uiso   1.00
C455   C     0.88334   0.33951   0.27133   0.00000  Uiso   1.00
H456   H     0.86227   0.37453   0.26341   0.00000  Uiso   1.00
H457   H     0.90454   0.34469   0.30876   0.00000  Uiso   1.00
H458   H     0.84788   0.64322   0.27102   0.00000  Uiso   1.00
O459   O     0.83539   0.44693   0.20914   0.00000  Uiso   1.00
C460   C     0.80591   0.44210   0.16381   0.00000  Uiso   1.00
H461   H     0.80195   0.48012   0.14941   0.00000  Uiso   1.00
H462   H     0.76401   0.42235   0.16804   0.00000  Uiso   1.00
H463   H     0.83009   0.41828   0.13684   0.00000  Uiso   1.00
O464   O     0.83177   0.55552   0.28758   0.00000  Uiso   1.00
C465   C     0.86364   0.56665   0.33155   0.00000  Uiso   1.00
H466   H     0.90596   0.58508   0.32537   0.00000  Uiso   1.00
H467   H     0.86724   0.53088   0.34955   0.00000  Uiso   1.00
H468   H     0.84112   0.59439   0.35630   0.00000  Uiso   1.00
O469   O     0.29719   0.91298   0.25309   0.00000  Uiso   1.00
O470   O     0.03614   0.75369   0.24690   0.00000  Uiso   1.00
O471   O     0.05822   0.90368   0.24501   0.00000  Uiso   1.00
O472   O     0.27512   0.76298   0.25498   0.00000  Uiso   1.00
C473   C     0.01418   0.93075   0.24539   0.00000  Uiso   1.00
C474   C     0.31808   0.73494   0.24879   0.00000  Uiso   1.00
O475   O     0.30328   0.84063   0.32247   0.00000  Uiso   1.00
O476   O     0.03005   0.82603   0.17753   0.00000  Uiso   1.00
O477   O     0.06431   0.83134   0.31439   0.00000  Uiso   1.00
O478   O     0.26902   0.83533   0.18561   0.00000  Uiso   1.00
C479   C     0.02043   0.83715   0.34189   0.00000  Uiso   1.00
C480   C     0.31247   0.82752   0.15834   0.00000  Uiso   1.00
Zn481  Zn    0.27033   0.83954   0.25539   0.00000  Uiso   1.00
Zn482  Zn    0.06300   0.82713   0.24460   0.00000  Uiso   1.00
C483   C     0.02959   0.84058   0.39635   0.00000  Uiso   1.00
C484   C     0.30055   0.81461   0.10493   0.00000  Uiso   1.00
C485   C     0.02234   0.89009   0.47612   0.00000  Uiso   1.00
C486   C     0.28533   0.74275   0.04084   0.00000  Uiso   1.00
C487   C     0.00045   0.87501   0.42825   0.00000  Uiso   1.00
C488   C     0.31837   0.76779   0.08116   0.00000  Uiso   1.00
C489   C     0.07290   0.81303   0.41612   0.00000  Uiso   1.00
C490   C     0.25740   0.84039   0.08278   0.00000  Uiso   1.00
C491   C     0.09212   0.82550   0.46648   0.00000  Uiso   1.00
C492   C     0.21976   0.81123   0.04674   0.00000  Uiso   1.00
C493   C     0.06803   0.86669   0.49496   0.00000  Uiso   1.00
C494   C     0.23576   0.76267   0.02527   0.00000  Uiso   1.00
C495   C     0.13709   0.80155   0.48884   0.00000  Uiso   1.00
C496   C     0.16617   0.82740   0.03187   0.00000  Uiso   1.00
C497   C     0.13844   0.86556   0.06041   0.00000  Uiso   1.00
C498   C     0.15233   0.75183   0.47161   0.00000  Uiso   1.00
C499   C     0.08933   0.88418   0.04252   0.00000  Uiso   1.00
C500   C     0.20107   0.73283   0.48938   0.00000  Uiso   1.00
H501   H     0.06930   0.91399   0.06525   0.00000  Uiso   1.00
H502   H     0.21166   0.69444   0.47484   0.00000  Uiso   1.00
H503   H     0.00329   0.92068   0.49865   0.00000  Uiso   1.00
H504   H     0.29539   0.70535   0.02346   0.00000  Uiso   1.00
H505   H     0.15360   0.88070   0.09721   0.00000  Uiso   1.00
H506   H     0.12539   0.72564   0.44638   0.00000  Uiso   1.00
C507   C     0.02115   0.98390   0.23762   0.00000  Uiso   1.00
C508   C     0.30876   0.67973   0.24269   0.00000  Uiso   1.00
N509   N     0.14695   0.81883   0.23739   0.00000  Uiso   1.00
N510   N     0.18638   0.84784   0.26260   0.00000  Uiso   1.00
N511   N     0.25603   0.89610   0.09388   0.00000  Uiso   1.00
O512   O     0.24147   0.92437   0.05965   0.00000  Uiso   1.00
O513   O     0.27888   0.92006   0.13468   0.00000  Uiso   1.00
N514   N     0.09810   0.77451   0.38368   0.00000  Uiso   1.00
O515   O     0.15076   0.78116   0.37181   0.00000  Uiso   1.00
O516   O     0.06654   0.73551   0.36164   0.00000  Uiso   1.00
O517   O     0.03067   0.74527   0.10170   0.00000  Uiso   1.00
C518   C     0.05753   0.71137   0.06709   0.00000  Uiso   1.00
H519   H     0.06252   0.72726   0.03105   0.00000  Uiso   1.00
H520   H     0.03412   0.67268   0.06233   0.00000  Uiso   1.00
H521   H     0.10065   0.70552   0.08129   0.00000  Uiso   1.00
O522   O     0.28581   0.89668   0.41228   0.00000  Uiso   1.00
C523   C     0.23944   0.87781   0.43857   0.00000  Uiso   1.00
H524   H     0.20228   0.90040   0.43254   0.00000  Uiso   1.00
H525   H     0.24756   0.88185   0.47883   0.00000  Uiso   1.00
H526   H     0.22831   0.83636   0.42594   0.00000  Uiso   1.00
O527   O     0.07606   0.67099   0.23159   0.00000  Uiso   1.00
C528   C     0.09295   0.98695   0.18362   0.00000  Uiso   1.00
H529   H     0.06276   0.99742   0.15490   0.00000  Uiso   1.00
H530   H     0.09762   0.94469   0.17841   0.00000  Uiso   1.00
H531   H     0.13543   0.67209   0.17784   0.00000  Uiso   1.00
O532   O     0.25354   0.99047   0.23348   0.00000  Uiso   1.00
C533   C     0.21667   0.67285   0.27133   0.00000  Uiso   1.00
H534   H     0.19560   0.70787   0.26341   0.00000  Uiso   1.00
H535   H     0.23787   0.67803   0.30876   0.00000  Uiso   1.00
H536   H     0.18121   0.97656   0.27102   0.00000  Uiso   1.00
O537   O     0.16872   0.78026   0.20914   0.00000  Uiso   1.00
C538   C     0.13924   0.77543   0.16381   0.00000  Uiso   1.00
H539   H     0.13529   0.81345   0.14941   0.00000  Uiso   1.00
H540   H     0.09735   0.75568   0.16804   0.00000  Uiso   1.00
H541   H     0.16342   0.75161   0.13684   0.00000  Uiso   1.00
O542   O     0.16510   0.88886   0.28758   0.00000  Uiso   1.00
C543   C     0.19697   0.89999   0.33155   0.00000  Uiso   1.00
H544   H     0.23929   0.91841   0.32537   0.00000  Uiso   1.00
H545   H     0.20058   0.86421   0.34955   0.00000  Uiso   1.00
H546   H     0.17445   0.92772   0.35630   0.00000  Uiso   1.00
O547   O     0.63052   0.91298   0.25309   0.00000  Uiso   1.00
O548   O     0.36948   0.75369   0.24690   0.00000  Uiso   1.00
O549   O     0.39155   0.90368   0.24501   0.00000  Uiso   1.00
O550   O     0.60845   0.76298   0.25498   0.00000  Uiso   1.00
C551   C     0.34751   0.93075   0.24539   0.00000  Uiso   1.00
C552   C     0.65141   0.73494   0.24879   0.00000  Uiso   1.00
O553   O     0.63662   0.84063   0.32247   0.00000  Uiso   1.00
O554   O     0.36338   0.82603   0.17753   0.00000  Uiso   1.00
O555   O     0.39764   0.83134   0.31439   0.00000  Uiso   1.00
O556   O     0.60236   0.83533   0.18561   0.00000  Uiso   1.00
C557   C     0.35377   0.83715   0.34189   0.00000  Uiso   1.00
C558   C     0.64581   0.82752   0.15834   0.00000  Uiso   1.00
Zn559  Zn    0.60366   0.83954   0.25539   0.00000  Uiso   1.00
Zn560  Zn    0.39634   0.82713   0.24460   0.00000  Uiso   1.00
C561   C     0.36293   0.84058   0.39635   0.00000  Uiso   1.00
C562   C     0.63388   0.81461   0.10493   0.00000  Uiso   1.00
C563   C     0.35567   0.89009   0.47612   0.00000  Uiso   1.00
C564   C     0.61866   0.74275   0.04084   0.00000  Uiso   1.00
C565   C     0.33378   0.87501   0.42825   0.00000  Uiso   1.00
C566   C     0.65171   0.76779   0.08116   0.00000  Uiso   1.00
C567   C     0.40623   0.81303   0.41612   0.00000  Uiso   1.00
C568   C     0.59073   0.84039   0.08278   0.00000  Uiso   1.00
C569   C     0.42546   0.82550   0.46648   0.00000  Uiso   1.00
C570   C     0.55309   0.81123   0.04674   0.00000  Uiso   1.00
C571   C     0.40136   0.86669   0.49496   0.00000  Uiso   1.00
C572   C     0.56909   0.76267   0.02527   0.00000  Uiso   1.00
C573   C     0.47042   0.80155   0.48884   0.00000  Uiso   1.00
C574   C     0.49950   0.82740   0.03187   0.00000  Uiso   1.00
C575   C     0.47177   0.86556   0.06041   0.00000  Uiso   1.00
C576   C     0.48566   0.75183   0.47161   0.00000  Uiso   1.00
C577   C     0.42266   0.88418   0.04252   0.00000  Uiso   1.00
C578   C     0.53440   0.73283   0.48938   0.00000  Uiso   1.00
H579   H     0.40264   0.91399   0.06525   0.00000  Uiso   1.00
H580   H     0.54500   0.69444   0.47484   0.00000  Uiso   1.00
H581   H     0.33662   0.92068   0.49865   0.00000  Uiso   1.00
H582   H     0.62872   0.70535   0.02346   0.00000  Uiso   1.00
H583   H     0.48693   0.88070   0.09721   0.00000  Uiso   1.00
H584   H     0.45873   0.72564   0.44638   0.00000  Uiso   1.00
C585   C     0.35448   0.98390   0.23762   0.00000  Uiso   1.00
C586   C     0.64210   0.67973   0.24269   0.00000  Uiso   1.00
N587   N     0.48029   0.81883   0.23739   0.00000  Uiso   1.00
N588   N     0.51971   0.84784   0.26260   0.00000  Uiso   1.00
N589   N     0.58936   0.89610   0.09388   0.00000  Uiso   1.00
O590   O     0.57480   0.92437   0.05965   0.00000  Uiso   1.00
O591   O     0.61222   0.92006   0.13468   0.00000  Uiso   1.00
N592   N     0.43143   0.77451   0.38368   0.00000  Uiso   1.00
O593   O     0.48409   0.78116   0.37181   0.00000  Uiso   1.00
O594   O     0.39988   0.73551   0.36164   0.00000  Uiso   1.00
O595   O     0.36400   0.74527   0.10170   0.00000  Uiso   1.00
C596   C     0.39087   0.71137   0.06709   0.00000  Uiso   1.00
H597   H     0.39585   0.72726   0.03105   0.00000  Uiso   1.00
H598   H     0.36745   0.67268   0.06233   0.00000  Uiso   1.00
H599   H     0.43398   0.70552   0.08129   0.00000  Uiso   1.00
O600   O     0.61915   0.89668   0.41228   0.00000  Uiso   1.00
C601   C     0.57278   0.87781   0.43857   0.00000  Uiso   1.00
H602   H     0.53561   0.90040   0.43254   0.00000  Uiso   1.00
H603   H     0.58090   0.88185   0.47883   0.00000  Uiso   1.00
H604   H     0.56165   0.83636   0.42594   0.00000  Uiso   1.00
O605   O     0.40940   0.67099   0.23159   0.00000  Uiso   1.00
C606   C     0.42628   0.98695   0.18362   0.00000  Uiso   1.00
H607   H     0.39609   0.99742   0.15490   0.00000  Uiso   1.00
H608   H     0.43095   0.94469   0.17841   0.00000  Uiso   1.00
H609   H     0.46876   0.67209   0.17784   0.00000  Uiso   1.00
O610   O     0.58687   0.99047   0.23348   0.00000  Uiso   1.00
C611   C     0.55001   0.67285   0.27133   0.00000  Uiso   1.00
H612   H     0.52894   0.70787   0.26341   0.00000  Uiso   1.00
H613   H     0.57121   0.67803   0.30876   0.00000  Uiso   1.00
H614   H     0.51454   0.97656   0.27102   0.00000  Uiso   1.00
O615   O     0.50206   0.78026   0.20914   0.00000  Uiso   1.00
C616   C     0.47257   0.77543   0.16381   0.00000  Uiso   1.00
H617   H     0.46862   0.81345   0.14941   0.00000  Uiso   1.00
H618   H     0.43068   0.75568   0.16804   0.00000  Uiso   1.00
H619   H     0.49676   0.75161   0.13684   0.00000  Uiso   1.00
O620   O     0.49844   0.88886   0.28758   0.00000  Uiso   1.00
C621   C     0.53031   0.89999   0.33155   0.00000  Uiso   1.00
H622   H     0.57263   0.91841   0.32537   0.00000  Uiso   1.00
H623   H     0.53391   0.86421   0.34955   0.00000  Uiso   1.00
H624   H     0.50779   0.92772   0.35630   0.00000  Uiso   1.00
O625   O     0.96386   0.91298   0.25309   0.00000  Uiso   1.00
O626   O     0.70281   0.75369   0.24690   0.00000  Uiso   1.00
O627   O     0.72488   0.90368   0.24501   0.00000  Uiso   1.00
O628   O     0.94178   0.76298   0.25498   0.00000  Uiso   1.00
C629   C     0.68085   0.93075   0.24539   0.00000  Uiso   1.00
C630   C     0.98474   0.73494   0.24879   0.00000  Uiso   1.00
O631   O     0.96995   0.84063   0.32247   0.00000  Uiso   1.00
O632   O     0.69672   0.82603   0.17753   0.00000  Uiso   1.00
O633   O     0.73098   0.83134   0.31439   0.00000  Uiso   1.00
O634   O     0.93569   0.83533   0.18561   0.00000  Uiso   1.00
C635   C     0.68710   0.83715   0.34189   0.00000  Uiso   1.00
C636   C     0.97914   0.82752   0.15834   0.00000  Uiso   1.00
Zn637  Zn    0.93700   0.83954   0.25539   0.00000  Uiso   1.00
Zn638  Zn    0.72967   0.82713   0.24460   0.00000  Uiso   1.00
C639   C     0.69626   0.84058   0.39635   0.00000  Uiso   1.00
C640   C     0.96721   0.81461   0.10493   0.00000  Uiso   1.00
C641   C     0.68900   0.89009   0.47612   0.00000  Uiso   1.00
C642   C     0.95200   0.74275   0.04084   0.00000  Uiso   1.00
C643   C     0.66711   0.87501   0.42825   0.00000  Uiso   1.00
C644   C     0.98504   0.76779   0.08116   0.00000  Uiso   1.00
C645   C     0.73957   0.81303   0.41612   0.00000  Uiso   1.00
C646   C     0.92407   0.84039   0.08278   0.00000  Uiso   1.00
C647   C     0.75879   0.82550   0.46648   0.00000  Uiso   1.00
C648   C     0.88642   0.81123   0.04674   0.00000  Uiso   1.00
C649   C     0.73470   0.86669   0.49496   0.00000  Uiso   1.00
C650   C     0.90242   0.76267   0.02527   0.00000  Uiso   1.00
C651   C     0.80376   0.80155   0.48884   0.00000  Uiso   1.00
C652   C     0.83284   0.82740   0.03187   0.00000  Uiso   1.00
C653   C     0.80511   0.86556   0.06041   0.00000  Uiso   1.00
C654   C     0.81899   0.75183   0.47161   0.00000  Uiso   1.00
C655   C     0.75600   0.88418   0.04252   0.00000  Uiso   1.00
C656   C     0.86773   0.73283   0.48938   0.00000  Uiso   1.00
H657   H     0.73597   0.91399   0.06525   0.00000  Uiso   1.00
H658   H     0.87833   0.69444   0.47484   0.00000  Uiso   1.00
H659   H     0.66995   0.92068   0.49865   0.00000  Uiso   1.00
H660   H     0.96206   0.70535   0.02346   0.00000  Uiso   1.00
H661   H     0.82026   0.88070   0.09721   0.00000  Uiso   1.00
H662   H     0.79206   0.72564   0.44638   0.00000  Uiso   1.00
C663   C     0.68781   0.98390   0.23762   0.00000  Uiso   1.00
C664   C     0.97543   0.67973   0.24269   0.00000  Uiso   1.00
N665   N     0.81362   0.81883   0.23739   0.00000  Uiso   1.00
N666   N     0.85305   0.84784   0.26260   0.00000  Uiso   1.00
N667   N     0.92269   0.89610   0.09388   0.00000  Uiso   1.00
O668   O     0.90814   0.92437   0.05965   0.00000  Uiso   1.00
O669   O     0.94555   0.92006   0.13468   0.00000  Uiso   1.00
N670   N     0.76477   0.77451   0.38368   0.00000  Uiso   1.00
O671   O     0.81743   0.78116   0.37181   0.00000  Uiso   1.00
O672   O     0.73321   0.73551   0.36164   0.00000  Uiso   1.00
O673   O     0.69733   0.74527   0.10170   0.00000  Uiso   1.00
C674   C     0.72420   0.71137   0.06709   0.00000  Uiso   1.00
H675   H     0.72918   0.72726   0.03105   0.00000  Uiso   1.00
H676   H     0.70079   0.67268   0.06233   0.00000  Uiso   1.00
H677   H     0.76732   0.70552   0.08129   0.00000  Uiso   1.00
O678   O     0.95248   0.89668   0.41228   0.00000  Uiso   1.00
C679   C     0.90611   0.87781   0.43857   0.00000  Uiso   1.00
H680   H     0.86895   0.90040   0.43254   0.00000  Uiso   1.00
H681   H     0.91423   0.88185   0.47883   0.00000  Uiso   1.00
H682   H     0.89498   0.83636   0.42594   0.00000  Uiso   1.00
O683   O     0.74273   0.67099   0.23159   0.00000  Uiso   1.00
C684   C     0.75961   0.98695   0.18362   0.00000  Uiso   1.00
H685   H     0.72943   0.99742   0.15490   0.00000  Uiso   1.00
H686   H     0.76428   0.94469   0.17841   0.00000  Uiso   1.00
H687   H     0.80209   0.67209   0.17784   0.00000  Uiso   1.00
O688   O     0.92020   0.99047   0.23348   0.00000  Uiso   1.00
C689   C     0.88334   0.67285   0.27133   0.00000  Uiso   1.00
H690   H     0.86227   0.70787   0.26341   0.00000  Uiso   1.00
H691   H     0.90454   0.67803   0.30876   0.00000  Uiso   1.00
H692   H     0.84788   0.97656   0.27102   0.00000  Uiso   1.00
O693   O     0.83539   0.78026   0.20914   0.00000  Uiso   1.00
C694   C     0.80591   0.77543   0.16381   0.00000  Uiso   1.00
H695   H     0.80195   0.81345   0.14941   0.00000  Uiso   1.00
H696   H     0.76401   0.75568   0.16804   0.00000  Uiso   1.00
H697   H     0.83009   0.75161   0.13684   0.00000  Uiso   1.00
O698   O     0.83177   0.88886   0.28758   0.00000  Uiso   1.00
C699   C     0.86364   0.89999   0.33155   0.00000  Uiso   1.00
H700   H     0.90596   0.91841   0.32537   0.00000  Uiso   1.00
H701   H     0.86724   0.86421   0.34955   0.00000  Uiso   1.00
H702   H     0.84112   0.92772   0.35630   0.00000  Uiso   1.00
O703   O     0.29719   0.24631   0.75309   0.00000  Uiso   1.00
O704   O     0.03614   0.08702   0.74690   0.00000  Uiso   1.00
O705   O     0.05822   0.23702   0.74501   0.00000  Uiso   1.00
O706   O     0.27512   0.09632   0.75498   0.00000  Uiso   1.00
C707   C     0.01418   0.26409   0.74539   0.00000  Uiso   1.00
C708   C     0.31808   0.06827   0.74879   0.00000  Uiso   1.00
O709   O     0.30328   0.17397   0.82247   0.00000  Uiso   1.00
O710   O     0.03005   0.15937   0.67753   0.00000  Uiso   1.00
O711   O     0.06431   0.16467   0.81439   0.00000  Uiso   1.00
O712   O     0.26902   0.16866   0.68561   0.00000  Uiso   1.00
C713   C     0.02043   0.17048   0.84189   0.00000  Uiso   1.00
C714   C     0.31247   0.16085   0.65834   0.00000  Uiso   1.00
Zn715  Zn    0.27033   0.17287   0.75539   0.00000  Uiso   1.00
Zn716  Zn    0.06300   0.16046   0.74460   0.00000  Uiso   1.00
C717   C     0.02959   0.17391   0.89635   0.00000  Uiso   1.00
C718   C     0.30055   0.14794   0.60493   0.00000  Uiso   1.00
C719   C     0.02234   0.22342   0.97612   0.00000  Uiso   1.00
C720   C     0.28533   0.07608   0.54084   0.00000  Uiso   1.00
C721   C     0.00045   0.20834   0.92825   0.00000  Uiso   1.00
C722   C     0.31837   0.10112   0.58116   0.00000  Uiso   1.00
C723   C     0.07290   0.14636   0.91612   0.00000  Uiso   1.00
C724   C     0.25740   0.17372   0.58278   0.00000  Uiso   1.00
C725   C     0.09212   0.15884   0.96648   0.00000  Uiso   1.00
C726   C     0.21976   0.14456   0.54674   0.00000  Uiso   1.00
C727   C     0.06803   0.20002   0.99496   0.00000  Uiso   1.00
C728   C     0.23576   0.09600   0.52527   0.00000  Uiso   1.00
C729   C     0.13709   0.13488   0.98884   0.00000  Uiso   1.00
C730   C     0.16617   0.16074   0.53187   0.00000  Uiso   1.00
C731   C     0.13844   0.19889   0.56041   0.00000  Uiso   1.00
C732   C     0.15233   0.08516   0.97161   0.00000  Uiso   1.00
C733   C     0.08933   0.21752   0.54252   0.00000  Uiso   1.00
C734   C     0.20107   0.06617   0.98938   0.00000  Uiso   1.00
H735   H     0.06930   0.24732   0.56525   0.00000  Uiso   1.00
H736   H     0.21166   0.02777   0.97484   0.00000  Uiso   1.00
H737   H     0.00329   0.25402   0.99865   0.00000  Uiso   1.00
H738   H     0.29539   0.03868   0.52346   0.00000  Uiso   1.00
H739   H     0.15360   0.21403   0.59721   0.00000  Uiso   1.00
H740   H     0.12539   0.05898   0.94638   0.00000  Uiso   1.00
C741   C     0.02115   0.31724   0.73762   0.00000  Uiso   1.00
C742   C     0.30876   0.01306   0.74269   0.00000  Uiso   1.00
N743   N     0.14695   0.15216   0.73739   0.00000  Uiso   1.00
N744   N     0.18638   0.18117   0.76260   0.00000  Uiso   1.00
N745   N     0.25603   0.22943   0.59388   0.00000  Uiso   1.00
O746   O     0.24147   0.25770   0.55965   0.00000  Uiso   1.00
O747   O     0.27888   0.25339   0.63468   0.00000  Uiso   1.00
N748   N     0.09810   0.10784   0.88368   0.00000  Uiso   1.00
O749   O     0.15076   0.11450   0.87181   0.00000  Uiso   1.00
O750   O     0.06654   0.06884   0.86164   0.00000  Uiso   1.00
O751   O     0.03067   0.07860   0.60170   0.00000  Uiso   1.00
C752   C     0.05753   0.04470   0.56709   0.00000  Uiso   1.00
H753   H     0.06252   0.06059   0.53105   0.00000  Uiso   1.00
H754   H     0.03412   0.00601   0.56233   0.00000  Uiso   1.00
H755   H     0.10065   0.03886   0.58129   0.00000  Uiso   1.00
O756   O     0.28581   0.23001   0.91228   0.00000  Uiso   1.00
C757   C     0.23944   0.21114   0.93857   0.00000  Uiso   1.00
H758   H     0.20228   0.23374   0.93254   0.00000  Uiso   1.00
H759   H     0.24756   0.21519   0.97883   0.00000  Uiso   1.00
H760   H     0.22831   0.16969   0.92594   0.00000  Uiso   1.00
O761   O     0.07606   0.00433   0.73159   0.00000  Uiso   1.00
C762   C     0.09295   0.32029   0.68362   0.00000  Uiso   1.00
H763   H     0.06276   0.33076   0.65490   0.00000  Uiso   1.00
H764   H     0.09762   0.27802   0.67841   0.00000  Uiso   1.00
H765   H     0.13543   0.00542   0.67784   0.00000  Uiso   1.00
O766   O     0.25354   0.32380   0.73348   0.00000  Uiso   1.00
C767   C     0.21667   0.00618   0.77133   0.00000  Uiso   1.00
H768   H     0.19560   0.04120   0.76341   0.00000  Uiso   1.00
H769   H     0.23787   0.01136   0.80876   0.00000  Uiso   1.00
H770   H     0.18121   0.30989   0.77102   0.00000  Uiso   1.00
O771   O     0.16872   0.11360   0.70914   0.00000  Uiso   1.00
C772   C     0.13924   0.10876   0.66381   0.00000  Uiso   1.00
H773   H     0.13529   0.14678   0.64941   0.00000  Uiso   1.00
H774   H     0.09735   0.08902   0.66804   0.00000  Uiso   1.00
H775   H     0.16342   0.08494   0.63684   0.00000  Uiso   1.00
O776   O     0.16510   0.22219   0.78758   0.00000  Uiso   1.00
C777   C     0.19697   0.23332   0.83155   0.00000  Uiso   1.00
H778   H     0.23929   0.25174   0.82537   0.00000  Uiso   1.00
H779   H     0.20058   0.19754   0.84955   0.00000  Uiso   1.00
H780   H     0.17445   0.26106   0.85630   0.00000  Uiso   1.00
O781   O     0.63052   0.24631   0.75309   0.00000  Uiso   1.00
O782   O     0.36948   0.08702   0.74690   0.00000  Uiso   1.00
O783   O     0.39155   0.23702   0.74501   0.00000  Uiso   1.00
O784   O     0.60845   0.09632   0.75498   0.00000  Uiso   1.00
C785   C     0.34751   0.26409   0.74539   0.00000  Uiso   1.00
C786   C     0.65141   0.06827   0.74879   0.00000  Uiso   1.00
O787   O     0.63662   0.17397   0.82247   0.00000  Uiso   1.00
O788   O     0.36338   0.15937   0.67753   0.00000  Uiso   1.00
O789   O     0.39764   0.16467   0.81439   0.00000  Uiso   1.00
O790   O     0.60236   0.16866   0.68561   0.00000  Uiso   1.00
C791   C     0.35377   0.17048   0.84189   0.00000  Uiso   1.00
C792   C     0.64581   0.16085   0.65834   0.00000  Uiso   1.00
Zn793  Zn    0.60366   0.17287   0.75539   0.00000  Uiso   1.00
Zn794  Zn    0.39634   0.16046   0.74460   0.00000  Uiso   1.00
C795   C     0.36293   0.17391   0.89635   0.00000  Uiso   1.00
C796   C     0.63388   0.14794   0.60493   0.00000  Uiso   1.00
C797   C     0.35567   0.22342   0.97612   0.00000  Uiso   1.00
C798   C     0.61866   0.07608   0.54084   0.00000  Uiso   1.00
C799   C     0.33378   0.20834   0.92825   0.00000  Uiso   1.00
C800   C     0.65171   0.10112   0.58116   0.00000  Uiso   1.00
C801   C     0.40623   0.14636   0.91612   0.00000  Uiso   1.00
C802   C     0.59073   0.17372   0.58278   0.00000  Uiso   1.00
C803   C     0.42546   0.15884   0.96648   0.00000  Uiso   1.00
C804   C     0.55309   0.14456   0.54674   0.00000  Uiso   1.00
C805   C     0.40136   0.20002   0.99496   0.00000  Uiso   1.00
C806   C     0.56909   0.09600   0.52527   0.00000  Uiso   1.00
C807   C     0.47042   0.13488   0.98884   0.00000  Uiso   1.00
C808   C     0.49950   0.16074   0.53187   0.00000  Uiso   1.00
C809   C     0.47177   0.19889   0.56041   0.00000  Uiso   1.00
C810   C     0.48566   0.08516   0.97161   0.00000  Uiso   1.00
C811   C     0.42266   0.21752   0.54252   0.00000  Uiso   1.00
C812   C     0.53440   0.06617   0.98938   0.00000  Uiso   1.00
H813   H     0.40264   0.24732   0.56525   0.00000  Uiso   1.00
H814   H     0.54500   0.02777   0.97484   0.00000  Uiso   1.00
H815   H     0.33662   0.25402   0.99865   0.00000  Uiso   1.00
H816   H     0.62872   0.03868   0.52346   0.00000  Uiso   1.00
H817   H     0.48693   0.21403   0.59721   0.00000  Uiso   1.00
H818   H     0.45873   0.05898   0.94638   0.00000  Uiso   1.00
C819   C     0.35448   0.31724   0.73762   0.00000  Uiso   1.00
C820   C     0.64210   0.01306   0.74269   0.00000  Uiso   1.00
N821   N     0.48029   0.15216   0.73739   0.00000  Uiso   1.00
N822   N     0.51971   0.18117   0.76260   0.00000  Uiso   1.00
N823   N     0.58936   0.22943   0.59388   0.00000  Uiso   1.00
O824   O     0.57480   0.25770   0.55965   0.00000  Uiso   1.00
O825   O     0.61222   0.25339   0.63468   0.00000  Uiso   1.00
N826   N     0.43143   0.10784   0.88368   0.00000  Uiso   1.00
O827   O     0.48409   0.11450   0.87181   0.00000  Uiso   1.00
O828   O     0.39988   0.06884   0.86164   0.00000  Uiso   1.00
O829   O     0.36400   0.07860   0.60170   0.00000  Uiso   1.00
C830   C     0.39087   0.04470   0.56709   0.00000  Uiso   1.00
H831   H     0.39585   0.06059   0.53105   0.00000  Uiso   1.00
H832   H     0.36745   0.00601   0.56233   0.00000  Uiso   1.00
H833   H     0.43398   0.03886   0.58129   0.00000  Uiso   1.00
O834   O     0.61915   0.23001   0.91228   0.00000  Uiso   1.00
C835   C     0.57278   0.21114   0.93857   0.00000  Uiso   1.00
H836   H     0.53561   0.23374   0.93254   0.00000  Uiso   1.00
H837   H     0.58090   0.21519   0.97883   0.00000  Uiso   1.00
H838   H     0.56165   0.16969   0.92594   0.00000  Uiso   1.00
O839   O     0.40940   0.00433   0.73159   0.00000  Uiso   1.00
C840   C     0.42628   0.32029   0.68362   0.00000  Uiso   1.00
H841   H     0.39609   0.33076   0.65490   0.00000  Uiso   1.00
H842   H     0.43095   0.27802   0.67841   0.00000  Uiso   1.00
H843   H     0.46876   0.00542   0.67784   0.00000  Uiso   1.00
O844   O     0.58687   0.32380   0.73348   0.00000  Uiso   1.00
C845   C     0.55001   0.00618   0.77133   0.00000  Uiso   1.00
H846   H     0.52894   0.04120   0.76341   0.00000  Uiso   1.00
H847   H     0.57121   0.01136   0.80876   0.00000  Uiso   1.00
H848   H     0.51454   0.30989   0.77102   0.00000  Uiso   1.00
O849   O     0.50206   0.11360   0.70914   0.00000  Uiso   1.00
C850   C     0.47257   0.10876   0.66381   0.00000  Uiso   1.00
H851   H     0.46862   0.14678   0.64941   0.00000  Uiso   1.00
H852   H     0.43068   0.08902   0.66804   0.00000  Uiso   1.00
H853   H     0.49676   0.08494   0.63684   0.00000  Uiso   1.00
O854   O     0.49844   0.22219   0.78758   0.00000  Uiso   1.00
C855   C     0.53031   0.23332   0.83155   0.00000  Uiso   1.00
H856   H     0.57263   0.25174   0.82537   0.00000  Uiso   1.00
H857   H     0.53391   0.19754   0.84955   0.00000  Uiso   1.00
H858   H     0.50779   0.26106   0.85630   0.00000  Uiso   1.00
O859   O     0.96386   0.24631   0.75309   0.00000  Uiso   1.00
O860   O     0.70281   0.08702   0.74690   0.00000  Uiso   1.00
O861   O     0.72488   0.23702   0.74501   0.00000  Uiso   1.00
O862   O     0.94178   0.09632   0.75498   0.00000  Uiso   1.00
C863   C     0.68085   0.26409   0.74539   0.00000  Uiso   1.00
C864   C     0.98474   0.06827   0.74879   0.00000  Uiso   1.00
O865   O     0.96995   0.17397   0.82247   0.00000  Uiso   1.00
O866   O     0.69672   0.15937   0.67753   0.00000  Uiso   1.00
O867   O     0.73098   0.16467   0.81439   0.00000  Uiso   1.00
O868   O     0.93569   0.16866   0.68561   0.00000  Uiso   1.00
C869   C     0.68710   0.17048   0.84189   0.00000  Uiso   1.00
C870   C     0.97914   0.16085   0.65834   0.00000  Uiso   1.00
Zn871  Zn    0.93700   0.17287   0.75539   0.00000  Uiso   1.00
Zn872  Zn    0.72967   0.16046   0.74460   0.00000  Uiso   1.00
C873   C     0.69626   0.17391   0.89635   0.00000  Uiso   1.00
C874   C     0.96721   0.14794   0.60493   0.00000  Uiso   1.00
C875   C     0.68900   0.22342   0.97612   0.00000  Uiso   1.00
C876   C     0.95200   0.07608   0.54084   0.00000  Uiso   1.00
C877   C     0.66711   0.20834   0.92825   0.00000  Uiso   1.00
C878   C     0.98504   0.10112   0.58116   0.00000  Uiso   1.00
C879   C     0.73957   0.14636   0.91612   0.00000  Uiso   1.00
C880   C     0.92407   0.17372   0.58278   0.00000  Uiso   1.00
C881   C     0.75879   0.15884   0.96648   0.00000  Uiso   1.00
C882   C     0.88642   0.14456   0.54674   0.00000  Uiso   1.00
C883   C     0.73470   0.20002   0.99496   0.00000  Uiso   1.00
C884   C     0.90242   0.09600   0.52527   0.00000  Uiso   1.00
C885   C     0.80376   0.13488   0.98884   0.00000  Uiso   1.00
C886   C     0.83284   0.16074   0.53187   0.00000  Uiso   1.00
C887   C     0.80511   0.19889   0.56041   0.00000  Uiso   1.00
C888   C     0.81899   0.08516   0.97161   0.00000  Uiso   1.00
C889   C     0.75600   0.21752   0.54252   0.00000  Uiso   1.00
C890   C     0.86773   0.06617   0.98938   0.00000  Uiso   1.00
H891   H     0.73597   0.24732   0.56525   0.00000  Uiso   1.00
H892   H     0.87833   0.02777   0.97484   0.00000  Uiso   1.00
H893   H     0.66995   0.25402   0.99865   0.00000  Uiso   1.00
H894   H     0.96206   0.03868   0.52346   0.00000  Uiso   1.00
H895   H     0.82026   0.21403   0.59721   0.00000  Uiso   1.00
H896   H     0.79206   0.05898   0.94638   0.00000  Uiso   1.00
C897   C     0.68781   0.31724   0.73762   0.00000  Uiso   1.00
C898   C     0.97543   0.01306   0.74269   0.00000  Uiso   1.00
N899   N     0.81362   0.15216   0.73739   0.00000  Uiso   1.00
N900   N     0.85305   0.18117   0.76260   0.00000  Uiso   1.00
N901   N     0.92269   0.22943   0.59388   0.00000  Uiso   1.00
O902   O     0.90814   0.25770   0.55965   0.00000  Uiso   1.00
O903   O     0.94555   0.25339   0.63468   0.00000  Uiso   1.00
N904   N     0.76477   0.10784   0.88368   0.00000  Uiso   1.00
O905   O     0.81743   0.11450   0.87181   0.00000  Uiso   1.00
O906   O     0.73321   0.06884   0.86164   0.00000  Uiso   1.00
O907   O     0.69733   0.07860   0.60170   0.00000  Uiso   1.00
C908   C     0.72420   0.04470   0.56709   0.00000  Uiso   1.00
H909   H     0.72918   0.06059   0.53105   0.00000  Uiso   1.00
H910   H     0.70079   0.00601   0.56233   0.00000  Uiso   1.00
H911   H     0.76732   0.03886   0.58129   0.00000  Uiso   1.00
O912   O     0.95248   0.23001   0.91228   0.00000  Uiso   1.00
C913   C     0.90611   0.21114   0.93857   0.00000  Uiso   1.00
H914   H     0.86895   0.23374   0.93254   0.00000  Uiso   1.00
H915   H     0.91423   0.21519   0.97883   0.00000  Uiso   1.00
H916   H     0.89498   0.16969   0.92594   0.00000  Uiso   1.00
O917   O     0.74273   0.00433   0.73159   0.00000  Uiso   1.00
C918   C     0.75961   0.32029   0.68362   0.00000  Uiso   1.00
H919   H     0.72943   0.33076   0.65490   0.00000  Uiso   1.00
H920   H     0.76428   0.27802   0.67841   0.00000  Uiso   1.00
H921   H     0.80209   0.00542   0.67784   0.00000  Uiso   1.00
O922   O     0.92020   0.32380   0.73348   0.00000  Uiso   1.00
C923   C     0.88334   0.00618   0.77133   0.00000  Uiso   1.00
H924   H     0.86227   0.04120   0.76341   0.00000  Uiso   1.00
H925   H     0.90454   0.01136   0.80876   0.00000  Uiso   1.00
H926   H     0.84788   0.30989   0.77102   0.00000  Uiso   1.00
O927   O     0.83539   0.11360   0.70914   0.00000  Uiso   1.00
C928   C     0.80591   0.10876   0.66381   0.00000  Uiso   1.00
H929   H     0.80195   0.14678   0.64941   0.00000  Uiso   1.00
H930   H     0.76401   0.08902   0.66804   0.00000  Uiso   1.00
H931   H     0.83009   0.08494   0.63684   0.00000  Uiso   1.00
O932   O     0.83177   0.22219   0.78758   0.00000  Uiso   1.00
C933   C     0.86364   0.23332   0.83155   0.00000  Uiso   1.00
H934   H     0.90596   0.25174   0.82537   0.00000  Uiso   1.00
H935   H     0.86724   0.19754   0.84955   0.00000  Uiso   1.00
H936   H     0.84112   0.26106   0.85630   0.00000  Uiso   1.00
O937   O     0.29719   0.57964   0.75309   0.00000  Uiso   1.00
O938   O     0.03614   0.42036   0.74690   0.00000  Uiso   1.00
O939   O     0.05822   0.57035   0.74501   0.00000  Uiso   1.00
O940   O     0.27512   0.42965   0.75498   0.00000  Uiso   1.00
C941   C     0.01418   0.59742   0.74539   0.00000  Uiso   1.00
C942   C     0.31808   0.40161   0.74879   0.00000  Uiso   1.00
O943   O     0.30328   0.50730   0.82247   0.00000  Uiso   1.00
O944   O     0.03005   0.49270   0.67753   0.00000  Uiso   1.00
O945   O     0.06431   0.49801   0.81439   0.00000  Uiso   1.00
O946   O     0.26902   0.50199   0.68561   0.00000  Uiso   1.00
C947   C     0.02043   0.50381   0.84189   0.00000  Uiso   1.00
C948   C     0.31247   0.49419   0.65834   0.00000  Uiso   1.00
Zn949  Zn    0.27033   0.50621   0.75539   0.00000  Uiso   1.00
Zn950  Zn    0.06300   0.49379   0.74460   0.00000  Uiso   1.00
C951   C     0.02959   0.50724   0.89635   0.00000  Uiso   1.00
C952   C     0.30055   0.48127   0.60493   0.00000  Uiso   1.00
C953   C     0.02234   0.55675   0.97612   0.00000  Uiso   1.00
C954   C     0.28533   0.40941   0.54084   0.00000  Uiso   1.00
C955   C     0.00045   0.54167   0.92825   0.00000  Uiso   1.00
C956   C     0.31837   0.43446   0.58116   0.00000  Uiso   1.00
C957   C     0.07290   0.47969   0.91612   0.00000  Uiso   1.00
C958   C     0.25740   0.50706   0.58278   0.00000  Uiso   1.00
C959   C     0.09212   0.49217   0.96648   0.00000  Uiso   1.00
C960   C     0.21976   0.47789   0.54674   0.00000  Uiso   1.00
C961   C     0.06803   0.53336   0.99496   0.00000  Uiso   1.00
C962   C     0.23576   0.42934   0.52527   0.00000  Uiso   1.00
C963   C     0.13709   0.46822   0.98884   0.00000  Uiso   1.00
C964   C     0.16617   0.49407   0.53187   0.00000  Uiso   1.00
C965   C     0.13844   0.53222   0.56041   0.00000  Uiso   1.00
C966   C     0.15233   0.41849   0.97161   0.00000  Uiso   1.00
C967   C     0.08933   0.55085   0.54252   0.00000  Uiso   1.00
C968   C     0.20107   0.39950   0.98938   0.00000  Uiso   1.00
H969   H     0.06930   0.58065   0.56525   0.00000  Uiso   1.00
H970   H     0.21166   0.36110   0.97484   0.00000  Uiso   1.00
H971   H     0.00329   0.58735   0.99865   0.00000  Uiso   1.00
H972   H     0.29539   0.37201   0.52346   0.00000  Uiso   1.00
H973   H     0.15360   0.54737   0.59721   0.00000  Uiso   1.00
H974   H     0.12539   0.39231   0.94638   0.00000  Uiso   1.00
C975   C     0.02115   0.65057   0.73762   0.00000  Uiso   1.00
C976   C     0.30876   0.34640   0.74269   0.00000  Uiso   1.00
N977   N     0.14695   0.48550   0.73739   0.00000  Uiso   1.00
N978   N     0.18638   0.51450   0.76260   0.00000  Uiso   1.00
N979   N     0.25603   0.56277   0.59388   0.00000  Uiso   1.00
O980   O     0.24147   0.59103   0.55965   0.00000  Uiso   1.00
O981   O     0.27888   0.58673   0.63468   0.00000  Uiso   1.00
N982   N     0.09810   0.44118   0.88368   0.00000  Uiso   1.00
O983   O     0.15076   0.44783   0.87181   0.00000  Uiso   1.00
O984   O     0.06654   0.40217   0.86164   0.00000  Uiso   1.00
O985   O     0.03067   0.41193   0.60170   0.00000  Uiso   1.00
C986   C     0.05753   0.37804   0.56709   0.00000  Uiso   1.00
H987   H     0.06252   0.39392   0.53105   0.00000  Uiso   1.00
H988   H     0.03412   0.33935   0.56233   0.00000  Uiso   1.00
H989   H     0.10065   0.37219   0.58129   0.00000  Uiso   1.00
O990   O     0.28581   0.56334   0.91228   0.00000  Uiso   1.00
C991   C     0.23944   0.54447   0.93857   0.00000  Uiso   1.00
H992   H     0.20228   0.56707   0.93254   0.00000  Uiso   1.00
H993   H     0.24756   0.54852   0.97883   0.00000  Uiso   1.00
H994   H     0.22831   0.50303   0.92594   0.00000  Uiso   1.00
O995   O     0.07606   0.33766   0.73159   0.00000  Uiso   1.00
C996   C     0.09295   0.65362   0.68362   0.00000  Uiso   1.00
H997   H     0.06276   0.66409   0.65490   0.00000  Uiso   1.00
H998   H     0.09762   0.61136   0.67841   0.00000  Uiso   1.00
H999   H     0.13543   0.33876   0.67784   0.00000  Uiso   1.00
O1000  O     0.25354   0.65714   0.73348   0.00000  Uiso   1.00
C1001  C     0.21667   0.33951   0.77133   0.00000  Uiso   1.00
H1002  H     0.19560   0.37453   0.76341   0.00000  Uiso   1.00
H1003  H     0.23787   0.34469   0.80876   0.00000  Uiso   1.00
H1004  H     0.18121   0.64322   0.77102   0.00000  Uiso   1.00
O1005  O     0.16872   0.44693   0.70914   0.00000  Uiso   1.00
C1006  C     0.13924   0.44210   0.66381   0.00000  Uiso   1.00
H1007  H     0.13529   0.48012   0.64941   0.00000  Uiso   1.00
H1008  H     0.09735   0.42235   0.66804   0.00000  Uiso   1.00
H1009  H     0.16342   0.41828   0.63684   0.00000  Uiso   1.00
O1010  O     0.16510   0.55552   0.78758   0.00000  Uiso   1.00
C1011  C     0.19697   0.56665   0.83155   0.00000  Uiso   1.00
H1012  H     0.23929   0.58508   0.82537   0.00000  Uiso   1.00
H1013  H     0.20058   0.53088   0.84955   0.00000  Uiso   1.00
H1014  H     0.17445   0.59439   0.85630   0.00000  Uiso   1.00
O1015  O     0.63052   0.57964   0.75309   0.00000  Uiso   1.00
O1016  O     0.36948   0.42036   0.74690   0.00000  Uiso   1.00
O1017  O     0.39155   0.57035   0.74501   0.00000  Uiso   1.00
O1018  O     0.60845   0.42965   0.75498   0.00000  Uiso   1.00
C1019  C     0.34751   0.59742   0.74539   0.00000  Uiso   1.00
C1020  C     0.65141   0.40161   0.74879   0.00000  Uiso   1.00
O1021  O     0.63662   0.50730   0.82247   0.00000  Uiso   1.00
O1022  O     0.36338   0.49270   0.67753   0.00000  Uiso   1.00
O1023  O     0.39764   0.49801   0.81439   0.00000  Uiso   1.00
O1024  O     0.60236   0.50199   0.68561   0.00000  Uiso   1.00
C1025  C     0.35377   0.50381   0.84189   0.00000  Uiso   1.00
C1026  C     0.64581   0.49419   0.65834   0.00000  Uiso   1.00
Zn1027 Zn    0.60366   0.50621   0.75539   0.00000  Uiso   1.00
Zn1028 Zn    0.39634   0.49379   0.74460   0.00000  Uiso   1.00
C1029  C     0.36293   0.50724   0.89635   0.00000  Uiso   1.00
C1030  C     0.63388   0.48127   0.60493   0.00000  Uiso   1.00
C1031  C     0.35567   0.55675   0.97612   0.00000  Uiso   1.00
C1032  C     0.61866   0.40941   0.54084   0.00000  Uiso   1.00
C1033  C     0.33378   0.54167   0.92825   0.00000  Uiso   1.00
C1034  C     0.65171   0.43446   0.58116   0.00000  Uiso   1.00
C1035  C     0.40623   0.47969   0.91612   0.00000  Uiso   1.00
C1036  C     0.59073   0.50706   0.58278   0.00000  Uiso   1.00
C1037  C     0.42546   0.49217   0.96648   0.00000  Uiso   1.00
C1038  C     0.55309   0.47789   0.54674   0.00000  Uiso   1.00
C1039  C     0.40136   0.53336   0.99496   0.00000  Uiso   1.00
C1040  C     0.56909   0.42934   0.52527   0.00000  Uiso   1.00
C1041  C     0.47042   0.46822   0.98884   0.00000  Uiso   1.00
C1042  C     0.49950   0.49407   0.53187   0.00000  Uiso   1.00
C1043  C     0.47177   0.53222   0.56041   0.00000  Uiso   1.00
C1044  C     0.48566   0.41849   0.97161   0.00000  Uiso   1.00
C1045  C     0.42266   0.55085   0.54252   0.00000  Uiso   1.00
C1046  C     0.53440   0.39950   0.98938   0.00000  Uiso   1.00
H1047  H     0.40264   0.58065   0.56525   0.00000  Uiso   1.00
H1048  H     0.54500   0.36110   0.97484   0.00000  Uiso   1.00
H1049  H     0.33662   0.58735   0.99865   0.00000  Uiso   1.00
H1050  H     0.62872   0.37201   0.52346   0.00000  Uiso   1.00
H1051  H     0.48693   0.54737   0.59721   0.00000  Uiso   1.00
H1052  H     0.45873   0.39231   0.94638   0.00000  Uiso   1.00
C1053  C     0.35448   0.65057   0.73762   0.00000  Uiso   1.00
C1054  C     0.64210   0.34640   0.74269   0.00000  Uiso   1.00
N1055  N     0.48029   0.48550   0.73739   0.00000  Uiso   1.00
N1056  N     0.51971   0.51450   0.76260   0.00000  Uiso   1.00
N1057  N     0.58936   0.56277   0.59388   0.00000  Uiso   1.00
O1058  O     0.57480   0.59103   0.55965   0.00000  Uiso   1.00
O1059  O     0.61222   0.58673   0.63468   0.00000  Uiso   1.00
N1060  N     0.43143   0.44118   0.88368   0.00000  Uiso   1.00
O1061  O     0.48409   0.44783   0.87181   0.00000  Uiso   1.00
O1062  O     0.39988   0.40217   0.86164   0.00000  Uiso   1.00
O1063  O     0.36400   0.41193   0.60170   0.00000  Uiso   1.00
C1064  C     0.39087   0.37804   0.56709   0.00000  Uiso   1.00
H1065  H     0.39585   0.39392   0.53105   0.00000  Uiso   1.00
H1066  H     0.36745   0.33935   0.56233   0.00000  Uiso   1.00
H1067  H     0.43398   0.37219   0.58129   0.00000  Uiso   1.00
O1068  O     0.61915   0.56334   0.91228   0.00000  Uiso   1.00
C1069  C     0.57278   0.54447   0.93857   0.00000  Uiso   1.00
H1070  H     0.53561   0.56707   0.93254   0.00000  Uiso   1.00
H1071  H     0.58090   0.54852   0.97883   0.00000  Uiso   1.00
H1072  H     0.56165   0.50303   0.92594   0.00000  Uiso   1.00
O1073  O     0.40940   0.33766   0.73159   0.00000  Uiso   1.00
C1074  C     0.42628   0.65362   0.68362   0.00000  Uiso   1.00
H1075  H     0.39609   0.66409   0.65490   0.00000  Uiso   1.00
H1076  H     0.43095   0.61136   0.67841   0.00000  Uiso   1.00
H1077  H     0.46876   0.33876   0.67784   0.00000  Uiso   1.00
O1078  O     0.58687   0.65714   0.73348   0.00000  Uiso   1.00
C1079  C     0.55001   0.33951   0.77133   0.00000  Uiso   1.00
H1080  H     0.52894   0.37453   0.76341   0.00000  Uiso   1.00
H1081  H     0.57121   0.34469   0.80876   0.00000  Uiso   1.00
H1082  H     0.51454   0.64322   0.77102   0.00000  Uiso   1.00
O1083  O     0.50206   0.44693   0.70914   0.00000  Uiso   1.00
C1084  C     0.47257   0.44210   0.66381   0.00000  Uiso   1.00
H1085  H     0.46862   0.48012   0.64941   0.00000  Uiso   1.00
H1086  H     0.43068   0.42235   0.66804   0.00000  Uiso   1.00
H1087  H     0.49676   0.41828   0.63684   0.00000  Uiso   1.00
O1088  O     0.49844   0.55552   0.78758   0.00000  Uiso   1.00
C1089  C     0.53031   0.56665   0.83155   0.00000  Uiso   1.00
H1090  H     0.57263   0.58508   0.82537   0.00000  Uiso   1.00
H1091  H     0.53391   0.53088   0.84955   0.00000  Uiso   1.00
H1092  H     0.50779   0.59439   0.85630   0.00000  Uiso   1.00
O1093  O     0.96386   0.57964   0.75309   0.00000  Uiso   1.00
O1094  O     0.70281   0.42036   0.74690   0.00000  Uiso   1.00
O1095  O     0.72488   0.57035   0.74501   0.00000  Uiso   1.00
O1096  O     0.94178   0.42965   0.75498   0.00000  Uiso   1.00
C1097  C     0.68085   0.59742   0.74539   0.00000  Uiso   1.00
C1098  C     0.98474   0.40161   0.74879   0.00000  Uiso   1.00
O1099  O     0.96995   0.50730   0.82247   0.00000  Uiso   1.00
O1100  O     0.69672   0.49270   0.67753   0.00000  Uiso   1.00
O1101  O     0.73098   0.49801   0.81439   0.00000  Uiso   1.00
O1102  O     0.93569   0.50199   0.68561   0.00000  Uiso   1.00
C1103  C     0.68710   0.50381   0.84189   0.00000  Uiso   1.00
C1104  C     0.97914   0.49419   0.65834   0.00000  Uiso   1.00
Zn1105 Zn    0.93700   0.50621   0.75539   0.00000  Uiso   1.00
Zn1106 Zn    0.72967   0.49379   0.74460   0.00000  Uiso   1.00
C1107  C     0.69626   0.50724   0.89635   0.00000  Uiso   1.00
C1108  C     0.96721   0.48127   0.60493   0.00000  Uiso   1.00
C1109  C     0.68900   0.55675   0.97612   0.00000  Uiso   1.00
C1110  C     0.95200   0.40941   0.54084   0.00000  Uiso   1.00
C1111  C     0.66711   0.54167   0.92825   0.00000  Uiso   1.00
C1112  C     0.98504   0.43446   0.58116   0.00000  Uiso   1.00
C1113  C     0.73957   0.47969   0.91612   0.00000  Uiso   1.00
C1114  C     0.92407   0.50706   0.58278   0.00000  Uiso   1.00
C1115  C     0.75879   0.49217   0.96648   0.00000  Uiso   1.00
C1116  C     0.88642   0.47789   0.54674   0.00000  Uiso   1.00
C1117  C     0.73470   0.53336   0.99496   0.00000  Uiso   1.00
C1118  C     0.90242   0.42934   0.52527   0.00000  Uiso   1.00
C1119  C     0.80376   0.46822   0.98884   0.00000  Uiso   1.00
C1120  C     0.83284   0.49407   0.53187   0.00000  Uiso   1.00
C1121  C     0.80511   0.53222   0.56041   0.00000  Uiso   1.00
C1122  C     0.81899   0.41849   0.97161   0.00000  Uiso   1.00
C1123  C     0.75600   0.55085   0.54252   0.00000  Uiso   1.00
C1124  C     0.86773   0.39950   0.98938   0.00000  Uiso   1.00
H1125  H     0.73597   0.58065   0.56525   0.00000  Uiso   1.00
H1126  H     0.87833   0.36110   0.97484   0.00000  Uiso   1.00
H1127  H     0.66995   0.58735   0.99865   0.00000  Uiso   1.00
H1128  H     0.96206   0.37201   0.52346   0.00000  Uiso   1.00
H1129  H     0.82026   0.54737   0.59721   0.00000  Uiso   1.00
H1130  H     0.79206   0.39231   0.94638   0.00000  Uiso   1.00
C1131  C     0.68781   0.65057   0.73762   0.00000  Uiso   1.00
C1132  C     0.97543   0.34640   0.74269   0.00000  Uiso   1.00
N1133  N     0.81362   0.48550   0.73739   0.00000  Uiso   1.00
N1134  N     0.85305   0.51450   0.76260   0.00000  Uiso   1.00
N1135  N     0.92269   0.56277   0.59388   0.00000  Uiso   1.00
O1136  O     0.90814   0.59103   0.55965   0.00000  Uiso   1.00
O1137  O     0.94555   0.58673   0.63468   0.00000  Uiso   1.00
N1138  N     0.76477   0.44118   0.88368   0.00000  Uiso   1.00
O1139  O     0.81743   0.44783   0.87181   0.00000  Uiso   1.00
O1140  O     0.73321   0.40217   0.86164   0.00000  Uiso   1.00
O1141  O     0.69733   0.41193   0.60170   0.00000  Uiso   1.00
C1142  C     0.72420   0.37804   0.56709   0.00000  Uiso   1.00
H1143  H     0.72918   0.39392   0.53105   0.00000  Uiso   1.00
H1144  H     0.70079   0.33935   0.56233   0.00000  Uiso   1.00
H1145  H     0.76732   0.37219   0.58129   0.00000  Uiso   1.00
O1146  O     0.95248   0.56334   0.91228   0.00000  Uiso   1.00
C1147  C     0.90611   0.54447   0.93857   0.00000  Uiso   1.00
H1148  H     0.86895   0.56707   0.93254   0.00000  Uiso   1.00
H1149  H     0.91423   0.54852   0.97883   0.00000  Uiso   1.00
H1150  H     0.89498   0.50303   0.92594   0.00000  Uiso   1.00
O1151  O     0.74273   0.33766   0.73159   0.00000  Uiso   1.00
C1152  C     0.75961   0.65362   0.68362   0.00000  Uiso   1.00
H1153  H     0.72943   0.66409   0.65490   0.00000  Uiso   1.00
H1154  H     0.76428   0.61136   0.67841   0.00000  Uiso   1.00
H1155  H     0.80209   0.33876   0.67784   0.00000  Uiso   1.00
O1156  O     0.92020   0.65714   0.73348   0.00000  Uiso   1.00
C1157  C     0.88334   0.33951   0.77133   0.00000  Uiso   1.00
H1158  H     0.86227   0.37453   0.76341   0.00000  Uiso   1.00
H1159  H     0.90454   0.34469   0.80876   0.00000  Uiso   1.00
H1160  H     0.84788   0.64322   0.77102   0.00000  Uiso   1.00
O1161  O     0.83539   0.44693   0.70914   0.00000  Uiso   1.00
C1162  C     0.80591   0.44210   0.66381   0.00000  Uiso   1.00
H1163  H     0.80195   0.48012   0.64941   0.00000  Uiso   1.00
H1164  H     0.76401   0.42235   0.66804   0.00000  Uiso   1.00
H1165  H     0.83009   0.41828   0.63684   0.00000  Uiso   1.00
O1166  O     0.83177   0.55552   0.78758   0.00000  Uiso   1.00
C1167  C     0.86364   0.56665   0.83155   0.00000  Uiso   1.00
H1168  H     0.90596   0.58508   0.82537   0.00000  Uiso   1.00
H1169  H     0.86724   0.53088   0.84955   0.00000  Uiso   1.00
H1170  H     0.84112   0.59439   0.85630   0.00000  Uiso   1.00
O1171  O     0.29719   0.91298   0.75309   0.00000  Uiso   1.00
O1172  O     0.03614   0.75369   0.74690   0.00000  Uiso   1.00
O1173  O     0.05822   0.90368   0.74501   0.00000  Uiso   1.00
O1174  O     0.27512   0.76298   0.75498   0.00000  Uiso   1.00
C1175  C     0.01418   0.93075   0.74539   0.00000  Uiso   1.00
C1176  C     0.31808   0.73494   0.74879   0.00000  Uiso   1.00
O1177  O     0.30328   0.84063   0.82247   0.00000  Uiso   1.00
O1178  O     0.03005   0.82603   0.67753   0.00000  Uiso   1.00
O1179  O     0.06431   0.83134   0.81439   0.00000  Uiso   1.00
O1180  O     0.26902   0.83533   0.68561   0.00000  Uiso   1.00
C1181  C     0.02043   0.83715   0.84189   0.00000  Uiso   1.00
C1182  C     0.31247   0.82752   0.65834   0.00000  Uiso   1.00
Zn1183 Zn    0.27033   0.83954   0.75539   0.00000  Uiso   1.00
Zn1184 Zn    0.06300   0.82713   0.74460   0.00000  Uiso   1.00
C1185  C     0.02959   0.84058   0.89635   0.00000  Uiso   1.00
C1186  C     0.30055   0.81461   0.60493   0.00000  Uiso   1.00
C1187  C     0.02234   0.89009   0.97612   0.00000  Uiso   1.00
C1188  C     0.28533   0.74275   0.54084   0.00000  Uiso   1.00
C1189  C     0.00045   0.87501   0.92825   0.00000  Uiso   1.00
C1190  C     0.31837   0.76779   0.58116   0.00000  Uiso   1.00
C1191  C     0.07290   0.81303   0.91612   0.00000  Uiso   1.00
C1192  C     0.25740   0.84039   0.58278   0.00000  Uiso   1.00
C1193  C     0.09212   0.82550   0.96648   0.00000  Uiso   1.00
C1194  C     0.21976   0.81123   0.54674   0.00000  Uiso   1.00
C1195  C     0.06803   0.86669   0.99496   0.00000  Uiso   1.00
C1196  C     0.23576   0.76267   0.52527   0.00000  Uiso   1.00
C1197  C     0.13709   0.80155   0.98884   0.00000  Uiso   1.00
C1198  C     0.16617   0.82740   0.53187   0.00000  Uiso   1.00
C1199  C     0.13844   0.86556   0.56041   0.00000  Uiso   1.00
C1200  C     0.15233   0.75183   0.97161   0.00000  Uiso   1.00
C1201  C     0.08933   0.88418   0.54252   0.00000  Uiso   1.00
C1202  C     0.20107   0.73283   0.98938   0.00000  Uiso   1.00
H1203  H     0.06930   0.91399   0.56525   0.00000  Uiso   1.00
H1204  H     0.21166   0.69444   0.97484   0.00000  Uiso   1.00
H1205  H     0.00329   0.92068   0.99865   0.00000  Uiso   1.00
H1206  H     0.29539   0.70535   0.52346   0.00000  Uiso   1.00
H1207  H     0.15360   0.88070   0.59721   0.00000  Uiso   1.00
H1208  H     0.12539   0.72564   0.94638   0.00000  Uiso   1.00
C1209  C     0.02115   0.98390   0.73762   0.00000  Uiso   1.00
C1210  C     0.30876   0.67973   0.74269   0.00000  Uiso   1.00
N1211  N     0.14695   0.81883   0.73739   0.00000  Uiso   1.00
N1212  N     0.18638   0.84784   0.76260   0.00000  Uiso   1.00
N1213  N     0.25603   0.89610   0.59388   0.00000  Uiso   1.00
O1214  O     0.24147   0.92437   0.55965   0.00000  Uiso   1.00
O1215  O     0.27888   0.92006   0.63468   0.00000  Uiso   1.00
N1216  N     0.09810   0.77451   0.88368   0.00000  Uiso   1.00
O1217  O     0.15076   0.78116   0.87181   0.00000  Uiso   1.00
O1218  O     0.06654   0.73551   0.86164   0.00000  Uiso   1.00
O1219  O     0.03067   0.74527   0.60170   0.00000  Uiso   1.00
C1220  C     0.05753   0.71137   0.56709   0.00000  Uiso   1.00
H1221  H     0.06252   0.72726   0.53105   0.00000  Uiso   1.00
H1222  H     0.03412   0.67268   0.56233   0.00000  Uiso   1.00
H1223  H     0.10065   0.70552   0.58129   0.00000  Uiso   1.00
O1224  O     0.28581   0.89668   0.91228   0.00000  Uiso   1.00
C1225  C     0.23944   0.87781   0.93857   0.00000  Uiso   1.00
H1226  H     0.20228   0.90040   0.93254   0.00000  Uiso   1.00
H1227  H     0.24756   0.88185   0.97883   0.00000  Uiso   1.00
H1228  H     0.22831   0.83636   0.92594   0.00000  Uiso   1.00
O1229  O     0.07606   0.67099   0.73159   0.00000  Uiso   1.00
C1230  C     0.09295   0.98695   0.68362   0.00000  Uiso   1.00
H1231  H     0.06276   0.99742   0.65490   0.00000  Uiso   1.00
H1232  H     0.09762   0.94469   0.67841   0.00000  Uiso   1.00
H1233  H     0.13543   0.67209   0.67784   0.00000  Uiso   1.00
O1234  O     0.25354   0.99047   0.73348   0.00000  Uiso   1.00
C1235  C     0.21667   0.67285   0.77133   0.00000  Uiso   1.00
H1236  H     0.19560   0.70787   0.76341   0.00000  Uiso   1.00
H1237  H     0.23787   0.67803   0.80876   0.00000  Uiso   1.00
H1238  H     0.18121   0.97656   0.77102   0.00000  Uiso   1.00
O1239  O     0.16872   0.78026   0.70914   0.00000  Uiso   1.00
C1240  C     0.13924   0.77543   0.66381   0.00000  Uiso   1.00
H1241  H     0.13529   0.81345   0.64941   0.00000  Uiso   1.00
H1242  H     0.09735   0.75568   0.66804   0.00000  Uiso   1.00
H1243  H     0.16342   0.75161   0.63684   0.00000  Uiso   1.00
O1244  O     0.16510   0.88886   0.78758   0.00000  Uiso   1.00
C1245  C     0.19697   0.89999   0.83155   0.00000  Uiso   1.00
H1246  H     0.23929   0.91841   0.82537   0.00000  Uiso   1.00
H1247  H     0.20058   0.86421   0.84955   0.00000  Uiso   1.00
H1248  H     0.17445   0.92772   0.85630   0.00000  Uiso   1.00
O1249  O     0.63052   0.91298   0.75309   0.00000  Uiso   1.00
O1250  O     0.36948   0.75369   0.74690   0.00000  Uiso   1.00
O1251  O     0.39155   0.90368   0.74501   0.00000  Uiso   1.00
O1252  O     0.60845   0.76298   0.75498   0.00000  Uiso   1.00
C1253  C     0.34751   0.93075   0.74539   0.00000  Uiso   1.00
C1254  C     0.65141   0.73494   0.74879   0.00000  Uiso   1.00
O1255  O     0.63662   0.84063   0.82247   0.00000  Uiso   1.00
O1256  O     0.36338   0.82603   0.67753   0.00000  Uiso   1.00
O1257  O     0.39764   0.83134   0.81439   0.00000  Uiso   1.00
O1258  O     0.60236   0.83533   0.68561   0.00000  Uiso   1.00
C1259  C     0.35377   0.83715   0.84189   0.00000  Uiso   1.00
C1260  C     0.64581   0.82752   0.65834   0.00000  Uiso   1.00
Zn1261 Zn    0.60366   0.83954   0.75539   0.00000  Uiso   1.00
Zn1262 Zn    0.39634   0.82713   0.74460   0.00000  Uiso   1.00
C1263  C     0.36293   0.84058   0.89635   0.00000  Uiso   1.00
C1264  C     0.63388   0.81461   0.60493   0.00000  Uiso   1.00
C1265  C     0.35567   0.89009   0.97612   0.00000  Uiso   1.00
C1266  C     0.61866   0.74275   0.54084   0.00000  Uiso   1.00
C1267  C     0.33378   0.87501   0.92825   0.00000  Uiso   1.00
C1268  C     0.65171   0.76779   0.58116   0.00000  Uiso   1.00
C1269  C     0.40623   0.81303   0.91612   0.00000  Uiso   1.00
C1270  C     0.59073   0.84039   0.58278   0.00000  Uiso   1.00
C1271  C     0.42546   0.82550   0.96648   0.00000  Uiso   1.00
C1272  C     0.55309   0.81123   0.54674   0.00000  Uiso   1.00
C1273  C     0.40136   0.86669   0.99496   0.00000  Uiso   1.00
C1274  C     0.56909   0.76267   0.52527   0.00000  Uiso   1.00
C1275  C     0.47042   0.80155   0.98884   0.00000  Uiso   1.00
C1276  C     0.49950   0.82740   0.53187   0.00000  Uiso   1.00
C1277  C     0.47177   0.86556   0.56041   0.00000  Uiso   1.00
C1278  C     0.48566   0.75183   0.97161   0.00000  Uiso   1.00
C1279  C     0.42266   0.88418   0.54252   0.00000  Uiso   1.00
C1280  C     0.53440   0.73283   0.98938   0.00000  Uiso   1.00
H1281  H     0.40264   0.91399   0.56525   0.00000  Uiso   1.00
H1282  H     0.54500   0.69444   0.97484   0.00000  Uiso   1.00
H1283  H     0.33662   0.92068   0.99865   0.00000  Uiso   1.00
H1284  H     0.62872   0.70535   0.52346   0.00000  Uiso   1.00
H1285  H     0.48693   0.88070   0.59721   0.00000  Uiso   1.00
H1286  H     0.45873   0.72564   0.94638   0.00000  Uiso   1.00
C1287  C     0.35448   0.98390   0.73762   0.00000  Uiso   1.00
C1288  C     0.64210   0.67973   0.74269   0.00000  Uiso   1.00
N1289  N     0.48029   0.81883   0.73739   0.00000  Uiso   1.00
N1290  N     0.51971   0.84784   0.76260   0.00000  Uiso   1.00
N1291  N     0.58936   0.89610   0.59388   0.00000  Uiso   1.00
O1292  O     0.57480   0.92437   0.55965   0.00000  Uiso   1.00
O1293  O     0.61222   0.92006   0.63468   0.00000  Uiso   1.00
N1294  N     0.43143   0.77451   0.88368   0.00000  Uiso   1.00
O1295  O     0.48409   0.78116   0.87181   0.00000  Uiso   1.00
O1296  O     0.39988   0.73551   0.86164   0.00000  Uiso   1.00
O1297  O     0.36400   0.74527   0.60170   0.00000  Uiso   1.00
C1298  C     0.39087   0.71137   0.56709   0.00000  Uiso   1.00
H1299  H     0.39585   0.72726   0.53105   0.00000  Uiso   1.00
H1300  H     0.36745   0.67268   0.56233   0.00000  Uiso   1.00
H1301  H     0.43398   0.70552   0.58129   0.00000  Uiso   1.00
O1302  O     0.61915   0.89668   0.91228   0.00000  Uiso   1.00
C1303  C     0.57278   0.87781   0.93857   0.00000  Uiso   1.00
H1304  H     0.53561   0.90040   0.93254   0.00000  Uiso   1.00
H1305  H     0.58090   0.88185   0.97883   0.00000  Uiso   1.00
H1306  H     0.56165   0.83636   0.92594   0.00000  Uiso   1.00
O1307  O     0.40940   0.67099   0.73159   0.00000  Uiso   1.00
C1308  C     0.42628   0.98695   0.68362   0.00000  Uiso   1.00
H1309  H     0.39609   0.99742   0.65490   0.00000  Uiso   1.00
H1310  H     0.43095   0.94469   0.67841   0.00000  Uiso   1.00
H1311  H     0.46876   0.67209   0.67784   0.00000  Uiso   1.00
O1312  O     0.58687   0.99047   0.73348   0.00000  Uiso   1.00
C1313  C     0.55001   0.67285   0.77133   0.00000  Uiso   1.00
H1314  H     0.52894   0.70787   0.76341   0.00000  Uiso   1.00
H1315  H     0.57121   0.67803   0.80876   0.00000  Uiso   1.00
H1316  H     0.51454   0.97656   0.77102   0.00000  Uiso   1.00
O1317  O     0.50206   0.78026   0.70914   0.00000  Uiso   1.00
C1318  C     0.47257   0.77543   0.66381   0.00000  Uiso   1.00
H1319  H     0.46862   0.81345   0.64941   0.00000  Uiso   1.00
H1320  H     0.43068   0.75568   0.66804   0.00000  Uiso   1.00
H1321  H     0.49676   0.75161   0.63684   0.00000  Uiso   1.00
O1322  O     0.49844   0.88886   0.78758   0.00000  Uiso   1.00
C1323  C     0.53031   0.89999   0.83155   0.00000  Uiso   1.00
H1324  H     0.57263   0.91841   0.82537   0.00000  Uiso   1.00
H1325  H     0.53391   0.86421   0.84955   0.00000  Uiso   1.00
H1326  H     0.50779   0.92772   0.85630   0.00000  Uiso   1.00
O1327  O     0.96386   0.91298   0.75309   0.00000  Uiso   1.00
O1328  O     0.70281   0.75369   0.74690   0.00000  Uiso   1.00
O1329  O     0.72488   0.90368   0.74501   0.00000  Uiso   1.00
O1330  O     0.94178   0.76298   0.75498   0.00000  Uiso   1.00
C1331  C     0.68085   0.93075   0.74539   0.00000  Uiso   1.00
C1332  C     0.98474   0.73494   0.74879   0.00000  Uiso   1.00
O1333  O     0.96995   0.84063   0.82247   0.00000  Uiso   1.00
O1334  O     0.69672   0.82603   0.67753   0.00000  Uiso   1.00
O1335  O     0.73098   0.83134   0.81439   0.00000  Uiso   1.00
O1336  O     0.93569   0.83533   0.68561   0.00000  Uiso   1.00
C1337  C     0.68710   0.83715   0.84189   0.00000  Uiso   1.00
C1338  C     0.97914   0.82752   0.65834   0.00000  Uiso   1.00
Zn1339 Zn    0.93700   0.83954   0.75539   0.00000  Uiso   1.00
Zn1340 Zn    0.72967   0.82713   0.74460   0.00000  Uiso   1.00
C1341  C     0.69626   0.84058   0.89635   0.00000  Uiso   1.00
C1342  C     0.96721   0.81461   0.60493   0.00000  Uiso   1.00
C1343  C     0.68900   0.89009   0.97612   0.00000  Uiso   1.00
C1344  C     0.95200   0.74275   0.54084   0.00000  Uiso   1.00
C1345  C     0.66711   0.87501   0.92825   0.00000  Uiso   1.00
C1346  C     0.98504   0.76779   0.58116   0.00000  Uiso   1.00
C1347  C     0.73957   0.81303   0.91612   0.00000  Uiso   1.00
C1348  C     0.92407   0.84039   0.58278   0.00000  Uiso   1.00
C1349  C     0.75879   0.82550   0.96648   0.00000  Uiso   1.00
C1350  C     0.88642   0.81123   0.54674   0.00000  Uiso   1.00
C1351  C     0.73470   0.86669   0.99496   0.00000  Uiso   1.00
C1352  C     0.90242   0.76267   0.52527   0.00000  Uiso   1.00
C1353  C     0.80376   0.80155   0.98884   0.00000  Uiso   1.00
C1354  C     0.83284   0.82740   0.53187   0.00000  Uiso   1.00
C1355  C     0.80511   0.86556   0.56041   0.00000  Uiso   1.00
C1356  C     0.81899   0.75183   0.97161   0.00000  Uiso   1.00
C1357  C     0.75600   0.88418   0.54252   0.00000  Uiso   1.00
C1358  C     0.86773   0.73283   0.98938   0.00000  Uiso   1.00
H1359  H     0.73597   0.91399   0.56525   0.00000  Uiso   1.00
H1360  H     0.87833   0.69444   0.97484   0.00000  Uiso   1.00
H1361  H     0.66995   0.92068   0.99865   0.00000  Uiso   1.00
H1362  H     0.96206   0.70535   0.52346   0.00000  Uiso   1.00
H1363  H     0.82026   0.88070   0.59721   0.00000  Uiso   1.00
H1364  H     0.79206   0.72564   0.94638   0.00000  Uiso   1.00
C1365  C     0.68781   0.98390   0.73762   0.00000  Uiso   1.00
C1366  C     0.97543   0.67973   0.74269   0.00000  Uiso   1.00
N1367  N     0.81362   0.81883   0.73739   0.00000  Uiso   1.00
N1368  N     0.85305   0.84784   0.76260   0.00000  Uiso   1.00
N1369  N     0.92269   0.89610   0.59388   0.00000  Uiso   1.00
O1370  O     0.90814   0.92437   0.55965   0.00000  Uiso   1.00
O1371  O     0.94555   0.92006   0.63468   0.00000  Uiso   1.00
N1372  N     0.76477   0.77451   0.88368   0.00000  Uiso   1.00
O1373  O     0.81743   0.78116   0.87181   0.00000  Uiso   1.00
O1374  O     0.73321   0.73551   0.86164   0.00000  Uiso   1.00
O1375  O     0.69733   0.74527   0.60170   0.00000  Uiso   1.00
C1376  C     0.72420   0.71137   0.56709   0.00000  Uiso   1.00
H1377  H     0.72918   0.72726   0.53105   0.00000  Uiso   1.00
H1378  H     0.70079   0.67268   0.56233   0.00000  Uiso   1.00
H1379  H     0.76732   0.70552   0.58129   0.00000  Uiso   1.00
O1380  O     0.95248   0.89668   0.91228   0.00000  Uiso   1.00
C1381  C     0.90611   0.87781   0.93857   0.00000  Uiso   1.00
H1382  H     0.86895   0.90040   0.93254   0.00000  Uiso   1.00
H1383  H     0.91423   0.88185   0.97883   0.00000  Uiso   1.00
H1384  H     0.89498   0.83636   0.92594   0.00000  Uiso   1.00
O1385  O     0.74273   0.67099   0.73159   0.00000  Uiso   1.00
C1386  C     0.75961   0.98695   0.68362   0.00000  Uiso   1.00
H1387  H     0.72943   0.99742   0.65490   0.00000  Uiso   1.00
H1388  H     0.76428   0.94469   0.67841   0.00000  Uiso   1.00
H1389  H     0.80209   0.67209   0.67784   0.00000  Uiso   1.00
O1390  O     0.92020   0.99047   0.73348   0.00000  Uiso   1.00
C1391  C     0.88334   0.67285   0.77133   0.00000  Uiso   1.00
H1392  H     0.86227   0.70787   0.76341   0.00000  Uiso   1.00
H1393  H     0.90454   0.67803   0.80876   0.00000  Uiso   1.00
H1394  H     0.84788   0.97656   0.77102   0.00000  Uiso   1.00
O1395  O     0.83539   0.78026   0.70914   0.00000  Uiso   1.00
C1396  C     0.80591   0.77543   0.66381   0.00000  Uiso   1.00
H1397  H     0.80195   0.81345   0.64941   0.00000  Uiso   1.00
H1398  H     0.76401   0.75568   0.66804   0.00000  Uiso   1.00
H1399  H     0.83009   0.75161   0.63684   0.00000  Uiso   1.00
O1400  O     0.83177   0.88886   0.78758   0.00000  Uiso   1.00
C1401  C     0.86364   0.89999   0.83155   0.00000  Uiso   1.00
H1402  H     0.90596   0.91841   0.82537   0.00000  Uiso   1.00
H1403  H     0.86724   0.86421   0.84955   0.00000  Uiso   1.00
H1404  H     0.84112   0.92772   0.85630   0.00000  Uiso   1.00
loop_
_geom_bond_atom_site_label_1
_geom_bond_atom_site_label_2
_geom_bond_distance
_geom_bond_site_symmetry_2
_ccdc_geom_bond_type
O1     Zn13    1.984   .     S
O1     C83     1.279   .     S
O2     Zn14    1.984   .     S
O2     C162    1.283   1_455 S
O3     Zn14    2.005   .     S
O3     C5      1.295   .     A
O4     Zn13    2.005   .     S
O4     C6      1.295   .     A
C5     C39     1.423   .     S
C5     O157    1.279   1_455 S
C6     C40     1.432   .     S
C6     O80     1.283   .     S
O7     Zn13    1.962   .     S
O7     C89     1.304   .     S
O8     Zn14    1.962   .     S
O8     C168    1.303   1_455 S
O9     Zn14    1.892   .     S
O9     C11     1.305   .     A
O10    C12     1.300   .     A
O10    Zn13    1.892   .     S
C11    C15     1.486   .     S
C11    O163    1.304   1_455 S
C12    C16     1.473   .     S
C12    O86     1.303   .     S
Zn13   N42     2.023   .     S
Zn14   N41     2.023   .     S
C15    C19     1.410   .     A
C15    C21     1.414   .     A
C16    C20     1.416   .     A
C16    C22     1.413   .     A
C17    C25     1.387   .     A
C17    C19     1.396   .     A
C17    H35     1.085   .     S
C18    C26     1.386   .     A
C18    C20     1.405   .     A
C18    H36     1.082   .     S
C19    O210    1.379   1_455 S
C20    O127    1.392   .     S
C21    C23     1.430   .     A
C21    N46     1.438   .     S
C22    N43     1.454   .     S
C22    C24     1.427   .     A
C23    C27     1.422   .     A
C23    C25     1.418   .     A
C24    C26     1.417   .     A
C24    C28     1.422   .     A
C25    C733    1.395   .     S
C26    C734    1.393   1_554 S
C27    C30     1.405   .     A
C27    C730    1.423   .     S
C28    C29     1.406   .     A
C28    C729    1.423   1_554 S
C29    C31     1.383   .     A
C29    H37     1.080   .     S
C30    H38     1.078   .     S
C30    C32     1.379   .     A
C31    H33     1.084   .     S
C31    C727    1.395   1_554 S
C32    H34     1.085   .     S
C32    C728    1.393   .     S
C39    C430    1.364   1_455 S
C39    O293    1.391   .     S
C40    C585    1.364   1_545 S
C40    O532    1.400   1_545 S
N41    N42     1.293   .     D
N41    O69     1.340   .     S
N42    O74     1.341   .     S
N43    O44     1.300   .     A
N43    O45     1.300   .     A
N46    O48     1.302   .     A
N46    O47     1.300   .     A
O49    C50     1.417   .     S
O49    C176    1.392   1_455 S
C50    H52     1.111   .     S
C50    H53     1.105   .     S
C50    H51     1.111   .     S
O54    C55     1.416   .     S
O54    C97     1.379   .     S
C55    H56     1.107   .     S
C55    H57     1.101   .     S
C55    H58     1.110   .     S
O59    C507    1.391   1_545 S
O59    C528    1.415   1_545 S
C60    H62     1.109   .     S
C60    H61     1.111   .     S
C60    O293    1.415   .     S
C60    H297    1.107   .     S
H63    C528    1.107   1_545 S
O64    C274    1.400   .     S
O64    C299    1.415   .     S
C65    H67     1.114   .     S
C65    H66     1.106   .     S
C65    O532    1.415   1_545 S
C65    H536    1.100   1_545 S
H68    C299    1.100   .     S
O69    C70     1.390   .     S
C70    H71     1.112   .     S
C70    H73     1.108   .     S
C70    H72     1.100   .     S
O74    C75     1.390   .     S
C75    H77     1.105   .     S
C75    H76     1.106   .     S
C75    H78     1.109   .     S
O79    Zn91    1.984   .     S
O79    C161    1.279   .     S
O80    Zn92    1.984   .     S
O81    Zn92    2.005   .     S
O81    C83     1.295   .     A
O82    Zn91    2.005   .     S
O82    C84     1.295   .     A
C83    C117    1.423   .     S
C84    C118    1.432   .     S
C84    O158    1.283   .     S
O85    Zn91    1.962   .     S
O85    C167    1.304   .     S
O86    Zn92    1.962   .     S
O87    Zn92    1.892   .     S
O87    C89     1.305   .     A
O88    C90     1.300   .     A
O88    Zn91    1.892   .     S
C89    C93     1.486   .     S
C90    C94     1.473   .     S
C90    O164    1.303   .     S
Zn91   N120    2.023   .     S
Zn92   N119    2.023   .     S
C93    C97     1.410   .     A
C93    C99     1.414   .     A
C94    C98     1.416   .     A
C94    C100    1.413   .     A
C95    C103    1.387   .     A
C95    C97     1.396   .     A
C95    H113    1.085   .     S
C96    C104    1.386   .     A
C96    C98     1.405   .     A
C96    H114    1.082   .     S
C98    O205    1.392   .     S
C99    C101    1.430   .     A
C99    N124    1.438   .     S
C100   N121    1.454   .     S
C100   C102    1.427   .     A
C101   C105    1.422   .     A
C101   C103    1.418   .     A
C102   C104    1.417   .     A
C102   C106    1.422   .     A
C103   C811    1.395   .     S
C104   C812    1.393   1_554 S
C105   C108    1.405   .     A
C105   C808    1.423   .     S
C106   C107    1.406   .     A
C106   C807    1.423   1_554 S
C107   C109    1.383   .     A
C107   H115    1.080   .     S
C108   H116    1.078   .     S
C108   C110    1.379   .     A
C109   H111    1.084   .     S
C109   C805    1.395   1_554 S
C110   H112    1.085   .     S
C110   C806    1.393   .     S
C117   C274    1.364   .     S
C117   O371    1.391   .     S
C118   C663    1.364   1_545 S
C118   O610    1.400   1_545 S
N119   N120    1.293   .     D
N119   O147    1.340   .     S
N120   O152    1.341   .     S
N121   O122    1.300   .     A
N121   O123    1.300   .     A
N124   O126    1.302   .     A
N124   O125    1.300   .     A
O127   C128    1.417   .     S
C128   H130    1.111   .     S
C128   H131    1.105   .     S
C128   H129    1.111   .     S
O132   C133    1.416   .     S
O132   C175    1.379   .     S
C133   H134    1.107   .     S
C133   H135    1.101   .     S
C133   H136    1.110   .     S
O137   C585    1.391   1_545 S
O137   C606    1.415   1_545 S
C138   H140    1.109   .     S
C138   H139    1.111   .     S
C138   O371    1.415   .     S
C138   H375    1.107   .     S
H141   C606    1.107   1_545 S
O142   C352    1.400   .     S
O142   C377    1.415   .     S
C143   H145    1.114   .     S
C143   H144    1.106   .     S
C143   O610    1.415   1_545 S
C143   H614    1.100   1_545 S
H146   C377    1.100   .     S
O147   C148    1.390   .     S
C148   H149    1.112   .     S
C148   H151    1.108   .     S
C148   H150    1.100   .     S
O152   C153    1.390   .     S
C153   H155    1.105   .     S
C153   H154    1.106   .     S
C153   H156    1.109   .     S
O157   Zn169   1.984   .     S
O157   C5      1.279   1_655 S
O158   Zn170   1.984   .     S
O159   Zn170   2.005   .     S
O159   C161    1.295   .     A
O160   Zn169   2.005   .     S
O160   C162    1.295   .     A
C161   C195    1.423   .     S
C162   C196    1.432   .     S
C162   O2      1.283   1_655 S
O163   Zn169   1.962   .     S
O163   C11     1.304   1_655 S
O164   Zn170   1.962   .     S
O165   Zn170   1.892   .     S
O165   C167    1.305   .     A
O166   C168    1.300   .     A
O166   Zn169   1.892   .     S
C167   C171    1.486   .     S
C168   C172    1.473   .     S
C168   O8      1.303   1_655 S
Zn169  N198    2.023   .     S
Zn170  N197    2.023   .     S
C171   C175    1.410   .     A
C171   C177    1.414   .     A
C172   C176    1.416   .     A
C172   C178    1.413   .     A
C173   C181    1.387   .     A
C173   C175    1.396   .     A
C173   H191    1.085   .     S
C174   C182    1.386   .     A
C174   C176    1.405   .     A
C174   H192    1.082   .     S
C176   O49     1.392   1_655 S
C177   C179    1.430   .     A
C177   N202    1.438   .     S
C178   N199    1.454   .     S
C178   C180    1.427   .     A
C179   C183    1.422   .     A
C179   C181    1.418   .     A
C180   C182    1.417   .     A
C180   C184    1.422   .     A
C181   C889    1.395   .     S
C182   C890    1.393   1_554 S
C183   C186    1.405   .     A
C183   C886    1.423   .     S
C184   C185    1.406   .     A
C184   C885    1.423   1_554 S
C185   C187    1.383   .     A
C185   H193    1.080   .     S
C186   H194    1.078   .     S
C186   C188    1.379   .     A
C187   H189    1.084   .     S
C187   C883    1.395   1_554 S
C188   H190    1.085   .     S
C188   C884    1.393   .     S
C195   C352    1.364   .     S
C195   O449    1.391   .     S
C196   C507    1.364   1_645 S
C196   O688    1.400   1_545 S
N197   N198    1.293   .     D
N197   O225    1.340   .     S
N198   O230    1.341   .     S
N199   O200    1.300   .     A
N199   O201    1.300   .     A
N202   O204    1.302   .     A
N202   O203    1.300   .     A
O205   C206    1.417   .     S
C206   H208    1.111   .     S
C206   H209    1.105   .     S
C206   H207    1.111   .     S
O210   C211    1.416   .     S
O210   C19     1.379   1_655 S
C211   H212    1.107   .     S
C211   H213    1.101   .     S
C211   H214    1.110   .     S
O215   C663    1.391   1_545 S
O215   C684    1.415   1_545 S
C216   H218    1.109   .     S
C216   H217    1.111   .     S
C216   O449    1.415   .     S
C216   H453    1.107   .     S
H219   C684    1.107   1_545 S
O220   C430    1.400   .     S
O220   C455    1.415   .     S
C221   H223    1.114   .     S
C221   H222    1.106   .     S
C221   O688    1.415   1_545 S
C221   H692    1.100   1_545 S
H224   C455    1.100   .     S
O225   C226    1.390   .     S
C226   H227    1.112   .     S
C226   H229    1.108   .     S
C226   H228    1.100   .     S
O230   C231    1.390   .     S
C231   H233    1.105   .     S
C231   H232    1.106   .     S
C231   H234    1.109   .     S
O235   Zn247   1.984   .     S
O235   C317    1.279   .     S
O236   Zn248   1.984   .     S
O236   C396    1.283   1_455 S
O237   Zn248   2.005   .     S
O237   C239    1.295   .     A
O238   Zn247   2.005   .     S
O238   C240    1.295   .     A
C239   C273    1.423   .     S
C239   O391    1.279   1_455 S
C240   C274    1.432   .     S
C240   O314    1.283   .     S
O241   Zn247   1.962   .     S
O241   C323    1.304   .     S
O242   Zn248   1.962   .     S
O242   C402    1.303   1_455 S
O243   Zn248   1.892   .     S
O243   C245    1.305   .     A
O244   C246    1.300   .     A
O244   Zn247   1.892   .     S
C245   C249    1.486   .     S
C245   O397    1.304   1_455 S
C246   C250    1.473   .     S
C246   O320    1.303   .     S
Zn247  N276    2.023   .     S
Zn248  N275    2.023   .     S
C249   C253    1.410   .     A
C249   C255    1.414   .     A
C250   C254    1.416   .     A
C250   C256    1.413   .     A
C251   C259    1.387   .     A
C251   C253    1.396   .     A
C251   H269    1.085   .     S
C252   C260    1.386   .     A
C252   C254    1.405   .     A
C252   H270    1.082   .     S
C253   O444    1.379   1_455 S
C254   O361    1.392   .     S
C255   C257    1.430   .     A
C255   N280    1.438   .     S
C256   N277    1.454   .     S
C256   C258    1.427   .     A
C257   C261    1.422   .     A
C257   C259    1.418   .     A
C258   C260    1.417   .     A
C258   C262    1.422   .     A
C259   C967    1.395   .     S
C260   C968    1.393   1_554 S
C261   C264    1.405   .     A
C261   C964    1.423   .     S
C262   C263    1.406   .     A
C262   C963    1.423   1_554 S
C263   C265    1.383   .     A
C263   H271    1.080   .     S
C264   H272    1.078   .     S
C264   C266    1.379   .     A
C265   H267    1.084   .     S
C265   C961    1.395   1_554 S
C266   H268    1.085   .     S
C266   C962    1.393   .     S
C273   C664    1.364   1_455 S
C273   O527    1.391   .     S
N275   N276    1.293   .     D
N275   O303    1.340   .     S
N276   O308    1.341   .     S
N277   O278    1.300   .     A
N277   O279    1.300   .     A
N280   O282    1.302   .     A
N280   O281    1.300   .     A
O283   C284    1.417   .     S
O283   C410    1.392   1_455 S
C284   H286    1.111   .     S
C284   H287    1.105   .     S
C284   H285    1.111   .     S
O288   C289    1.416   .     S
O288   C331    1.379   .     S
C289   H290    1.107   .     S
C289   H291    1.101   .     S
C289   H292    1.110   .     S
C294   H296    1.109   .     S
C294   H295    1.111   .     S
C294   O527    1.415   .     S
C294   H531    1.107   .     S
O298   C508    1.400   .     S
O298   C533    1.415   .     S
C299   H301    1.114   .     S
C299   H300    1.106   .     S
H302   C533    1.100   .     S
O303   C304    1.390   .     S
C304   H305    1.112   .     S
C304   H307    1.108   .     S
C304   H306    1.100   .     S
O308   C309    1.390   .     S
C309   H311    1.105   .     S
C309   H310    1.106   .     S
C309   H312    1.109   .     S
O313   Zn325   1.984   .     S
O313   C395    1.279   .     S
O314   Zn326   1.984   .     S
O315   Zn326   2.005   .     S
O315   C317    1.295   .     A
O316   Zn325   2.005   .     S
O316   C318    1.295   .     A
C317   C351    1.423   .     S
C318   C352    1.432   .     S
C318   O392    1.283   .     S
O319   Zn325   1.962   .     S
O319   C401    1.304   .     S
O320   Zn326   1.962   .     S
O321   Zn326   1.892   .     S
O321   C323    1.305   .     A
O322   C324    1.300   .     A
O322   Zn325   1.892   .     S
C323   C327    1.486   .     S
C324   C328    1.473   .     S
C324   O398    1.303   .     S
Zn325  N354    2.023   .     S
Zn326  N353    2.023   .     S
C327   C331    1.410   .     A
C327   C333    1.414   .     A
C328   C332    1.416   .     A
C328   C334    1.413   .     A
C329   C337    1.387   .     A
C329   C331    1.396   .     A
C329   H347    1.085   .     S
C330   C338    1.386   .     A
C330   C332    1.405   .     A
C330   H348    1.082   .     S
C332   O439    1.392   .     S
C333   C335    1.430   .     A
C333   N358    1.438   .     S
C334   N355    1.454   .     S
C334   C336    1.427   .     A
C335   C339    1.422   .     A
C335   C337    1.418   .     A
C336   C338    1.417   .     A
C336   C340    1.422   .     A
C337   C1045   1.395   .     S
C338   C1046   1.393   1_554 S
C339   C342    1.405   .     A
C339   C1042   1.423   .     S
C340   C341    1.406   .     A
C340   C1041   1.423   1_554 S
C341   C343    1.383   .     A
C341   H349    1.080   .     S
C342   H350    1.078   .     S
C342   C344    1.379   .     A
C343   H345    1.084   .     S
C343   C1039   1.395   1_554 S
C344   H346    1.085   .     S
C344   C1040   1.393   .     S
C351   C508    1.364   .     S
C351   O605    1.391   .     S
N353   N354    1.293   .     D
N353   O381    1.340   .     S
N354   O386    1.341   .     S
N355   O356    1.300   .     A
N355   O357    1.300   .     A
N358   O360    1.302   .     A
N358   O359    1.300   .     A
O361   C362    1.417   .     S
C362   H364    1.111   .     S
C362   H365    1.105   .     S
C362   H363    1.111   .     S
O366   C367    1.416   .     S
O366   C409    1.379   .     S
C367   H368    1.107   .     S
C367   H369    1.101   .     S
C367   H370    1.110   .     S
C372   H374    1.109   .     S
C372   H373    1.111   .     S
C372   O605    1.415   .     S
C372   H609    1.107   .     S
O376   C586    1.400   .     S
O376   C611    1.415   .     S
C377   H379    1.114   .     S
C377   H378    1.106   .     S
H380   C611    1.100   .     S
O381   C382    1.390   .     S
C382   H383    1.112   .     S
C382   H385    1.108   .     S
C382   H384    1.100   .     S
O386   C387    1.390   .     S
C387   H389    1.105   .     S
C387   H388    1.106   .     S
C387   H390    1.109   .     S
O391   Zn403   1.984   .     S
O391   C239    1.279   1_655 S
O392   Zn404   1.984   .     S
O393   Zn404   2.005   .     S
O393   C395    1.295   .     A
O394   Zn403   2.005   .     S
O394   C396    1.295   .     A
C395   C429    1.423   .     S
C396   C430    1.432   .     S
C396   O236    1.283   1_655 S
O397   Zn403   1.962   .     S
O397   C245    1.304   1_655 S
O398   Zn404   1.962   .     S
O399   Zn404   1.892   .     S
O399   C401    1.305   .     A
O400   C402    1.300   .     A
O400   Zn403   1.892   .     S
C401   C405    1.486   .     S
C402   C406    1.473   .     S
C402   O242    1.303   1_655 S
Zn403  N432    2.023   .     S
Zn404  N431    2.023   .     S
C405   C409    1.410   .     A
C405   C411    1.414   .     A
C406   C410    1.416   .     A
C406   C412    1.413   .     A
C407   C415    1.387   .     A
C407   C409    1.396   .     A
C407   H425    1.085   .     S
C408   C416    1.386   .     A
C408   C410    1.405   .     A
C408   H426    1.082   .     S
C410   O283    1.392   1_655 S
C411   C413    1.430   .     A
C411   N436    1.438   .     S
C412   N433    1.454   .     S
C412   C414    1.427   .     A
C413   C417    1.422   .     A
C413   C415    1.418   .     A
C414   C416    1.417   .     A
C414   C418    1.422   .     A
C415   C1123   1.395   .     S
C416   C1124   1.393   1_554 S
C417   C420    1.405   .     A
C417   C1120   1.423   .     S
C418   C419    1.406   .     A
C418   C1119   1.423   1_554 S
C419   C421    1.383   .     A
C419   H427    1.080   .     S
C420   H428    1.078   .     S
C420   C422    1.379   .     A
C421   H423    1.084   .     S
C421   C1117   1.395   1_554 S
C422   H424    1.085   .     S
C422   C1118   1.393   .     S
C429   C586    1.364   .     S
C429   O683    1.391   .     S
C430   C39     1.364   1_655 S
N431   N432    1.293   .     D
N431   O459    1.340   .     S
N432   O464    1.341   .     S
N433   O434    1.300   .     A
N433   O435    1.300   .     A
N436   O438    1.302   .     A
N436   O437    1.300   .     A
O439   C440    1.417   .     S
C440   H442    1.111   .     S
C440   H443    1.105   .     S
C440   H441    1.111   .     S
O444   C445    1.416   .     S
O444   C253    1.379   1_655 S
C445   H446    1.107   .     S
C445   H447    1.101   .     S
C445   H448    1.110   .     S
C450   H452    1.109   .     S
C450   H451    1.111   .     S
C450   O683    1.415   .     S
C450   H687    1.107   .     S
O454   C664    1.400   .     S
O454   C689    1.415   .     S
C455   H457    1.114   .     S
C455   H456    1.106   .     S
H458   C689    1.100   .     S
O459   C460    1.390   .     S
C460   H461    1.112   .     S
C460   H463    1.108   .     S
C460   H462    1.100   .     S
O464   C465    1.390   .     S
C465   H467    1.105   .     S
C465   H466    1.106   .     S
C465   H468    1.109   .     S
O469   Zn481   1.984   .     S
O469   C551    1.279   .     S
O470   Zn482   1.984   .     S
O470   C630    1.283   1_455 S
O471   Zn482   2.005   .     S
O471   C473    1.295   .     A
O472   Zn481   2.005   .     S
O472   C474    1.295   .     A
C473   C507    1.423   .     S
C473   O625    1.279   1_455 S
C474   C508    1.432   .     S
C474   O548    1.283   .     S
O475   Zn481   1.962   .     S
O475   C557    1.304   .     S
O476   Zn482   1.962   .     S
O476   C636    1.303   1_455 S
O477   Zn482   1.892   .     S
O477   C479    1.305   .     A
O478   C480    1.300   .     A
O478   Zn481   1.892   .     S
C479   C483    1.486   .     S
C479   O631    1.304   1_455 S
C480   C484    1.473   .     S
C480   O554    1.303   .     S
Zn481  N510    2.023   .     S
Zn482  N509    2.023   .     S
C483   C487    1.410   .     A
C483   C489    1.414   .     A
C484   C488    1.416   .     A
C484   C490    1.413   .     A
C485   C493    1.387   .     A
C485   C487    1.396   .     A
C485   H503    1.085   .     S
C486   C494    1.386   .     A
C486   C488    1.405   .     A
C486   H504    1.082   .     S
C487   O678    1.379   1_455 S
C488   O595    1.392   .     S
C489   C491    1.430   .     A
C489   N514    1.438   .     S
C490   N511    1.454   .     S
C490   C492    1.427   .     A
C491   C495    1.422   .     A
C491   C493    1.418   .     A
C492   C494    1.417   .     A
C492   C496    1.422   .     A
C493   C1201   1.395   .     S
C494   C1202   1.393   1_554 S
C495   C498    1.405   .     A
C495   C1198   1.423   .     S
C496   C497    1.406   .     A
C496   C1197   1.423   1_554 S
C497   C499    1.383   .     A
C497   H505    1.080   .     S
C498   H506    1.078   .     S
C498   C500    1.379   .     A
C499   H501    1.084   .     S
C499   C1195   1.395   1_554 S
C500   H502    1.085   .     S
C500   C1196   1.393   .     S
C507   C196    1.364   1_465 S
C507   O59     1.391   1_565 S
N509   N510    1.293   .     D
N509   O537    1.340   .     S
N510   O542    1.341   .     S
N511   O512    1.300   .     A
N511   O513    1.300   .     A
N514   O516    1.302   .     A
N514   O515    1.300   .     A
O517   C518    1.417   .     S
O517   C644    1.392   1_455 S
C518   H520    1.111   .     S
C518   H521    1.105   .     S
C518   H519    1.111   .     S
O522   C523    1.416   .     S
O522   C565    1.379   .     S
C523   H524    1.107   .     S
C523   H525    1.101   .     S
C523   H526    1.110   .     S
C528   H530    1.109   .     S
C528   H529    1.111   .     S
C528   O59     1.415   1_565 S
C528   H63     1.107   1_565 S
O532   C40     1.400   1_565 S
O532   C65     1.415   1_565 S
C533   H535    1.114   .     S
C533   H534    1.106   .     S
H536   C65     1.100   1_565 S
O537   C538    1.390   .     S
C538   H539    1.112   .     S
C538   H541    1.108   .     S
C538   H540    1.100   .     S
O542   C543    1.390   .     S
C543   H545    1.105   .     S
C543   H544    1.106   .     S
C543   H546    1.109   .     S
O547   Zn559   1.984   .     S
O547   C629    1.279   .     S
O548   Zn560   1.984   .     S
O549   Zn560   2.005   .     S
O549   C551    1.295   .     A
O550   Zn559   2.005   .     S
O550   C552    1.295   .     A
C551   C585    1.423   .     S
C552   C586    1.432   .     S
C552   O626    1.283   .     S
O553   Zn559   1.962   .     S
O553   C635    1.304   .     S
O554   Zn560   1.962   .     S
O555   Zn560   1.892   .     S
O555   C557    1.305   .     A
O556   C558    1.300   .     A
O556   Zn559   1.892   .     S
C557   C561    1.486   .     S
C558   C562    1.473   .     S
C558   O632    1.303   .     S
Zn559  N588    2.023   .     S
Zn560  N587    2.023   .     S
C561   C565    1.410   .     A
C561   C567    1.414   .     A
C562   C566    1.416   .     A
C562   C568    1.413   .     A
C563   C571    1.387   .     A
C563   C565    1.396   .     A
C563   H581    1.085   .     S
C564   C572    1.386   .     A
C564   C566    1.405   .     A
C564   H582    1.082   .     S
C566   O673    1.392   .     S
C567   C569    1.430   .     A
C567   N592    1.438   .     S
C568   N589    1.454   .     S
C568   C570    1.427   .     A
C569   C573    1.422   .     A
C569   C571    1.418   .     A
C570   C572    1.417   .     A
C570   C574    1.422   .     A
C571   C1279   1.395   .     S
C572   C1280   1.393   1_554 S
C573   C576    1.405   .     A
C573   C1276   1.423   .     S
C574   C575    1.406   .     A
C574   C1275   1.423   1_554 S
C575   C577    1.383   .     A
C575   H583    1.080   .     S
C576   H584    1.078   .     S
C576   C578    1.379   .     A
C577   H579    1.084   .     S
C577   C1273   1.395   1_554 S
C578   H580    1.085   .     S
C578   C1274   1.393   .     S
C585   C40     1.364   1_565 S
C585   O137    1.391   1_565 S
N587   N588    1.293   .     D
N587   O615    1.340   .     S
N588   O620    1.341   .     S
N589   O590    1.300   .     A
N589   O591    1.300   .     A
N592   O594    1.302   .     A
N592   O593    1.300   .     A
O595   C596    1.417   .     S
C596   H598    1.111   .     S
C596   H599    1.105   .     S
C596   H597    1.111   .     S
O600   C601    1.416   .     S
O600   C643    1.379   .     S
C601   H602    1.107   .     S
C601   H603    1.101   .     S
C601   H604    1.110   .     S
C606   H608    1.109   .     S
C606   H607    1.111   .     S
C606   O137    1.415   1_565 S
C606   H141    1.107   1_565 S
O610   C118    1.400   1_565 S
O610   C143    1.415   1_565 S
C611   H613    1.114   .     S
C611   H612    1.106   .     S
H614   C143    1.100   1_565 S
O615   C616    1.390   .     S
C616   H617    1.112   .     S
C616   H619    1.108   .     S
C616   H618    1.100   .     S
O620   C621    1.390   .     S
C621   H623    1.105   .     S
C621   H622    1.106   .     S
C621   H624    1.109   .     S
O625   Zn637   1.984   .     S
O625   C473    1.279   1_655 S
O626   Zn638   1.984   .     S
O627   Zn638   2.005   .     S
O627   C629    1.295   .     A
O628   Zn637   2.005   .     S
O628   C630    1.295   .     A
C629   C663    1.423   .     S
C630   C664    1.432   .     S
C630   O470    1.283   1_655 S
O631   Zn637   1.962   .     S
O631   C479    1.304   1_655 S
O632   Zn638   1.962   .     S
O633   Zn638   1.892   .     S
O633   C635    1.305   .     A
O634   C636    1.300   .     A
O634   Zn637   1.892   .     S
C635   C639    1.486   .     S
C636   C640    1.473   .     S
C636   O476    1.303   1_655 S
Zn637  N666    2.023   .     S
Zn638  N665    2.023   .     S
C639   C643    1.410   .     A
C639   C645    1.414   .     A
C640   C644    1.416   .     A
C640   C646    1.413   .     A
C641   C649    1.387   .     A
C641   C643    1.396   .     A
C641   H659    1.085   .     S
C642   C650    1.386   .     A
C642   C644    1.405   .     A
C642   H660    1.082   .     S
C644   O517    1.392   1_655 S
C645   C647    1.430   .     A
C645   N670    1.438   .     S
C646   N667    1.454   .     S
C646   C648    1.427   .     A
C647   C651    1.422   .     A
C647   C649    1.418   .     A
C648   C650    1.417   .     A
C648   C652    1.422   .     A
C649   C1357   1.395   .     S
C650   C1358   1.393   1_554 S
C651   C654    1.405   .     A
C651   C1354   1.423   .     S
C652   C653    1.406   .     A
C652   C1353   1.423   1_554 S
C653   C655    1.383   .     A
C653   H661    1.080   .     S
C654   H662    1.078   .     S
C654   C656    1.379   .     A
C655   H657    1.084   .     S
C655   C1351   1.395   1_554 S
C656   H658    1.085   .     S
C656   C1352   1.393   .     S
C663   C118    1.364   1_565 S
C663   O215    1.391   1_565 S
C664   C273    1.364   1_655 S
N665   N666    1.293   .     D
N665   O693    1.340   .     S
N666   O698    1.341   .     S
N667   O668    1.300   .     A
N667   O669    1.300   .     A
N670   O672    1.302   .     A
N670   O671    1.300   .     A
O673   C674    1.417   .     S
C674   H676    1.111   .     S
C674   H677    1.105   .     S
C674   H675    1.111   .     S
O678   C679    1.416   .     S
O678   C487    1.379   1_655 S
C679   H680    1.107   .     S
C679   H681    1.101   .     S
C679   H682    1.110   .     S
C684   H686    1.109   .     S
C684   H685    1.111   .     S
C684   O215    1.415   1_565 S
C684   H219    1.107   1_565 S
O688   C196    1.400   1_565 S
O688   C221    1.415   1_565 S
C689   H691    1.114   .     S
C689   H690    1.106   .     S
H692   C221    1.100   1_565 S
O693   C694    1.390   .     S
C694   H695    1.112   .     S
C694   H697    1.108   .     S
C694   H696    1.100   .     S
O698   C699    1.390   .     S
C699   H701    1.105   .     S
C699   H700    1.106   .     S
C699   H702    1.109   .     S
O703   Zn715   1.984   .     S
O703   C785    1.279   .     S
O704   Zn716   1.984   .     S
O704   C864    1.283   1_455 S
O705   Zn716   2.005   .     S
O705   C707    1.295   .     A
O706   Zn715   2.005   .     S
O706   C708    1.295   .     A
C707   C741    1.423   .     S
C707   O859    1.279   1_455 S
C708   C742    1.432   .     S
C708   O782    1.283   .     S
O709   Zn715   1.962   .     S
O709   C791    1.304   .     S
O710   Zn716   1.962   .     S
O710   C870    1.303   1_455 S
O711   Zn716   1.892   .     S
O711   C713    1.305   .     A
O712   C714    1.300   .     A
O712   Zn715   1.892   .     S
C713   C717    1.486   .     S
C713   O865    1.304   1_455 S
C714   C718    1.473   .     S
C714   O788    1.303   .     S
Zn715  N744    2.023   .     S
Zn716  N743    2.023   .     S
C717   C721    1.410   .     A
C717   C723    1.414   .     A
C718   C722    1.416   .     A
C718   C724    1.413   .     A
C719   C727    1.387   .     A
C719   C721    1.396   .     A
C719   H737    1.085   .     S
C720   C728    1.386   .     A
C720   C722    1.405   .     A
C720   H738    1.082   .     S
C721   O912    1.379   1_455 S
C722   O829    1.392   .     S
C723   C725    1.430   .     A
C723   N748    1.438   .     S
C724   N745    1.454   .     S
C724   C726    1.427   .     A
C725   C729    1.422   .     A
C725   C727    1.418   .     A
C726   C728    1.417   .     A
C726   C730    1.422   .     A
C727   C31     1.395   1_556 S
C729   C732    1.405   .     A
C729   C28     1.423   1_556 S
C730   C731    1.406   .     A
C731   C733    1.383   .     A
C731   H739    1.080   .     S
C732   H740    1.078   .     S
C732   C734    1.379   .     A
C733   H735    1.084   .     S
C734   H736    1.085   .     S
C734   C26     1.393   1_556 S
C741   C1132   1.364   1_455 S
C741   O995    1.391   .     S
C742   C1287   1.364   1_545 S
C742   O1234   1.400   1_545 S
N743   N744    1.293   .     D
N743   O771    1.340   .     S
N744   O776    1.341   .     S
N745   O746    1.300   .     A
N745   O747    1.300   .     A
N748   O750    1.302   .     A
N748   O749    1.300   .     A
O751   C752    1.417   .     S
O751   C878    1.392   1_455 S
C752   H754    1.111   .     S
C752   H755    1.105   .     S
C752   H753    1.111   .     S
O756   C757    1.416   .     S
O756   C799    1.379   .     S
C757   H758    1.107   .     S
C757   H759    1.101   .     S
C757   H760    1.110   .     S
O761   C1209   1.391   1_545 S
O761   C1230   1.415   1_545 S
C762   H764    1.109   .     S
C762   H763    1.111   .     S
C762   O995    1.415   .     S
C762   H999    1.107   .     S
H765   C1230   1.107   1_545 S
O766   C976    1.400   .     S
O766   C1001   1.415   .     S
C767   H769    1.114   .     S
C767   H768    1.106   .     S
C767   O1234   1.415   1_545 S
C767   H1238   1.100   1_545 S
H770   C1001   1.100   .     S
O771   C772    1.390   .     S
C772   H773    1.112   .     S
C772   H775    1.108   .     S
C772   H774    1.100   .     S
O776   C777    1.390   .     S
C777   H779    1.105   .     S
C777   H778    1.106   .     S
C777   H780    1.109   .     S
O781   Zn793   1.984   .     S
O781   C863    1.279   .     S
O782   Zn794   1.984   .     S
O783   Zn794   2.005   .     S
O783   C785    1.295   .     A
O784   Zn793   2.005   .     S
O784   C786    1.295   .     A
C785   C819    1.423   .     S
C786   C820    1.432   .     S
C786   O860    1.283   .     S
O787   Zn793   1.962   .     S
O787   C869    1.304   .     S
O788   Zn794   1.962   .     S
O789   Zn794   1.892   .     S
O789   C791    1.305   .     A
O790   C792    1.300   .     A
O790   Zn793   1.892   .     S
C791   C795    1.486   .     S
C792   C796    1.473   .     S
C792   O866    1.303   .     S
Zn793  N822    2.023   .     S
Zn794  N821    2.023   .     S
C795   C799    1.410   .     A
C795   C801    1.414   .     A
C796   C800    1.416   .     A
C796   C802    1.413   .     A
C797   C805    1.387   .     A
C797   C799    1.396   .     A
C797   H815    1.085   .     S
C798   C806    1.386   .     A
C798   C800    1.405   .     A
C798   H816    1.082   .     S
C800   O907    1.392   .     S
C801   C803    1.430   .     A
C801   N826    1.438   .     S
C802   N823    1.454   .     S
C802   C804    1.427   .     A
C803   C807    1.422   .     A
C803   C805    1.418   .     A
C804   C806    1.417   .     A
C804   C808    1.422   .     A
C805   C109    1.395   1_556 S
C807   C810    1.405   .     A
C807   C106    1.423   1_556 S
C808   C809    1.406   .     A
C809   C811    1.383   .     A
C809   H817    1.080   .     S
C810   H818    1.078   .     S
C810   C812    1.379   .     A
C811   H813    1.084   .     S
C812   H814    1.085   .     S
C812   C104    1.393   1_556 S
C819   C976    1.364   .     S
C819   O1073   1.391   .     S
C820   C1365   1.364   1_545 S
C820   O1312   1.400   1_545 S
N821   N822    1.293   .     D
N821   O849    1.340   .     S
N822   O854    1.341   .     S
N823   O824    1.300   .     A
N823   O825    1.300   .     A
N826   O828    1.302   .     A
N826   O827    1.300   .     A
O829   C830    1.417   .     S
C830   H832    1.111   .     S
C830   H833    1.105   .     S
C830   H831    1.111   .     S
O834   C835    1.416   .     S
O834   C877    1.379   .     S
C835   H836    1.107   .     S
C835   H837    1.101   .     S
C835   H838    1.110   .     S
O839   C1287   1.391   1_545 S
O839   C1308   1.415   1_545 S
C840   H842    1.109   .     S
C840   H841    1.111   .     S
C840   O1073   1.415   .     S
C840   H1077   1.107   .     S
H843   C1308   1.107   1_545 S
O844   C1054   1.400   .     S
O844   C1079   1.415   .     S
C845   H847    1.114   .     S
C845   H846    1.106   .     S
C845   O1312   1.415   1_545 S
C845   H1316   1.100   1_545 S
H848   C1079   1.100   .     S
O849   C850    1.390   .     S
C850   H851    1.112   .     S
C850   H853    1.108   .     S
C850   H852    1.100   .     S
O854   C855    1.390   .     S
C855   H857    1.105   .     S
C855   H856    1.106   .     S
C855   H858    1.109   .     S
O859   Zn871   1.984   .     S
O859   C707    1.279   1_655 S
O860   Zn872   1.984   .     S
O861   Zn872   2.005   .     S
O861   C863    1.295   .     A
O862   Zn871   2.005   .     S
O862   C864    1.295   .     A
C863   C897    1.423   .     S
C864   C898    1.432   .     S
C864   O704    1.283   1_655 S
O865   Zn871   1.962   .     S
O865   C713    1.304   1_655 S
O866   Zn872   1.962   .     S
O867   Zn872   1.892   .     S
O867   C869    1.305   .     A
O868   C870    1.300   .     A
O868   Zn871   1.892   .     S
C869   C873    1.486   .     S
C870   C874    1.473   .     S
C870   O710    1.303   1_655 S
Zn871  N900    2.023   .     S
Zn872  N899    2.023   .     S
C873   C877    1.410   .     A
C873   C879    1.414   .     A
C874   C878    1.416   .     A
C874   C880    1.413   .     A
C875   C883    1.387   .     A
C875   C877    1.396   .     A
C875   H893    1.085   .     S
C876   C884    1.386   .     A
C876   C878    1.405   .     A
C876   H894    1.082   .     S
C878   O751    1.392   1_655 S
C879   C881    1.430   .     A
C879   N904    1.438   .     S
C880   N901    1.454   .     S
C880   C882    1.427   .     A
C881   C885    1.422   .     A
C881   C883    1.418   .     A
C882   C884    1.417   .     A
C882   C886    1.422   .     A
C883   C187    1.395   1_556 S
C885   C888    1.405   .     A
C885   C184    1.423   1_556 S
C886   C887    1.406   .     A
C887   C889    1.383   .     A
C887   H895    1.080   .     S
C888   H896    1.078   .     S
C888   C890    1.379   .     A
C889   H891    1.084   .     S
C890   H892    1.085   .     S
C890   C182    1.393   1_556 S
C897   C1054   1.364   .     S
C897   O1151   1.391   .     S
C898   C1209   1.364   1_645 S
C898   O1390   1.400   1_545 S
N899   N900    1.293   .     D
N899   O927    1.340   .     S
N900   O932    1.341   .     S
N901   O902    1.300   .     A
N901   O903    1.300   .     A
N904   O906    1.302   .     A
N904   O905    1.300   .     A
O907   C908    1.417   .     S
C908   H910    1.111   .     S
C908   H911    1.105   .     S
C908   H909    1.111   .     S
O912   C913    1.416   .     S
O912   C721    1.379   1_655 S
C913   H914    1.107   .     S
C913   H915    1.101   .     S
C913   H916    1.110   .     S
O917   C1365   1.391   1_545 S
O917   C1386   1.415   1_545 S
C918   H920    1.109   .     S
C918   H919    1.111   .     S
C918   O1151   1.415   .     S
C918   H1155   1.107   .     S
H921   C1386   1.107   1_545 S
O922   C1132   1.400   .     S
O922   C1157   1.415   .     S
C923   H925    1.114   .     S
C923   H924    1.106   .     S
C923   O1390   1.415   1_545 S
C923   H1394   1.100   1_545 S
H926   C1157   1.100   .     S
O927   C928    1.390   .     S
C928   H929    1.112   .     S
C928   H931    1.108   .     S
C928   H930    1.100   .     S
O932   C933    1.390   .     S
C933   H935    1.105   .     S
C933   H934    1.106   .     S
C933   H936    1.109   .     S
O937   Zn949   1.984   .     S
O937   C1019   1.279   .     S
O938   Zn950   1.984   .     S
O938   C1098   1.283   1_455 S
O939   Zn950   2.005   .     S
O939   C941    1.295   .     A
O940   Zn949   2.005   .     S
O940   C942    1.295   .     A
C941   C975    1.423   .     S
C941   O1093   1.279   1_455 S
C942   C976    1.432   .     S
C942   O1016   1.283   .     S
O943   Zn949   1.962   .     S
O943   C1025   1.304   .     S
O944   Zn950   1.962   .     S
O944   C1104   1.303   1_455 S
O945   Zn950   1.892   .     S
O945   C947    1.305   .     A
O946   C948    1.300   .     A
O946   Zn949   1.892   .     S
C947   C951    1.486   .     S
C947   O1099   1.304   1_455 S
C948   C952    1.473   .     S
C948   O1022   1.303   .     S
Zn949  N978    2.023   .     S
Zn950  N977    2.023   .     S
C951   C955    1.410   .     A
C951   C957    1.414   .     A
C952   C956    1.416   .     A
C952   C958    1.413   .     A
C953   C961    1.387   .     A
C953   C955    1.396   .     A
C953   H971    1.085   .     S
C954   C962    1.386   .     A
C954   C956    1.405   .     A
C954   H972    1.082   .     S
C955   O1146   1.379   1_455 S
C956   O1063   1.392   .     S
C957   C959    1.430   .     A
C957   N982    1.438   .     S
C958   N979    1.454   .     S
C958   C960    1.427   .     A
C959   C963    1.422   .     A
C959   C961    1.418   .     A
C960   C962    1.417   .     A
C960   C964    1.422   .     A
C961   C265    1.395   1_556 S
C963   C966    1.405   .     A
C963   C262    1.423   1_556 S
C964   C965    1.406   .     A
C965   C967    1.383   .     A
C965   H973    1.080   .     S
C966   H974    1.078   .     S
C966   C968    1.379   .     A
C967   H969    1.084   .     S
C968   H970    1.085   .     S
C968   C260    1.393   1_556 S
C975   C1366   1.364   1_455 S
C975   O1229   1.391   .     S
N977   N978    1.293   .     D
N977   O1005   1.340   .     S
N978   O1010   1.341   .     S
N979   O980    1.300   .     A
N979   O981    1.300   .     A
N982   O984    1.302   .     A
N982   O983    1.300   .     A
O985   C986    1.417   .     S
O985   C1112   1.392   1_455 S
C986   H988    1.111   .     S
C986   H989    1.105   .     S
C986   H987    1.111   .     S
O990   C991    1.416   .     S
O990   C1033   1.379   .     S
C991   H992    1.107   .     S
C991   H993    1.101   .     S
C991   H994    1.110   .     S
C996   H998    1.109   .     S
C996   H997    1.111   .     S
C996   O1229   1.415   .     S
C996   H1233   1.107   .     S
O1000  C1210   1.400   .     S
O1000  C1235   1.415   .     S
C1001  H1003   1.114   .     S
C1001  H1002   1.106   .     S
H1004  C1235   1.100   .     S
O1005  C1006   1.390   .     S
C1006  H1007   1.112   .     S
C1006  H1009   1.108   .     S
C1006  H1008   1.100   .     S
O1010  C1011   1.390   .     S
C1011  H1013   1.105   .     S
C1011  H1012   1.106   .     S
C1011  H1014   1.109   .     S
O1015  Zn1027  1.984   .     S
O1015  C1097   1.279   .     S
O1016  Zn1028  1.984   .     S
O1017  Zn1028  2.005   .     S
O1017  C1019   1.295   .     A
O1018  Zn1027  2.005   .     S
O1018  C1020   1.295   .     A
C1019  C1053   1.423   .     S
C1020  C1054   1.432   .     S
C1020  O1094   1.283   .     S
O1021  Zn1027  1.962   .     S
O1021  C1103   1.304   .     S
O1022  Zn1028  1.962   .     S
O1023  Zn1028  1.892   .     S
O1023  C1025   1.305   .     A
O1024  C1026   1.300   .     A
O1024  Zn1027  1.892   .     S
C1025  C1029   1.486   .     S
C1026  C1030   1.473   .     S
C1026  O1100   1.303   .     S
Zn1027 N1056   2.023   .     S
Zn1028 N1055   2.023   .     S
C1029  C1033   1.410   .     A
C1029  C1035   1.414   .     A
C1030  C1034   1.416   .     A
C1030  C1036   1.413   .     A
C1031  C1039   1.387   .     A
C1031  C1033   1.396   .     A
C1031  H1049   1.085   .     S
C1032  C1040   1.386   .     A
C1032  C1034   1.405   .     A
C1032  H1050   1.082   .     S
C1034  O1141   1.392   .     S
C1035  C1037   1.430   .     A
C1035  N1060   1.438   .     S
C1036  N1057   1.454   .     S
C1036  C1038   1.427   .     A
C1037  C1041   1.422   .     A
C1037  C1039   1.418   .     A
C1038  C1040   1.417   .     A
C1038  C1042   1.422   .     A
C1039  C343    1.395   1_556 S
C1041  C1044   1.405   .     A
C1041  C340    1.423   1_556 S
C1042  C1043   1.406   .     A
C1043  C1045   1.383   .     A
C1043  H1051   1.080   .     S
C1044  H1052   1.078   .     S
C1044  C1046   1.379   .     A
C1045  H1047   1.084   .     S
C1046  H1048   1.085   .     S
C1046  C338    1.393   1_556 S
C1053  C1210   1.364   .     S
C1053  O1307   1.391   .     S
N1055  N1056   1.293   .     D
N1055  O1083   1.340   .     S
N1056  O1088   1.341   .     S
N1057  O1058   1.300   .     A
N1057  O1059   1.300   .     A
N1060  O1062   1.302   .     A
N1060  O1061   1.300   .     A
O1063  C1064   1.417   .     S
C1064  H1066   1.111   .     S
C1064  H1067   1.105   .     S
C1064  H1065   1.111   .     S
O1068  C1069   1.416   .     S
O1068  C1111   1.379   .     S
C1069  H1070   1.107   .     S
C1069  H1071   1.101   .     S
C1069  H1072   1.110   .     S
C1074  H1076   1.109   .     S
C1074  H1075   1.111   .     S
C1074  O1307   1.415   .     S
C1074  H1311   1.107   .     S
O1078  C1288   1.400   .     S
O1078  C1313   1.415   .     S
C1079  H1081   1.114   .     S
C1079  H1080   1.106   .     S
H1082  C1313   1.100   .     S
O1083  C1084   1.390   .     S
C1084  H1085   1.112   .     S
C1084  H1087   1.108   .     S
C1084  H1086   1.100   .     S
O1088  C1089   1.390   .     S
C1089  H1091   1.105   .     S
C1089  H1090   1.106   .     S
C1089  H1092   1.109   .     S
O1093  Zn1105  1.984   .     S
O1093  C941    1.279   1_655 S
O1094  Zn1106  1.984   .     S
O1095  Zn1106  2.005   .     S
O1095  C1097   1.295   .     A
O1096  Zn1105  2.005   .     S
O1096  C1098   1.295   .     A
C1097  C1131   1.423   .     S
C1098  C1132   1.432   .     S
C1098  O938    1.283   1_655 S
O1099  Zn1105  1.962   .     S
O1099  C947    1.304   1_655 S
O1100  Zn1106  1.962   .     S
O1101  Zn1106  1.892   .     S
O1101  C1103   1.305   .     A
O1102  C1104   1.300   .     A
O1102  Zn1105  1.892   .     S
C1103  C1107   1.486   .     S
C1104  C1108   1.473   .     S
C1104  O944    1.303   1_655 S
Zn1105 N1134   2.023   .     S
Zn1106 N1133   2.023   .     S
C1107  C1111   1.410   .     A
C1107  C1113   1.414   .     A
C1108  C1112   1.416   .     A
C1108  C1114   1.413   .     A
C1109  C1117   1.387   .     A
C1109  C1111   1.396   .     A
C1109  H1127   1.085   .     S
C1110  C1118   1.386   .     A
C1110  C1112   1.405   .     A
C1110  H1128   1.082   .     S
C1112  O985    1.392   1_655 S
C1113  C1115   1.430   .     A
C1113  N1138   1.438   .     S
C1114  N1135   1.454   .     S
C1114  C1116   1.427   .     A
C1115  C1119   1.422   .     A
C1115  C1117   1.418   .     A
C1116  C1118   1.417   .     A
C1116  C1120   1.422   .     A
C1117  C421    1.395   1_556 S
C1119  C1122   1.405   .     A
C1119  C418    1.423   1_556 S
C1120  C1121   1.406   .     A
C1121  C1123   1.383   .     A
C1121  H1129   1.080   .     S
C1122  H1130   1.078   .     S
C1122  C1124   1.379   .     A
C1123  H1125   1.084   .     S
C1124  H1126   1.085   .     S
C1124  C416    1.393   1_556 S
C1131  C1288   1.364   .     S
C1131  O1385   1.391   .     S
C1132  C741    1.364   1_655 S
N1133  N1134   1.293   .     D
N1133  O1161   1.340   .     S
N1134  O1166   1.341   .     S
N1135  O1136   1.300   .     A
N1135  O1137   1.300   .     A
N1138  O1140   1.302   .     A
N1138  O1139   1.300   .     A
O1141  C1142   1.417   .     S
C1142  H1144   1.111   .     S
C1142  H1145   1.105   .     S
C1142  H1143   1.111   .     S
O1146  C1147   1.416   .     S
O1146  C955    1.379   1_655 S
C1147  H1148   1.107   .     S
C1147  H1149   1.101   .     S
C1147  H1150   1.110   .     S
C1152  H1154   1.109   .     S
C1152  H1153   1.111   .     S
C1152  O1385   1.415   .     S
C1152  H1389   1.107   .     S
O1156  C1366   1.400   .     S
O1156  C1391   1.415   .     S
C1157  H1159   1.114   .     S
C1157  H1158   1.106   .     S
H1160  C1391   1.100   .     S
O1161  C1162   1.390   .     S
C1162  H1163   1.112   .     S
C1162  H1165   1.108   .     S
C1162  H1164   1.100   .     S
O1166  C1167   1.390   .     S
C1167  H1169   1.105   .     S
C1167  H1168   1.106   .     S
C1167  H1170   1.109   .     S
O1171  Zn1183  1.984   .     S
O1171  C1253   1.279   .     S
O1172  Zn1184  1.984   .     S
O1172  C1332   1.283   1_455 S
O1173  Zn1184  2.005   .     S
O1173  C1175   1.295   .     A
O1174  Zn1183  2.005   .     S
O1174  C1176   1.295   .     A
C1175  C1209   1.423   .     S
C1175  O1327   1.279   1_455 S
C1176  C1210   1.432   .     S
C1176  O1250   1.283   .     S
O1177  Zn1183  1.962   .     S
O1177  C1259   1.304   .     S
O1178  Zn1184  1.962   .     S
O1178  C1338   1.303   1_455 S
O1179  Zn1184  1.892   .     S
O1179  C1181   1.305   .     A
O1180  C1182   1.300   .     A
O1180  Zn1183  1.892   .     S
C1181  C1185   1.486   .     S
C1181  O1333   1.304   1_455 S
C1182  C1186   1.473   .     S
C1182  O1256   1.303   .     S
Zn1183 N1212   2.023   .     S
Zn1184 N1211   2.023   .     S
C1185  C1189   1.410   .     A
C1185  C1191   1.414   .     A
C1186  C1190   1.416   .     A
C1186  C1192   1.413   .     A
C1187  C1195   1.387   .     A
C1187  C1189   1.396   .     A
C1187  H1205   1.085   .     S
C1188  C1196   1.386   .     A
C1188  C1190   1.405   .     A
C1188  H1206   1.082   .     S
C1189  O1380   1.379   1_455 S
C1190  O1297   1.392   .     S
C1191  C1193   1.430   .     A
C1191  N1216   1.438   .     S
C1192  N1213   1.454   .     S
C1192  C1194   1.427   .     A
C1193  C1197   1.422   .     A
C1193  C1195   1.418   .     A
C1194  C1196   1.417   .     A
C1194  C1198   1.422   .     A
C1195  C499    1.395   1_556 S
C1197  C1200   1.405   .     A
C1197  C496    1.423   1_556 S
C1198  C1199   1.406   .     A
C1199  C1201   1.383   .     A
C1199  H1207   1.080   .     S
C1200  H1208   1.078   .     S
C1200  C1202   1.379   .     A
C1201  H1203   1.084   .     S
C1202  H1204   1.085   .     S
C1202  C494    1.393   1_556 S
C1209  C898    1.364   1_465 S
C1209  O761    1.391   1_565 S
N1211  N1212   1.293   .     D
N1211  O1239   1.340   .     S
N1212  O1244   1.341   .     S
N1213  O1214   1.300   .     A
N1213  O1215   1.300   .     A
N1216  O1218   1.302   .     A
N1216  O1217   1.300   .     A
O1219  C1220   1.417   .     S
O1219  C1346   1.392   1_455 S
C1220  H1222   1.111   .     S
C1220  H1223   1.105   .     S
C1220  H1221   1.111   .     S
O1224  C1225   1.416   .     S
O1224  C1267   1.379   .     S
C1225  H1226   1.107   .     S
C1225  H1227   1.101   .     S
C1225  H1228   1.110   .     S
C1230  H1232   1.109   .     S
C1230  H1231   1.111   .     S
C1230  O761    1.415   1_565 S
C1230  H765    1.107   1_565 S
O1234  C742    1.400   1_565 S
O1234  C767    1.415   1_565 S
C1235  H1237   1.114   .     S
C1235  H1236   1.106   .     S
H1238  C767    1.100   1_565 S
O1239  C1240   1.390   .     S
C1240  H1241   1.112   .     S
C1240  H1243   1.108   .     S
C1240  H1242   1.100   .     S
O1244  C1245   1.390   .     S
C1245  H1247   1.105   .     S
C1245  H1246   1.106   .     S
C1245  H1248   1.109   .     S
O1249  Zn1261  1.984   .     S
O1249  C1331   1.279   .     S
O1250  Zn1262  1.984   .     S
O1251  Zn1262  2.005   .     S
O1251  C1253   1.295   .     A
O1252  Zn1261  2.005   .     S
O1252  C1254   1.295   .     A
C1253  C1287   1.423   .     S
C1254  C1288   1.432   .     S
C1254  O1328   1.283   .     S
O1255  Zn1261  1.962   .     S
O1255  C1337   1.304   .     S
O1256  Zn1262  1.962   .     S
O1257  Zn1262  1.892   .     S
O1257  C1259   1.305   .     A
O1258  C1260   1.300   .     A
O1258  Zn1261  1.892   .     S
C1259  C1263   1.486   .     S
C1260  C1264   1.473   .     S
C1260  O1334   1.303   .     S
Zn1261 N1290   2.023   .     S
Zn1262 N1289   2.023   .     S
C1263  C1267   1.410   .     A
C1263  C1269   1.414   .     A
C1264  C1268   1.416   .     A
C1264  C1270   1.413   .     A
C1265  C1273   1.387   .     A
C1265  C1267   1.396   .     A
C1265  H1283   1.085   .     S
C1266  C1274   1.386   .     A
C1266  C1268   1.405   .     A
C1266  H1284   1.082   .     S
C1268  O1375   1.392   .     S
C1269  C1271   1.430   .     A
C1269  N1294   1.438   .     S
C1270  N1291   1.454   .     S
C1270  C1272   1.427   .     A
C1271  C1275   1.422   .     A
C1271  C1273   1.418   .     A
C1272  C1274   1.417   .     A
C1272  C1276   1.422   .     A
C1273  C577    1.395   1_556 S
C1275  C1278   1.405   .     A
C1275  C574    1.423   1_556 S
C1276  C1277   1.406   .     A
C1277  C1279   1.383   .     A
C1277  H1285   1.080   .     S
C1278  H1286   1.078   .     S
C1278  C1280   1.379   .     A
C1279  H1281   1.084   .     S
C1280  H1282   1.085   .     S
C1280  C572    1.393   1_556 S
C1287  C742    1.364   1_565 S
C1287  O839    1.391   1_565 S
N1289  N1290   1.293   .     D
N1289  O1317   1.340   .     S
N1290  O1322   1.341   .     S
N1291  O1292   1.300   .     A
N1291  O1293   1.300   .     A
N1294  O1296   1.302   .     A
N1294  O1295   1.300   .     A
O1297  C1298   1.417   .     S
C1298  H1300   1.111   .     S
C1298  H1301   1.105   .     S
C1298  H1299   1.111   .     S
O1302  C1303   1.416   .     S
O1302  C1345   1.379   .     S
C1303  H1304   1.107   .     S
C1303  H1305   1.101   .     S
C1303  H1306   1.110   .     S
C1308  H1310   1.109   .     S
C1308  H1309   1.111   .     S
C1308  O839    1.415   1_565 S
C1308  H843    1.107   1_565 S
O1312  C820    1.400   1_565 S
O1312  C845    1.415   1_565 S
C1313  H1315   1.114   .     S
C1313  H1314   1.106   .     S
H1316  C845    1.100   1_565 S
O1317  C1318   1.390   .     S
C1318  H1319   1.112   .     S
C1318  H1321   1.108   .     S
C1318  H1320   1.100   .     S
O1322  C1323   1.390   .     S
C1323  H1325   1.105   .     S
C1323  H1324   1.106   .     S
C1323  H1326   1.109   .     S
O1327  Zn1339  1.984   .     S
O1327  C1175   1.279   1_655 S
O1328  Zn1340  1.984   .     S
O1329  Zn1340  2.005   .     S
O1329  C1331   1.295   .     A
O1330  Zn1339  2.005   .     S
O1330  C1332   1.295   .     A
C1331  C1365   1.423   .     S
C1332  C1366   1.432   .     S
C1332  O1172   1.283   1_655 S
O1333  Zn1339  1.962   .     S
O1333  C1181   1.304   1_655 S
O1334  Zn1340  1.962   .     S
O1335  Zn1340  1.892   .     S
O1335  C1337   1.305   .     A
O1336  C1338   1.300   .     A
O1336  Zn1339  1.892   .     S
C1337  C1341   1.486   .     S
C1338  C1342   1.473   .     S
C1338  O1178   1.303   1_655 S
Zn1339 N1368   2.023   .     S
Zn1340 N1367   2.023   .     S
C1341  C1345   1.410   .     A
C1341  C1347   1.414   .     A
C1342  C1346   1.416   .     A
C1342  C1348   1.413   .     A
C1343  C1351   1.387   .     A
C1343  C1345   1.396   .     A
C1343  H1361   1.085   .     S
C1344  C1352   1.386   .     A
C1344  C1346   1.405   .     A
C1344  H1362   1.082   .     S
C1346  O1219   1.392   1_655 S
C1347  C1349   1.430   .     A
C1347  N1372   1.438   .     S
C1348  N1369   1.454   .     S
C1348  C1350   1.427   .     A
C1349  C1353   1.422   .     A
C1349  C1351   1.418   .     A
C1350  C1352   1.417   .     A
C1350  C1354   1.422   .     A
C1351  C655    1.395   1_556 S
C1353  C1356   1.405   .     A
C1353  C652    1.423   1_556 S
C1354  C1355   1.406   .     A
C1355  C1357   1.383   .     A
C1355  H1363   1.080   .     S
C1356  H1364   1.078   .     S
C1356  C1358   1.379   .     A
C1357  H1359   1.084   .     S
C1358  H1360   1.085   .     S
C1358  C650    1.393   1_556 S
C1365  C820    1.364   1_565 S
C1365  O917    1.391   1_565 S
C1366  C975    1.364   1_655 S
N1367  N1368   1.293   .     D
N1367  O1395   1.340   .     S
N1368  O1400   1.341   .     S
N1369  O1370   1.300   .     A
N1369  O1371   1.300   .     A
N1372  O1374   1.302   .     A
N1372  O1373   1.300   .     A
O1375  C1376   1.417   .     S
C1376  H1378   1.111   .     S
C1376  H1379   1.105   .     S
C1376  H1377   1.111   .     S
O1380  C1381   1.416   .     S
O1380  C1189   1.379   1_655 S
C1381  H1382   1.107   .     S
C1381  H1383   1.101   .     S
C1381  H1384   1.110   .     S
C1386  H1388   1.109   .     S
C1386  H1387   1.111   .     S
C1386  O917    1.415   1_565 S
C1386  H921    1.107   1_565 S
O1390  C898    1.400   1_565 S
O1390  C923    1.415   1_565 S
C1391  H1393   1.114   .     S
C1391  H1392   1.106   .     S
H1394  C923    1.100   1_565 S
O1395  C1396   1.390   .     S
C1396  H1397   1.112   .     S
C1396  H1399   1.108   .     S
C1396  H1398   1.100   .     S
O1400  C1401   1.390   .     S
C1401  H1403   1.105   .     S
C1401  H1402   1.106   .     S
C1401  H1404   1.109   .     S
