data_str_m3_o1_o2_pcu_sym.70
_audit_creation_date              2020-01-03
_audit_creation_method            'Materials Studio'
_symmetry_space_group_name_H-M    'P1'
_symmetry_Int_Tables_number       1
_symmetry_cell_setting            triclinic
loop_
_symmetry_equiv_pos_as_xyz
  x,y,z
_cell_length_a                    32.4479
_cell_length_b                    29.4249
_cell_length_c                    29.9393
_cell_angle_alpha                 89.8784
_cell_angle_beta                  89.9608
_cell_angle_gamma                 89.8525
loop_
_atom_site_label
_atom_site_type_symbol
_atom_site_fract_x
_atom_site_fract_y
_atom_site_fract_z
_atom_site_U_iso_or_equiv
_atom_site_adp_type
_atom_site_occupancy
C1     C     0.08647   0.16673   0.24985   0.00000  Uiso   1.00
C2     C     0.31218   0.20655   0.23788   0.00000  Uiso   1.00
C3     C     0.31258   0.12672   0.26100   0.00000  Uiso   1.00
C4     C     0.01997   0.20855   0.24960   0.00000  Uiso   1.00
C5     C     0.16764   0.20611   0.04586   0.00000  Uiso   1.00
C6     C     0.16880   0.12759   0.45418   0.00000  Uiso   1.00
C7     C     0.14037   0.20414   0.45134   0.00000  Uiso   1.00
C8     C     0.14102   0.12894   0.04858   0.00000  Uiso   1.00
C9     C     0.17168   0.20601   0.09175   0.00000  Uiso   1.00
C10    C     0.17292   0.12771   0.40829   0.00000  Uiso   1.00
C11    C     0.14518   0.20456   0.40549   0.00000  Uiso   1.00
C12    C     0.24669   0.16662   0.24994   0.00000  Uiso   1.00
C13    C     0.14576   0.12854   0.09442   0.00000  Uiso   1.00
C14    C     0.16154   0.16691   0.11596   0.00000  Uiso   1.00
C15    C     0.16181   0.16648   0.38402   0.00000  Uiso   1.00
C16    C     0.15271   0.16740   0.02414   0.00000  Uiso   1.00
C17    C     0.15285   0.16596   0.47583   0.00000  Uiso   1.00
C18    C     0.29073   0.16661   0.24963   0.00000  Uiso   1.00
C19    C     0.04211   0.16683   0.24951   0.00000  Uiso   1.00
C20    C     0.16584   0.16672   0.16381   0.00000  Uiso   1.00
C21    C     0.16595   0.16662   0.33618   0.00000  Uiso   1.00
C22    C     0.17631   0.02388   0.28783   0.00000  Uiso   1.00
C23    C     0.15702   0.30944   0.21217   0.00000  Uiso   1.00
C24    C     0.15703   0.02408   0.21217   0.00000  Uiso   1.00
C25    C     0.17641   0.30923   0.28781   0.00000  Uiso   1.00
C26    C     0.02031   0.12506   0.24911   0.00000  Uiso   1.00
H27    H     0.18418   0.04188   0.31806   0.00000  Uiso   1.00
H28    H     0.18548   0.09794   0.39196   0.00000  Uiso   1.00
H29    H     0.13564   0.23441   0.38688   0.00000  Uiso   1.00
H30    H     0.13687   0.09846   0.11295   0.00000  Uiso   1.00
H31    H     0.05360   0.10186   0.16264   0.00000  Uiso   1.00
H32    H     0.24831   0.25254   0.14772   0.00000  Uiso   1.00
H33    H     0.25154   0.07928   0.35263   0.00000  Uiso   1.00
H34    H     0.08453   0.28180   0.31903   0.00000  Uiso   1.00
H35    H     0.14912   0.29143   0.18195   0.00000  Uiso   1.00
H36    H     0.14922   0.04223   0.18192   0.00000  Uiso   1.00
H37    H     0.18436   0.29105   0.31801   0.00000  Uiso   1.00
H38    H     0.17742   0.23583   0.02730   0.00000  Uiso   1.00
H39    H     0.17925   0.09815   0.47280   0.00000  Uiso   1.00
H40    H     0.12749   0.23374   0.46773   0.00000  Uiso   1.00
H41    H     0.12887   0.09908   0.03213   0.00000  Uiso   1.00
H42    H     0.18343   0.23608   0.10812   0.00000  Uiso   1.00
N43    N     0.16667   0.28573   0.25000   0.00000  Uiso   1.00
N44    N     0.16667   0.04760   0.25000   0.00000  Uiso   1.00
O45    O     0.10559   0.20487   0.24999   0.00000  Uiso   1.00
O46    O     0.00566   0.04225   0.21264   0.00000  Uiso   1.00
O47    O     0.07055   0.08289   0.18295   0.00000  Uiso   1.00
O48    O     0.26798   0.28412   0.23028   0.00000  Uiso   1.00
O49    O     0.32517   0.27371   0.17781   0.00000  Uiso   1.00
O50    O     0.25901   0.22655   0.16533   0.00000  Uiso   1.00
O51    O     0.26947   0.04872   0.26752   0.00000  Uiso   1.00
O52    O     0.32653   0.05894   0.32002   0.00000  Uiso   1.00
O53    O     0.25971   0.10517   0.33341   0.00000  Uiso   1.00
O54    O     0.06392   0.28422   0.23318   0.00000  Uiso   1.00
O55    O     0.00496   0.29227   0.28364   0.00000  Uiso   1.00
O56    O     0.22774   0.12846   0.25000   0.00000  Uiso   1.00
O57    O     0.07008   0.25259   0.31430   0.00000  Uiso   1.00
O58    O     0.22774   0.20487   0.25000   0.00000  Uiso   1.00
O59    O     0.10559   0.12846   0.24999   0.00000  Uiso   1.00
O60    O     0.16666   0.20489   0.18453   0.00000  Uiso   1.00
O61    O     0.16667   0.12845   0.31547   0.00000  Uiso   1.00
O62    O     0.16667   0.20489   0.31547   0.00000  Uiso   1.00
O63    O     0.16666   0.12845   0.18453   0.00000  Uiso   1.00
O64    O     0.06472   0.04878   0.26284   0.00000  Uiso   1.00
S65    S     0.04010   0.07278   0.22737   0.00000  Uiso   1.00
S66    S     0.29121   0.24995   0.20271   0.00000  Uiso   1.00
S67    S     0.29219   0.08269   0.29560   0.00000  Uiso   1.00
S68    S     0.03961   0.26147   0.26963   0.00000  Uiso   1.00
Zn69   Zn    0.16667   0.21771   0.25000   0.00000  Uiso   1.00
Zn70   Zn    0.16667   0.11563   0.25000   0.00000  Uiso   1.00
C71    C     0.41980   0.16673   0.24985   0.00000  Uiso   1.00
C72    C     0.64551   0.20655   0.23788   0.00000  Uiso   1.00
C73    C     0.64591   0.12672   0.26100   0.00000  Uiso   1.00
C74    C     0.35330   0.20855   0.24960   0.00000  Uiso   1.00
C75    C     0.50098   0.20611   0.04586   0.00000  Uiso   1.00
C76    C     0.50213   0.12759   0.45418   0.00000  Uiso   1.00
C77    C     0.47370   0.20414   0.45134   0.00000  Uiso   1.00
C78    C     0.47435   0.12894   0.04858   0.00000  Uiso   1.00
C79    C     0.50501   0.20601   0.09175   0.00000  Uiso   1.00
C80    C     0.50625   0.12771   0.40829   0.00000  Uiso   1.00
C81    C     0.47851   0.20456   0.40549   0.00000  Uiso   1.00
C82    C     0.58002   0.16662   0.24994   0.00000  Uiso   1.00
C83    C     0.47909   0.12854   0.09442   0.00000  Uiso   1.00
C84    C     0.49488   0.16691   0.11596   0.00000  Uiso   1.00
C85    C     0.49515   0.16648   0.38402   0.00000  Uiso   1.00
C86    C     0.48604   0.16740   0.02414   0.00000  Uiso   1.00
C87    C     0.48618   0.16596   0.47583   0.00000  Uiso   1.00
C88    C     0.62407   0.16661   0.24963   0.00000  Uiso   1.00
C89    C     0.37545   0.16683   0.24951   0.00000  Uiso   1.00
C90    C     0.49917   0.16672   0.16381   0.00000  Uiso   1.00
C91    C     0.49929   0.16662   0.33618   0.00000  Uiso   1.00
C92    C     0.50964   0.02388   0.28783   0.00000  Uiso   1.00
C93    C     0.49036   0.30944   0.21217   0.00000  Uiso   1.00
C94    C     0.49036   0.02408   0.21217   0.00000  Uiso   1.00
C95    C     0.50974   0.30923   0.28781   0.00000  Uiso   1.00
C96    C     0.35364   0.12506   0.24911   0.00000  Uiso   1.00
H97    H     0.51751   0.04188   0.31806   0.00000  Uiso   1.00
H98    H     0.51881   0.09794   0.39196   0.00000  Uiso   1.00
H99    H     0.46898   0.23441   0.38688   0.00000  Uiso   1.00
H100   H     0.47021   0.09846   0.11295   0.00000  Uiso   1.00
H101   H     0.38694   0.10186   0.16264   0.00000  Uiso   1.00
H102   H     0.58164   0.25254   0.14772   0.00000  Uiso   1.00
H103   H     0.58488   0.07928   0.35263   0.00000  Uiso   1.00
H104   H     0.41787   0.28180   0.31903   0.00000  Uiso   1.00
H105   H     0.48246   0.29143   0.18195   0.00000  Uiso   1.00
H106   H     0.48255   0.04223   0.18192   0.00000  Uiso   1.00
H107   H     0.51769   0.29105   0.31801   0.00000  Uiso   1.00
H108   H     0.51075   0.23583   0.02730   0.00000  Uiso   1.00
H109   H     0.51259   0.09815   0.47280   0.00000  Uiso   1.00
H110   H     0.46082   0.23374   0.46773   0.00000  Uiso   1.00
H111   H     0.46221   0.09908   0.03213   0.00000  Uiso   1.00
H112   H     0.51677   0.23608   0.10812   0.00000  Uiso   1.00
N113   N     0.50000   0.28573   0.25000   0.00000  Uiso   1.00
N114   N     0.50000   0.04760   0.25000   0.00000  Uiso   1.00
O115   O     0.43892   0.20487   0.24999   0.00000  Uiso   1.00
O116   O     0.33900   0.04225   0.21264   0.00000  Uiso   1.00
O117   O     0.40388   0.08289   0.18295   0.00000  Uiso   1.00
O118   O     0.60131   0.28412   0.23028   0.00000  Uiso   1.00
O119   O     0.65850   0.27371   0.17781   0.00000  Uiso   1.00
O120   O     0.59235   0.22655   0.16533   0.00000  Uiso   1.00
O121   O     0.60280   0.04872   0.26752   0.00000  Uiso   1.00
O122   O     0.65986   0.05894   0.32002   0.00000  Uiso   1.00
O123   O     0.59304   0.10517   0.33341   0.00000  Uiso   1.00
O124   O     0.39725   0.28422   0.23318   0.00000  Uiso   1.00
O125   O     0.33829   0.29227   0.28364   0.00000  Uiso   1.00
O126   O     0.56108   0.12846   0.25000   0.00000  Uiso   1.00
O127   O     0.40342   0.25259   0.31430   0.00000  Uiso   1.00
O128   O     0.56108   0.20487   0.25000   0.00000  Uiso   1.00
O129   O     0.43892   0.12846   0.24999   0.00000  Uiso   1.00
O130   O     0.50000   0.20489   0.18453   0.00000  Uiso   1.00
O131   O     0.50000   0.12845   0.31547   0.00000  Uiso   1.00
O132   O     0.50000   0.20489   0.31547   0.00000  Uiso   1.00
O133   O     0.50000   0.12845   0.18453   0.00000  Uiso   1.00
O134   O     0.39805   0.04878   0.26284   0.00000  Uiso   1.00
S135   S     0.37344   0.07278   0.22737   0.00000  Uiso   1.00
S136   S     0.62455   0.24995   0.20271   0.00000  Uiso   1.00
S137   S     0.62552   0.08269   0.29560   0.00000  Uiso   1.00
S138   S     0.37295   0.26147   0.26963   0.00000  Uiso   1.00
Zn139  Zn    0.50000   0.21771   0.25000   0.00000  Uiso   1.00
Zn140  Zn    0.50000   0.11563   0.25000   0.00000  Uiso   1.00
C141   C     0.75313   0.16673   0.24985   0.00000  Uiso   1.00
C142   C     0.97885   0.20655   0.23788   0.00000  Uiso   1.00
C143   C     0.97924   0.12672   0.26100   0.00000  Uiso   1.00
C144   C     0.68663   0.20855   0.24960   0.00000  Uiso   1.00
C145   C     0.83431   0.20611   0.04586   0.00000  Uiso   1.00
C146   C     0.83547   0.12759   0.45418   0.00000  Uiso   1.00
C147   C     0.80703   0.20414   0.45134   0.00000  Uiso   1.00
C148   C     0.80768   0.12894   0.04858   0.00000  Uiso   1.00
C149   C     0.83834   0.20601   0.09175   0.00000  Uiso   1.00
C150   C     0.83959   0.12771   0.40829   0.00000  Uiso   1.00
C151   C     0.81185   0.20456   0.40549   0.00000  Uiso   1.00
C152   C     0.91335   0.16662   0.24994   0.00000  Uiso   1.00
C153   C     0.81242   0.12854   0.09442   0.00000  Uiso   1.00
C154   C     0.82821   0.16691   0.11596   0.00000  Uiso   1.00
C155   C     0.82848   0.16648   0.38402   0.00000  Uiso   1.00
C156   C     0.81937   0.16740   0.02414   0.00000  Uiso   1.00
C157   C     0.81952   0.16596   0.47583   0.00000  Uiso   1.00
C158   C     0.95740   0.16661   0.24963   0.00000  Uiso   1.00
C159   C     0.70878   0.16683   0.24951   0.00000  Uiso   1.00
C160   C     0.83251   0.16672   0.16381   0.00000  Uiso   1.00
C161   C     0.83262   0.16662   0.33618   0.00000  Uiso   1.00
C162   C     0.84297   0.02388   0.28783   0.00000  Uiso   1.00
C163   C     0.82369   0.30944   0.21217   0.00000  Uiso   1.00
C164   C     0.82369   0.02408   0.21217   0.00000  Uiso   1.00
C165   C     0.84308   0.30923   0.28781   0.00000  Uiso   1.00
C166   C     0.68698   0.12506   0.24911   0.00000  Uiso   1.00
H167   H     0.85084   0.04188   0.31806   0.00000  Uiso   1.00
H168   H     0.85214   0.09794   0.39196   0.00000  Uiso   1.00
H169   H     0.80231   0.23441   0.38688   0.00000  Uiso   1.00
H170   H     0.80354   0.09846   0.11295   0.00000  Uiso   1.00
H171   H     0.72027   0.10186   0.16264   0.00000  Uiso   1.00
H172   H     0.91497   0.25254   0.14772   0.00000  Uiso   1.00
H173   H     0.91821   0.07928   0.35263   0.00000  Uiso   1.00
H174   H     0.75120   0.28180   0.31903   0.00000  Uiso   1.00
H175   H     0.81579   0.29143   0.18195   0.00000  Uiso   1.00
H176   H     0.81589   0.04223   0.18192   0.00000  Uiso   1.00
H177   H     0.85102   0.29105   0.31801   0.00000  Uiso   1.00
H178   H     0.84409   0.23583   0.02730   0.00000  Uiso   1.00
H179   H     0.84592   0.09815   0.47280   0.00000  Uiso   1.00
H180   H     0.79416   0.23374   0.46773   0.00000  Uiso   1.00
H181   H     0.79554   0.09908   0.03213   0.00000  Uiso   1.00
H182   H     0.85010   0.23608   0.10812   0.00000  Uiso   1.00
N183   N     0.83333   0.28573   0.25000   0.00000  Uiso   1.00
N184   N     0.83333   0.04760   0.25000   0.00000  Uiso   1.00
O185   O     0.77226   0.20487   0.24999   0.00000  Uiso   1.00
O186   O     0.67233   0.04225   0.21264   0.00000  Uiso   1.00
O187   O     0.73721   0.08289   0.18295   0.00000  Uiso   1.00
O188   O     0.93465   0.28412   0.23028   0.00000  Uiso   1.00
O189   O     0.99183   0.27371   0.17781   0.00000  Uiso   1.00
O190   O     0.92568   0.22655   0.16533   0.00000  Uiso   1.00
O191   O     0.93613   0.04872   0.26752   0.00000  Uiso   1.00
O192   O     0.99319   0.05894   0.32002   0.00000  Uiso   1.00
O193   O     0.92638   0.10517   0.33341   0.00000  Uiso   1.00
O194   O     0.73059   0.28422   0.23318   0.00000  Uiso   1.00
O195   O     0.67163   0.29227   0.28364   0.00000  Uiso   1.00
O196   O     0.89441   0.12846   0.25000   0.00000  Uiso   1.00
O197   O     0.73675   0.25259   0.31430   0.00000  Uiso   1.00
O198   O     0.89441   0.20487   0.25000   0.00000  Uiso   1.00
O199   O     0.77226   0.12846   0.24999   0.00000  Uiso   1.00
O200   O     0.83333   0.20489   0.18453   0.00000  Uiso   1.00
O201   O     0.83334   0.12845   0.31547   0.00000  Uiso   1.00
O202   O     0.83334   0.20489   0.31547   0.00000  Uiso   1.00
O203   O     0.83333   0.12845   0.18453   0.00000  Uiso   1.00
O204   O     0.73139   0.04878   0.26284   0.00000  Uiso   1.00
S205   S     0.70677   0.07278   0.22737   0.00000  Uiso   1.00
S206   S     0.95788   0.24995   0.20271   0.00000  Uiso   1.00
S207   S     0.95886   0.08269   0.29560   0.00000  Uiso   1.00
S208   S     0.70628   0.26147   0.26963   0.00000  Uiso   1.00
Zn209  Zn    0.83333   0.21771   0.25000   0.00000  Uiso   1.00
Zn210  Zn    0.83333   0.11563   0.25000   0.00000  Uiso   1.00
C211   C     0.08647   0.50007   0.24985   0.00000  Uiso   1.00
C212   C     0.31218   0.53989   0.23788   0.00000  Uiso   1.00
C213   C     0.31258   0.46006   0.26100   0.00000  Uiso   1.00
C214   C     0.01997   0.54189   0.24960   0.00000  Uiso   1.00
C215   C     0.16764   0.53944   0.04586   0.00000  Uiso   1.00
C216   C     0.16880   0.46093   0.45418   0.00000  Uiso   1.00
C217   C     0.14037   0.53747   0.45134   0.00000  Uiso   1.00
C218   C     0.14102   0.46227   0.04858   0.00000  Uiso   1.00
C219   C     0.17168   0.53934   0.09175   0.00000  Uiso   1.00
C220   C     0.17292   0.46105   0.40829   0.00000  Uiso   1.00
C221   C     0.14518   0.53790   0.40549   0.00000  Uiso   1.00
C222   C     0.24669   0.49996   0.24994   0.00000  Uiso   1.00
C223   C     0.14576   0.46188   0.09442   0.00000  Uiso   1.00
C224   C     0.16154   0.50025   0.11596   0.00000  Uiso   1.00
C225   C     0.16181   0.49982   0.38402   0.00000  Uiso   1.00
C226   C     0.15271   0.50074   0.02414   0.00000  Uiso   1.00
C227   C     0.15285   0.49929   0.47583   0.00000  Uiso   1.00
C228   C     0.29073   0.49994   0.24963   0.00000  Uiso   1.00
C229   C     0.04211   0.50017   0.24951   0.00000  Uiso   1.00
C230   C     0.16584   0.50005   0.16381   0.00000  Uiso   1.00
C231   C     0.16595   0.49996   0.33618   0.00000  Uiso   1.00
C232   C     0.17631   0.35721   0.28783   0.00000  Uiso   1.00
C233   C     0.15702   0.64278   0.21217   0.00000  Uiso   1.00
C234   C     0.15703   0.35741   0.21217   0.00000  Uiso   1.00
C235   C     0.17641   0.64257   0.28781   0.00000  Uiso   1.00
C236   C     0.02031   0.45839   0.24911   0.00000  Uiso   1.00
H237   H     0.18418   0.37521   0.31806   0.00000  Uiso   1.00
H238   H     0.18548   0.43127   0.39196   0.00000  Uiso   1.00
H239   H     0.13564   0.56774   0.38688   0.00000  Uiso   1.00
H240   H     0.13687   0.43179   0.11295   0.00000  Uiso   1.00
H241   H     0.05360   0.43520   0.16264   0.00000  Uiso   1.00
H242   H     0.24831   0.58587   0.14772   0.00000  Uiso   1.00
H243   H     0.25154   0.41262   0.35263   0.00000  Uiso   1.00
H244   H     0.08453   0.61513   0.31903   0.00000  Uiso   1.00
H245   H     0.14912   0.62476   0.18195   0.00000  Uiso   1.00
H246   H     0.14922   0.37556   0.18192   0.00000  Uiso   1.00
H247   H     0.18436   0.62439   0.31801   0.00000  Uiso   1.00
H248   H     0.17742   0.56916   0.02730   0.00000  Uiso   1.00
H249   H     0.17925   0.43148   0.47280   0.00000  Uiso   1.00
H250   H     0.12749   0.56707   0.46773   0.00000  Uiso   1.00
H251   H     0.12887   0.43241   0.03213   0.00000  Uiso   1.00
H252   H     0.18343   0.56942   0.10812   0.00000  Uiso   1.00
N253   N     0.16667   0.61907   0.25000   0.00000  Uiso   1.00
N254   N     0.16667   0.38093   0.25000   0.00000  Uiso   1.00
O255   O     0.10559   0.53821   0.24999   0.00000  Uiso   1.00
O256   O     0.00566   0.37559   0.21264   0.00000  Uiso   1.00
O257   O     0.07055   0.41623   0.18295   0.00000  Uiso   1.00
O258   O     0.26798   0.61745   0.23028   0.00000  Uiso   1.00
O259   O     0.32517   0.60704   0.17781   0.00000  Uiso   1.00
O260   O     0.25901   0.55988   0.16533   0.00000  Uiso   1.00
O261   O     0.26947   0.38205   0.26752   0.00000  Uiso   1.00
O262   O     0.32653   0.39227   0.32002   0.00000  Uiso   1.00
O263   O     0.25971   0.43851   0.33341   0.00000  Uiso   1.00
O264   O     0.06392   0.61755   0.23318   0.00000  Uiso   1.00
O265   O     0.00496   0.62560   0.28364   0.00000  Uiso   1.00
O266   O     0.22774   0.46179   0.25000   0.00000  Uiso   1.00
O267   O     0.07008   0.58592   0.31430   0.00000  Uiso   1.00
O268   O     0.22774   0.53821   0.25000   0.00000  Uiso   1.00
O269   O     0.10559   0.46179   0.24999   0.00000  Uiso   1.00
O270   O     0.16666   0.53822   0.18453   0.00000  Uiso   1.00
O271   O     0.16667   0.46178   0.31547   0.00000  Uiso   1.00
O272   O     0.16667   0.53822   0.31547   0.00000  Uiso   1.00
O273   O     0.16666   0.46178   0.18453   0.00000  Uiso   1.00
O274   O     0.06472   0.38211   0.26284   0.00000  Uiso   1.00
S275   S     0.04010   0.40611   0.22737   0.00000  Uiso   1.00
S276   S     0.29121   0.58328   0.20271   0.00000  Uiso   1.00
S277   S     0.29219   0.41603   0.29560   0.00000  Uiso   1.00
S278   S     0.03961   0.59480   0.26963   0.00000  Uiso   1.00
Zn279  Zn    0.16667   0.55104   0.25000   0.00000  Uiso   1.00
Zn280  Zn    0.16667   0.44896   0.25000   0.00000  Uiso   1.00
C281   C     0.41980   0.50007   0.24985   0.00000  Uiso   1.00
C282   C     0.64551   0.53989   0.23788   0.00000  Uiso   1.00
C283   C     0.64591   0.46006   0.26100   0.00000  Uiso   1.00
C284   C     0.35330   0.54189   0.24960   0.00000  Uiso   1.00
C285   C     0.50098   0.53944   0.04586   0.00000  Uiso   1.00
C286   C     0.50213   0.46093   0.45418   0.00000  Uiso   1.00
C287   C     0.47370   0.53747   0.45134   0.00000  Uiso   1.00
C288   C     0.47435   0.46227   0.04858   0.00000  Uiso   1.00
C289   C     0.50501   0.53934   0.09175   0.00000  Uiso   1.00
C290   C     0.50625   0.46105   0.40829   0.00000  Uiso   1.00
C291   C     0.47851   0.53790   0.40549   0.00000  Uiso   1.00
C292   C     0.58002   0.49996   0.24994   0.00000  Uiso   1.00
C293   C     0.47909   0.46188   0.09442   0.00000  Uiso   1.00
C294   C     0.49488   0.50025   0.11596   0.00000  Uiso   1.00
C295   C     0.49515   0.49982   0.38402   0.00000  Uiso   1.00
C296   C     0.48604   0.50074   0.02414   0.00000  Uiso   1.00
C297   C     0.48618   0.49929   0.47583   0.00000  Uiso   1.00
C298   C     0.62407   0.49994   0.24963   0.00000  Uiso   1.00
C299   C     0.37545   0.50017   0.24951   0.00000  Uiso   1.00
C300   C     0.49917   0.50005   0.16381   0.00000  Uiso   1.00
C301   C     0.49929   0.49996   0.33618   0.00000  Uiso   1.00
C302   C     0.50964   0.35721   0.28783   0.00000  Uiso   1.00
C303   C     0.49036   0.64278   0.21217   0.00000  Uiso   1.00
C304   C     0.49036   0.35741   0.21217   0.00000  Uiso   1.00
C305   C     0.50974   0.64257   0.28781   0.00000  Uiso   1.00
C306   C     0.35364   0.45839   0.24911   0.00000  Uiso   1.00
H307   H     0.51751   0.37521   0.31806   0.00000  Uiso   1.00
H308   H     0.51881   0.43127   0.39196   0.00000  Uiso   1.00
H309   H     0.46898   0.56774   0.38688   0.00000  Uiso   1.00
H310   H     0.47021   0.43179   0.11295   0.00000  Uiso   1.00
H311   H     0.38694   0.43520   0.16264   0.00000  Uiso   1.00
H312   H     0.58164   0.58587   0.14772   0.00000  Uiso   1.00
H313   H     0.58488   0.41262   0.35263   0.00000  Uiso   1.00
H314   H     0.41787   0.61513   0.31903   0.00000  Uiso   1.00
H315   H     0.48246   0.62476   0.18195   0.00000  Uiso   1.00
H316   H     0.48255   0.37556   0.18192   0.00000  Uiso   1.00
H317   H     0.51769   0.62439   0.31801   0.00000  Uiso   1.00
H318   H     0.51075   0.56916   0.02730   0.00000  Uiso   1.00
H319   H     0.51259   0.43148   0.47280   0.00000  Uiso   1.00
H320   H     0.46082   0.56707   0.46773   0.00000  Uiso   1.00
H321   H     0.46221   0.43241   0.03213   0.00000  Uiso   1.00
H322   H     0.51677   0.56942   0.10812   0.00000  Uiso   1.00
N323   N     0.50000   0.61907   0.25000   0.00000  Uiso   1.00
N324   N     0.50000   0.38093   0.25000   0.00000  Uiso   1.00
O325   O     0.43892   0.53821   0.24999   0.00000  Uiso   1.00
O326   O     0.33900   0.37559   0.21264   0.00000  Uiso   1.00
O327   O     0.40388   0.41623   0.18295   0.00000  Uiso   1.00
O328   O     0.60131   0.61745   0.23028   0.00000  Uiso   1.00
O329   O     0.65850   0.60704   0.17781   0.00000  Uiso   1.00
O330   O     0.59235   0.55988   0.16533   0.00000  Uiso   1.00
O331   O     0.60280   0.38205   0.26752   0.00000  Uiso   1.00
O332   O     0.65986   0.39227   0.32002   0.00000  Uiso   1.00
O333   O     0.59304   0.43851   0.33341   0.00000  Uiso   1.00
O334   O     0.39725   0.61755   0.23318   0.00000  Uiso   1.00
O335   O     0.33829   0.62560   0.28364   0.00000  Uiso   1.00
O336   O     0.56108   0.46179   0.25000   0.00000  Uiso   1.00
O337   O     0.40342   0.58592   0.31430   0.00000  Uiso   1.00
O338   O     0.56108   0.53821   0.25000   0.00000  Uiso   1.00
O339   O     0.43892   0.46179   0.24999   0.00000  Uiso   1.00
O340   O     0.50000   0.53822   0.18453   0.00000  Uiso   1.00
O341   O     0.50000   0.46178   0.31547   0.00000  Uiso   1.00
O342   O     0.50000   0.53822   0.31547   0.00000  Uiso   1.00
O343   O     0.50000   0.46178   0.18453   0.00000  Uiso   1.00
O344   O     0.39805   0.38211   0.26284   0.00000  Uiso   1.00
S345   S     0.37344   0.40611   0.22737   0.00000  Uiso   1.00
S346   S     0.62455   0.58328   0.20271   0.00000  Uiso   1.00
S347   S     0.62552   0.41603   0.29560   0.00000  Uiso   1.00
S348   S     0.37295   0.59480   0.26963   0.00000  Uiso   1.00
Zn349  Zn    0.50000   0.55104   0.25000   0.00000  Uiso   1.00
Zn350  Zn    0.50000   0.44896   0.25000   0.00000  Uiso   1.00
C351   C     0.75313   0.50007   0.24985   0.00000  Uiso   1.00
C352   C     0.97885   0.53989   0.23788   0.00000  Uiso   1.00
C353   C     0.97924   0.46006   0.26100   0.00000  Uiso   1.00
C354   C     0.68663   0.54189   0.24960   0.00000  Uiso   1.00
C355   C     0.83431   0.53944   0.04586   0.00000  Uiso   1.00
C356   C     0.83547   0.46093   0.45418   0.00000  Uiso   1.00
C357   C     0.80703   0.53747   0.45134   0.00000  Uiso   1.00
C358   C     0.80768   0.46227   0.04858   0.00000  Uiso   1.00
C359   C     0.83834   0.53934   0.09175   0.00000  Uiso   1.00
C360   C     0.83959   0.46105   0.40829   0.00000  Uiso   1.00
C361   C     0.81185   0.53790   0.40549   0.00000  Uiso   1.00
C362   C     0.91335   0.49996   0.24994   0.00000  Uiso   1.00
C363   C     0.81242   0.46188   0.09442   0.00000  Uiso   1.00
C364   C     0.82821   0.50025   0.11596   0.00000  Uiso   1.00
C365   C     0.82848   0.49982   0.38402   0.00000  Uiso   1.00
C366   C     0.81937   0.50074   0.02414   0.00000  Uiso   1.00
C367   C     0.81952   0.49929   0.47583   0.00000  Uiso   1.00
C368   C     0.95740   0.49994   0.24963   0.00000  Uiso   1.00
C369   C     0.70878   0.50017   0.24951   0.00000  Uiso   1.00
C370   C     0.83251   0.50005   0.16381   0.00000  Uiso   1.00
C371   C     0.83262   0.49996   0.33618   0.00000  Uiso   1.00
C372   C     0.84297   0.35721   0.28783   0.00000  Uiso   1.00
C373   C     0.82369   0.64278   0.21217   0.00000  Uiso   1.00
C374   C     0.82369   0.35741   0.21217   0.00000  Uiso   1.00
C375   C     0.84308   0.64257   0.28781   0.00000  Uiso   1.00
C376   C     0.68698   0.45839   0.24911   0.00000  Uiso   1.00
H377   H     0.85084   0.37521   0.31806   0.00000  Uiso   1.00
H378   H     0.85214   0.43127   0.39196   0.00000  Uiso   1.00
H379   H     0.80231   0.56774   0.38688   0.00000  Uiso   1.00
H380   H     0.80354   0.43179   0.11295   0.00000  Uiso   1.00
H381   H     0.72027   0.43520   0.16264   0.00000  Uiso   1.00
H382   H     0.91497   0.58587   0.14772   0.00000  Uiso   1.00
H383   H     0.91821   0.41262   0.35263   0.00000  Uiso   1.00
H384   H     0.75120   0.61513   0.31903   0.00000  Uiso   1.00
H385   H     0.81579   0.62476   0.18195   0.00000  Uiso   1.00
H386   H     0.81589   0.37556   0.18192   0.00000  Uiso   1.00
H387   H     0.85102   0.62439   0.31801   0.00000  Uiso   1.00
H388   H     0.84409   0.56916   0.02730   0.00000  Uiso   1.00
H389   H     0.84592   0.43148   0.47280   0.00000  Uiso   1.00
H390   H     0.79416   0.56707   0.46773   0.00000  Uiso   1.00
H391   H     0.79554   0.43241   0.03213   0.00000  Uiso   1.00
H392   H     0.85010   0.56942   0.10812   0.00000  Uiso   1.00
N393   N     0.83333   0.61907   0.25000   0.00000  Uiso   1.00
N394   N     0.83333   0.38093   0.25000   0.00000  Uiso   1.00
O395   O     0.77226   0.53821   0.24999   0.00000  Uiso   1.00
O396   O     0.67233   0.37559   0.21264   0.00000  Uiso   1.00
O397   O     0.73721   0.41623   0.18295   0.00000  Uiso   1.00
O398   O     0.93465   0.61745   0.23028   0.00000  Uiso   1.00
O399   O     0.99183   0.60704   0.17781   0.00000  Uiso   1.00
O400   O     0.92568   0.55988   0.16533   0.00000  Uiso   1.00
O401   O     0.93613   0.38205   0.26752   0.00000  Uiso   1.00
O402   O     0.99319   0.39227   0.32002   0.00000  Uiso   1.00
O403   O     0.92638   0.43851   0.33341   0.00000  Uiso   1.00
O404   O     0.73059   0.61755   0.23318   0.00000  Uiso   1.00
O405   O     0.67163   0.62560   0.28364   0.00000  Uiso   1.00
O406   O     0.89441   0.46179   0.25000   0.00000  Uiso   1.00
O407   O     0.73675   0.58592   0.31430   0.00000  Uiso   1.00
O408   O     0.89441   0.53821   0.25000   0.00000  Uiso   1.00
O409   O     0.77226   0.46179   0.24999   0.00000  Uiso   1.00
O410   O     0.83333   0.53822   0.18453   0.00000  Uiso   1.00
O411   O     0.83334   0.46178   0.31547   0.00000  Uiso   1.00
O412   O     0.83334   0.53822   0.31547   0.00000  Uiso   1.00
O413   O     0.83333   0.46178   0.18453   0.00000  Uiso   1.00
O414   O     0.73139   0.38211   0.26284   0.00000  Uiso   1.00
S415   S     0.70677   0.40611   0.22737   0.00000  Uiso   1.00
S416   S     0.95788   0.58328   0.20271   0.00000  Uiso   1.00
S417   S     0.95886   0.41603   0.29560   0.00000  Uiso   1.00
S418   S     0.70628   0.59480   0.26963   0.00000  Uiso   1.00
Zn419  Zn    0.83333   0.55104   0.25000   0.00000  Uiso   1.00
Zn420  Zn    0.83333   0.44896   0.25000   0.00000  Uiso   1.00
C421   C     0.08647   0.83340   0.24985   0.00000  Uiso   1.00
C422   C     0.31218   0.87322   0.23788   0.00000  Uiso   1.00
C423   C     0.31258   0.79339   0.26100   0.00000  Uiso   1.00
C424   C     0.01997   0.87522   0.24960   0.00000  Uiso   1.00
C425   C     0.16764   0.87278   0.04586   0.00000  Uiso   1.00
C426   C     0.16880   0.79426   0.45418   0.00000  Uiso   1.00
C427   C     0.14037   0.87081   0.45134   0.00000  Uiso   1.00
C428   C     0.14102   0.79560   0.04858   0.00000  Uiso   1.00
C429   C     0.17168   0.87268   0.09175   0.00000  Uiso   1.00
C430   C     0.17292   0.79438   0.40829   0.00000  Uiso   1.00
C431   C     0.14518   0.87123   0.40549   0.00000  Uiso   1.00
C432   C     0.24669   0.83329   0.24994   0.00000  Uiso   1.00
C433   C     0.14576   0.79521   0.09442   0.00000  Uiso   1.00
C434   C     0.16154   0.83358   0.11596   0.00000  Uiso   1.00
C435   C     0.16181   0.83315   0.38402   0.00000  Uiso   1.00
C436   C     0.15271   0.83407   0.02414   0.00000  Uiso   1.00
C437   C     0.15285   0.83262   0.47583   0.00000  Uiso   1.00
C438   C     0.29073   0.83327   0.24963   0.00000  Uiso   1.00
C439   C     0.04211   0.83350   0.24951   0.00000  Uiso   1.00
C440   C     0.16584   0.83339   0.16381   0.00000  Uiso   1.00
C441   C     0.16595   0.83329   0.33618   0.00000  Uiso   1.00
C442   C     0.17631   0.69054   0.28783   0.00000  Uiso   1.00
C443   C     0.15702   0.97611   0.21217   0.00000  Uiso   1.00
C444   C     0.15703   0.69075   0.21217   0.00000  Uiso   1.00
C445   C     0.17641   0.97590   0.28781   0.00000  Uiso   1.00
C446   C     0.02031   0.79173   0.24911   0.00000  Uiso   1.00
H447   H     0.18418   0.70855   0.31806   0.00000  Uiso   1.00
H448   H     0.18548   0.76460   0.39196   0.00000  Uiso   1.00
H449   H     0.13564   0.90107   0.38688   0.00000  Uiso   1.00
H450   H     0.13687   0.76513   0.11295   0.00000  Uiso   1.00
H451   H     0.05360   0.76853   0.16264   0.00000  Uiso   1.00
H452   H     0.24831   0.91921   0.14772   0.00000  Uiso   1.00
H453   H     0.25154   0.74595   0.35263   0.00000  Uiso   1.00
H454   H     0.08453   0.94847   0.31903   0.00000  Uiso   1.00
H455   H     0.14912   0.95809   0.18195   0.00000  Uiso   1.00
H456   H     0.14922   0.70890   0.18192   0.00000  Uiso   1.00
H457   H     0.18436   0.95772   0.31801   0.00000  Uiso   1.00
H458   H     0.17742   0.90249   0.02730   0.00000  Uiso   1.00
H459   H     0.17925   0.76481   0.47280   0.00000  Uiso   1.00
H460   H     0.12749   0.90041   0.46773   0.00000  Uiso   1.00
H461   H     0.12887   0.76574   0.03213   0.00000  Uiso   1.00
H462   H     0.18343   0.90275   0.10812   0.00000  Uiso   1.00
N463   N     0.16667   0.95240   0.25000   0.00000  Uiso   1.00
N464   N     0.16667   0.71427   0.25000   0.00000  Uiso   1.00
O465   O     0.10559   0.87154   0.24999   0.00000  Uiso   1.00
O466   O     0.00566   0.70892   0.21264   0.00000  Uiso   1.00
O467   O     0.07055   0.74956   0.18295   0.00000  Uiso   1.00
O468   O     0.26798   0.95078   0.23028   0.00000  Uiso   1.00
O469   O     0.32517   0.94037   0.17781   0.00000  Uiso   1.00
O470   O     0.25901   0.89322   0.16533   0.00000  Uiso   1.00
O471   O     0.26947   0.71539   0.26752   0.00000  Uiso   1.00
O472   O     0.32653   0.72561   0.32002   0.00000  Uiso   1.00
O473   O     0.25971   0.77184   0.33341   0.00000  Uiso   1.00
O474   O     0.06392   0.95089   0.23318   0.00000  Uiso   1.00
O475   O     0.00496   0.95893   0.28364   0.00000  Uiso   1.00
O476   O     0.22774   0.79513   0.25000   0.00000  Uiso   1.00
O477   O     0.07008   0.91925   0.31430   0.00000  Uiso   1.00
O478   O     0.22774   0.87154   0.25000   0.00000  Uiso   1.00
O479   O     0.10559   0.79513   0.24999   0.00000  Uiso   1.00
O480   O     0.16666   0.87155   0.18453   0.00000  Uiso   1.00
O481   O     0.16667   0.79511   0.31547   0.00000  Uiso   1.00
O482   O     0.16667   0.87155   0.31547   0.00000  Uiso   1.00
O483   O     0.16666   0.79511   0.18453   0.00000  Uiso   1.00
O484   O     0.06472   0.71545   0.26284   0.00000  Uiso   1.00
S485   S     0.04010   0.73944   0.22737   0.00000  Uiso   1.00
S486   S     0.29121   0.91661   0.20271   0.00000  Uiso   1.00
S487   S     0.29219   0.74936   0.29560   0.00000  Uiso   1.00
S488   S     0.03961   0.92814   0.26963   0.00000  Uiso   1.00
Zn489  Zn    0.16667   0.88437   0.25000   0.00000  Uiso   1.00
Zn490  Zn    0.16667   0.78229   0.25000   0.00000  Uiso   1.00
C491   C     0.41980   0.83340   0.24985   0.00000  Uiso   1.00
C492   C     0.64551   0.87322   0.23788   0.00000  Uiso   1.00
C493   C     0.64591   0.79339   0.26100   0.00000  Uiso   1.00
C494   C     0.35330   0.87522   0.24960   0.00000  Uiso   1.00
C495   C     0.50098   0.87278   0.04586   0.00000  Uiso   1.00
C496   C     0.50213   0.79426   0.45418   0.00000  Uiso   1.00
C497   C     0.47370   0.87081   0.45134   0.00000  Uiso   1.00
C498   C     0.47435   0.79560   0.04858   0.00000  Uiso   1.00
C499   C     0.50501   0.87268   0.09175   0.00000  Uiso   1.00
C500   C     0.50625   0.79438   0.40829   0.00000  Uiso   1.00
C501   C     0.47851   0.87123   0.40549   0.00000  Uiso   1.00
C502   C     0.58002   0.83329   0.24994   0.00000  Uiso   1.00
C503   C     0.47909   0.79521   0.09442   0.00000  Uiso   1.00
C504   C     0.49488   0.83358   0.11596   0.00000  Uiso   1.00
C505   C     0.49515   0.83315   0.38402   0.00000  Uiso   1.00
C506   C     0.48604   0.83407   0.02414   0.00000  Uiso   1.00
C507   C     0.48618   0.83262   0.47583   0.00000  Uiso   1.00
C508   C     0.62407   0.83327   0.24963   0.00000  Uiso   1.00
C509   C     0.37545   0.83350   0.24951   0.00000  Uiso   1.00
C510   C     0.49917   0.83339   0.16381   0.00000  Uiso   1.00
C511   C     0.49929   0.83329   0.33618   0.00000  Uiso   1.00
C512   C     0.50964   0.69054   0.28783   0.00000  Uiso   1.00
C513   C     0.49036   0.97611   0.21217   0.00000  Uiso   1.00
C514   C     0.49036   0.69075   0.21217   0.00000  Uiso   1.00
C515   C     0.50974   0.97590   0.28781   0.00000  Uiso   1.00
C516   C     0.35364   0.79173   0.24911   0.00000  Uiso   1.00
H517   H     0.51751   0.70855   0.31806   0.00000  Uiso   1.00
H518   H     0.51881   0.76460   0.39196   0.00000  Uiso   1.00
H519   H     0.46898   0.90107   0.38688   0.00000  Uiso   1.00
H520   H     0.47021   0.76513   0.11295   0.00000  Uiso   1.00
H521   H     0.38694   0.76853   0.16264   0.00000  Uiso   1.00
H522   H     0.58164   0.91921   0.14772   0.00000  Uiso   1.00
H523   H     0.58488   0.74595   0.35263   0.00000  Uiso   1.00
H524   H     0.41787   0.94847   0.31903   0.00000  Uiso   1.00
H525   H     0.48246   0.95809   0.18195   0.00000  Uiso   1.00
H526   H     0.48255   0.70890   0.18192   0.00000  Uiso   1.00
H527   H     0.51769   0.95772   0.31801   0.00000  Uiso   1.00
H528   H     0.51075   0.90249   0.02730   0.00000  Uiso   1.00
H529   H     0.51259   0.76481   0.47280   0.00000  Uiso   1.00
H530   H     0.46082   0.90041   0.46773   0.00000  Uiso   1.00
H531   H     0.46221   0.76574   0.03213   0.00000  Uiso   1.00
H532   H     0.51677   0.90275   0.10812   0.00000  Uiso   1.00
N533   N     0.50000   0.95240   0.25000   0.00000  Uiso   1.00
N534   N     0.50000   0.71427   0.25000   0.00000  Uiso   1.00
O535   O     0.43892   0.87154   0.24999   0.00000  Uiso   1.00
O536   O     0.33900   0.70892   0.21264   0.00000  Uiso   1.00
O537   O     0.40388   0.74956   0.18295   0.00000  Uiso   1.00
O538   O     0.60131   0.95078   0.23028   0.00000  Uiso   1.00
O539   O     0.65850   0.94037   0.17781   0.00000  Uiso   1.00
O540   O     0.59235   0.89322   0.16533   0.00000  Uiso   1.00
O541   O     0.60280   0.71539   0.26752   0.00000  Uiso   1.00
O542   O     0.65986   0.72561   0.32002   0.00000  Uiso   1.00
O543   O     0.59304   0.77184   0.33341   0.00000  Uiso   1.00
O544   O     0.39725   0.95089   0.23318   0.00000  Uiso   1.00
O545   O     0.33829   0.95893   0.28364   0.00000  Uiso   1.00
O546   O     0.56108   0.79513   0.25000   0.00000  Uiso   1.00
O547   O     0.40342   0.91925   0.31430   0.00000  Uiso   1.00
O548   O     0.56108   0.87154   0.25000   0.00000  Uiso   1.00
O549   O     0.43892   0.79513   0.24999   0.00000  Uiso   1.00
O550   O     0.50000   0.87155   0.18453   0.00000  Uiso   1.00
O551   O     0.50000   0.79511   0.31547   0.00000  Uiso   1.00
O552   O     0.50000   0.87155   0.31547   0.00000  Uiso   1.00
O553   O     0.50000   0.79511   0.18453   0.00000  Uiso   1.00
O554   O     0.39805   0.71545   0.26284   0.00000  Uiso   1.00
S555   S     0.37344   0.73944   0.22737   0.00000  Uiso   1.00
S556   S     0.62455   0.91661   0.20271   0.00000  Uiso   1.00
S557   S     0.62552   0.74936   0.29560   0.00000  Uiso   1.00
S558   S     0.37295   0.92814   0.26963   0.00000  Uiso   1.00
Zn559  Zn    0.50000   0.88437   0.25000   0.00000  Uiso   1.00
Zn560  Zn    0.50000   0.78229   0.25000   0.00000  Uiso   1.00
C561   C     0.75313   0.83340   0.24985   0.00000  Uiso   1.00
C562   C     0.97885   0.87322   0.23788   0.00000  Uiso   1.00
C563   C     0.97924   0.79339   0.26100   0.00000  Uiso   1.00
C564   C     0.68663   0.87522   0.24960   0.00000  Uiso   1.00
C565   C     0.83431   0.87278   0.04586   0.00000  Uiso   1.00
C566   C     0.83547   0.79426   0.45418   0.00000  Uiso   1.00
C567   C     0.80703   0.87081   0.45134   0.00000  Uiso   1.00
C568   C     0.80768   0.79560   0.04858   0.00000  Uiso   1.00
C569   C     0.83834   0.87268   0.09175   0.00000  Uiso   1.00
C570   C     0.83959   0.79438   0.40829   0.00000  Uiso   1.00
C571   C     0.81185   0.87123   0.40549   0.00000  Uiso   1.00
C572   C     0.91335   0.83329   0.24994   0.00000  Uiso   1.00
C573   C     0.81242   0.79521   0.09442   0.00000  Uiso   1.00
C574   C     0.82821   0.83358   0.11596   0.00000  Uiso   1.00
C575   C     0.82848   0.83315   0.38402   0.00000  Uiso   1.00
C576   C     0.81937   0.83407   0.02414   0.00000  Uiso   1.00
C577   C     0.81952   0.83262   0.47583   0.00000  Uiso   1.00
C578   C     0.95740   0.83327   0.24963   0.00000  Uiso   1.00
C579   C     0.70878   0.83350   0.24951   0.00000  Uiso   1.00
C580   C     0.83251   0.83339   0.16381   0.00000  Uiso   1.00
C581   C     0.83262   0.83329   0.33618   0.00000  Uiso   1.00
C582   C     0.84297   0.69054   0.28783   0.00000  Uiso   1.00
C583   C     0.82369   0.97611   0.21217   0.00000  Uiso   1.00
C584   C     0.82369   0.69075   0.21217   0.00000  Uiso   1.00
C585   C     0.84308   0.97590   0.28781   0.00000  Uiso   1.00
C586   C     0.68698   0.79173   0.24911   0.00000  Uiso   1.00
H587   H     0.85084   0.70855   0.31806   0.00000  Uiso   1.00
H588   H     0.85214   0.76460   0.39196   0.00000  Uiso   1.00
H589   H     0.80231   0.90107   0.38688   0.00000  Uiso   1.00
H590   H     0.80354   0.76513   0.11295   0.00000  Uiso   1.00
H591   H     0.72027   0.76853   0.16264   0.00000  Uiso   1.00
H592   H     0.91497   0.91921   0.14772   0.00000  Uiso   1.00
H593   H     0.91821   0.74595   0.35263   0.00000  Uiso   1.00
H594   H     0.75120   0.94847   0.31903   0.00000  Uiso   1.00
H595   H     0.81579   0.95809   0.18195   0.00000  Uiso   1.00
H596   H     0.81589   0.70890   0.18192   0.00000  Uiso   1.00
H597   H     0.85102   0.95772   0.31801   0.00000  Uiso   1.00
H598   H     0.84409   0.90249   0.02730   0.00000  Uiso   1.00
H599   H     0.84592   0.76481   0.47280   0.00000  Uiso   1.00
H600   H     0.79416   0.90041   0.46773   0.00000  Uiso   1.00
H601   H     0.79554   0.76574   0.03213   0.00000  Uiso   1.00
H602   H     0.85010   0.90275   0.10812   0.00000  Uiso   1.00
N603   N     0.83333   0.95240   0.25000   0.00000  Uiso   1.00
N604   N     0.83333   0.71427   0.25000   0.00000  Uiso   1.00
O605   O     0.77226   0.87154   0.24999   0.00000  Uiso   1.00
O606   O     0.67233   0.70892   0.21264   0.00000  Uiso   1.00
O607   O     0.73721   0.74956   0.18295   0.00000  Uiso   1.00
O608   O     0.93465   0.95078   0.23028   0.00000  Uiso   1.00
O609   O     0.99183   0.94037   0.17781   0.00000  Uiso   1.00
O610   O     0.92568   0.89322   0.16533   0.00000  Uiso   1.00
O611   O     0.93613   0.71539   0.26752   0.00000  Uiso   1.00
O612   O     0.99319   0.72561   0.32002   0.00000  Uiso   1.00
O613   O     0.92638   0.77184   0.33341   0.00000  Uiso   1.00
O614   O     0.73059   0.95089   0.23318   0.00000  Uiso   1.00
O615   O     0.67163   0.95893   0.28364   0.00000  Uiso   1.00
O616   O     0.89441   0.79513   0.25000   0.00000  Uiso   1.00
O617   O     0.73675   0.91925   0.31430   0.00000  Uiso   1.00
O618   O     0.89441   0.87154   0.25000   0.00000  Uiso   1.00
O619   O     0.77226   0.79513   0.24999   0.00000  Uiso   1.00
O620   O     0.83333   0.87155   0.18453   0.00000  Uiso   1.00
O621   O     0.83334   0.79511   0.31547   0.00000  Uiso   1.00
O622   O     0.83334   0.87155   0.31547   0.00000  Uiso   1.00
O623   O     0.83333   0.79511   0.18453   0.00000  Uiso   1.00
O624   O     0.73139   0.71545   0.26284   0.00000  Uiso   1.00
S625   S     0.70677   0.73944   0.22737   0.00000  Uiso   1.00
S626   S     0.95788   0.91661   0.20271   0.00000  Uiso   1.00
S627   S     0.95886   0.74936   0.29560   0.00000  Uiso   1.00
S628   S     0.70628   0.92814   0.26963   0.00000  Uiso   1.00
Zn629  Zn    0.83333   0.88437   0.25000   0.00000  Uiso   1.00
Zn630  Zn    0.83333   0.78229   0.25000   0.00000  Uiso   1.00
C631   C     0.08647   0.16673   0.74985   0.00000  Uiso   1.00
C632   C     0.31218   0.20655   0.73788   0.00000  Uiso   1.00
C633   C     0.31258   0.12672   0.76100   0.00000  Uiso   1.00
C634   C     0.01997   0.20855   0.74960   0.00000  Uiso   1.00
C635   C     0.16764   0.20611   0.54586   0.00000  Uiso   1.00
C636   C     0.16880   0.12759   0.95418   0.00000  Uiso   1.00
C637   C     0.14037   0.20414   0.95134   0.00000  Uiso   1.00
C638   C     0.14102   0.12894   0.54858   0.00000  Uiso   1.00
C639   C     0.17168   0.20601   0.59175   0.00000  Uiso   1.00
C640   C     0.17292   0.12771   0.90829   0.00000  Uiso   1.00
C641   C     0.14518   0.20456   0.90549   0.00000  Uiso   1.00
C642   C     0.24669   0.16662   0.74994   0.00000  Uiso   1.00
C643   C     0.14576   0.12854   0.59442   0.00000  Uiso   1.00
C644   C     0.16154   0.16691   0.61596   0.00000  Uiso   1.00
C645   C     0.16181   0.16648   0.88402   0.00000  Uiso   1.00
C646   C     0.15271   0.16740   0.52414   0.00000  Uiso   1.00
C647   C     0.15285   0.16596   0.97583   0.00000  Uiso   1.00
C648   C     0.29073   0.16661   0.74963   0.00000  Uiso   1.00
C649   C     0.04211   0.16683   0.74951   0.00000  Uiso   1.00
C650   C     0.16584   0.16672   0.66381   0.00000  Uiso   1.00
C651   C     0.16595   0.16662   0.83618   0.00000  Uiso   1.00
C652   C     0.17631   0.02388   0.78783   0.00000  Uiso   1.00
C653   C     0.15702   0.30944   0.71217   0.00000  Uiso   1.00
C654   C     0.15703   0.02408   0.71217   0.00000  Uiso   1.00
C655   C     0.17641   0.30923   0.78781   0.00000  Uiso   1.00
C656   C     0.02031   0.12506   0.74911   0.00000  Uiso   1.00
H657   H     0.18418   0.04188   0.81806   0.00000  Uiso   1.00
H658   H     0.18548   0.09794   0.89196   0.00000  Uiso   1.00
H659   H     0.13564   0.23441   0.88688   0.00000  Uiso   1.00
H660   H     0.13687   0.09846   0.61295   0.00000  Uiso   1.00
H661   H     0.05360   0.10186   0.66264   0.00000  Uiso   1.00
H662   H     0.24831   0.25254   0.64772   0.00000  Uiso   1.00
H663   H     0.25154   0.07928   0.85263   0.00000  Uiso   1.00
H664   H     0.08453   0.28180   0.81903   0.00000  Uiso   1.00
H665   H     0.14912   0.29143   0.68195   0.00000  Uiso   1.00
H666   H     0.14922   0.04223   0.68192   0.00000  Uiso   1.00
H667   H     0.18436   0.29105   0.81801   0.00000  Uiso   1.00
H668   H     0.17742   0.23583   0.52730   0.00000  Uiso   1.00
H669   H     0.17925   0.09815   0.97280   0.00000  Uiso   1.00
H670   H     0.12749   0.23374   0.96773   0.00000  Uiso   1.00
H671   H     0.12887   0.09908   0.53213   0.00000  Uiso   1.00
H672   H     0.18343   0.23608   0.60812   0.00000  Uiso   1.00
N673   N     0.16667   0.28573   0.75000   0.00000  Uiso   1.00
N674   N     0.16667   0.04760   0.75000   0.00000  Uiso   1.00
O675   O     0.10559   0.20487   0.74999   0.00000  Uiso   1.00
O676   O     0.00566   0.04225   0.71264   0.00000  Uiso   1.00
O677   O     0.07055   0.08289   0.68295   0.00000  Uiso   1.00
O678   O     0.26798   0.28412   0.73028   0.00000  Uiso   1.00
O679   O     0.32517   0.27371   0.67781   0.00000  Uiso   1.00
O680   O     0.25901   0.22655   0.66533   0.00000  Uiso   1.00
O681   O     0.26947   0.04872   0.76752   0.00000  Uiso   1.00
O682   O     0.32653   0.05894   0.82002   0.00000  Uiso   1.00
O683   O     0.25971   0.10517   0.83341   0.00000  Uiso   1.00
O684   O     0.06392   0.28422   0.73318   0.00000  Uiso   1.00
O685   O     0.00496   0.29227   0.78364   0.00000  Uiso   1.00
O686   O     0.22774   0.12846   0.75000   0.00000  Uiso   1.00
O687   O     0.07008   0.25259   0.81430   0.00000  Uiso   1.00
O688   O     0.22774   0.20487   0.75000   0.00000  Uiso   1.00
O689   O     0.10559   0.12846   0.74999   0.00000  Uiso   1.00
O690   O     0.16666   0.20489   0.68453   0.00000  Uiso   1.00
O691   O     0.16667   0.12845   0.81547   0.00000  Uiso   1.00
O692   O     0.16667   0.20489   0.81547   0.00000  Uiso   1.00
O693   O     0.16666   0.12845   0.68453   0.00000  Uiso   1.00
O694   O     0.06472   0.04878   0.76284   0.00000  Uiso   1.00
S695   S     0.04010   0.07278   0.72737   0.00000  Uiso   1.00
S696   S     0.29121   0.24995   0.70271   0.00000  Uiso   1.00
S697   S     0.29219   0.08269   0.79560   0.00000  Uiso   1.00
S698   S     0.03961   0.26147   0.76963   0.00000  Uiso   1.00
Zn699  Zn    0.16667   0.21771   0.75000   0.00000  Uiso   1.00
Zn700  Zn    0.16667   0.11563   0.75000   0.00000  Uiso   1.00
C701   C     0.41980   0.16673   0.74985   0.00000  Uiso   1.00
C702   C     0.64551   0.20655   0.73788   0.00000  Uiso   1.00
C703   C     0.64591   0.12672   0.76100   0.00000  Uiso   1.00
C704   C     0.35330   0.20855   0.74960   0.00000  Uiso   1.00
C705   C     0.50098   0.20611   0.54586   0.00000  Uiso   1.00
C706   C     0.50213   0.12759   0.95418   0.00000  Uiso   1.00
C707   C     0.47370   0.20414   0.95134   0.00000  Uiso   1.00
C708   C     0.47435   0.12894   0.54858   0.00000  Uiso   1.00
C709   C     0.50501   0.20601   0.59175   0.00000  Uiso   1.00
C710   C     0.50625   0.12771   0.90829   0.00000  Uiso   1.00
C711   C     0.47851   0.20456   0.90549   0.00000  Uiso   1.00
C712   C     0.58002   0.16662   0.74994   0.00000  Uiso   1.00
C713   C     0.47909   0.12854   0.59442   0.00000  Uiso   1.00
C714   C     0.49488   0.16691   0.61596   0.00000  Uiso   1.00
C715   C     0.49515   0.16648   0.88402   0.00000  Uiso   1.00
C716   C     0.48604   0.16740   0.52414   0.00000  Uiso   1.00
C717   C     0.48618   0.16596   0.97583   0.00000  Uiso   1.00
C718   C     0.62407   0.16661   0.74963   0.00000  Uiso   1.00
C719   C     0.37545   0.16683   0.74951   0.00000  Uiso   1.00
C720   C     0.49917   0.16672   0.66381   0.00000  Uiso   1.00
C721   C     0.49929   0.16662   0.83618   0.00000  Uiso   1.00
C722   C     0.50964   0.02388   0.78783   0.00000  Uiso   1.00
C723   C     0.49036   0.30944   0.71217   0.00000  Uiso   1.00
C724   C     0.49036   0.02408   0.71217   0.00000  Uiso   1.00
C725   C     0.50974   0.30923   0.78781   0.00000  Uiso   1.00
C726   C     0.35364   0.12506   0.74911   0.00000  Uiso   1.00
H727   H     0.51751   0.04188   0.81806   0.00000  Uiso   1.00
H728   H     0.51881   0.09794   0.89196   0.00000  Uiso   1.00
H729   H     0.46898   0.23441   0.88688   0.00000  Uiso   1.00
H730   H     0.47021   0.09846   0.61295   0.00000  Uiso   1.00
H731   H     0.38694   0.10186   0.66264   0.00000  Uiso   1.00
H732   H     0.58164   0.25254   0.64772   0.00000  Uiso   1.00
H733   H     0.58488   0.07928   0.85263   0.00000  Uiso   1.00
H734   H     0.41787   0.28180   0.81903   0.00000  Uiso   1.00
H735   H     0.48246   0.29143   0.68195   0.00000  Uiso   1.00
H736   H     0.48255   0.04223   0.68192   0.00000  Uiso   1.00
H737   H     0.51769   0.29105   0.81801   0.00000  Uiso   1.00
H738   H     0.51075   0.23583   0.52730   0.00000  Uiso   1.00
H739   H     0.51259   0.09815   0.97280   0.00000  Uiso   1.00
H740   H     0.46082   0.23374   0.96773   0.00000  Uiso   1.00
H741   H     0.46221   0.09908   0.53213   0.00000  Uiso   1.00
H742   H     0.51677   0.23608   0.60812   0.00000  Uiso   1.00
N743   N     0.50000   0.28573   0.75000   0.00000  Uiso   1.00
N744   N     0.50000   0.04760   0.75000   0.00000  Uiso   1.00
O745   O     0.43892   0.20487   0.74999   0.00000  Uiso   1.00
O746   O     0.33900   0.04225   0.71264   0.00000  Uiso   1.00
O747   O     0.40388   0.08289   0.68295   0.00000  Uiso   1.00
O748   O     0.60131   0.28412   0.73028   0.00000  Uiso   1.00
O749   O     0.65850   0.27371   0.67781   0.00000  Uiso   1.00
O750   O     0.59235   0.22655   0.66533   0.00000  Uiso   1.00
O751   O     0.60280   0.04872   0.76752   0.00000  Uiso   1.00
O752   O     0.65986   0.05894   0.82002   0.00000  Uiso   1.00
O753   O     0.59304   0.10517   0.83341   0.00000  Uiso   1.00
O754   O     0.39725   0.28422   0.73318   0.00000  Uiso   1.00
O755   O     0.33829   0.29227   0.78364   0.00000  Uiso   1.00
O756   O     0.56108   0.12846   0.75000   0.00000  Uiso   1.00
O757   O     0.40342   0.25259   0.81430   0.00000  Uiso   1.00
O758   O     0.56108   0.20487   0.75000   0.00000  Uiso   1.00
O759   O     0.43892   0.12846   0.74999   0.00000  Uiso   1.00
O760   O     0.50000   0.20489   0.68453   0.00000  Uiso   1.00
O761   O     0.50000   0.12845   0.81547   0.00000  Uiso   1.00
O762   O     0.50000   0.20489   0.81547   0.00000  Uiso   1.00
O763   O     0.50000   0.12845   0.68453   0.00000  Uiso   1.00
O764   O     0.39805   0.04878   0.76284   0.00000  Uiso   1.00
S765   S     0.37344   0.07278   0.72737   0.00000  Uiso   1.00
S766   S     0.62455   0.24995   0.70271   0.00000  Uiso   1.00
S767   S     0.62552   0.08269   0.79560   0.00000  Uiso   1.00
S768   S     0.37295   0.26147   0.76963   0.00000  Uiso   1.00
Zn769  Zn    0.50000   0.21771   0.75000   0.00000  Uiso   1.00
Zn770  Zn    0.50000   0.11563   0.75000   0.00000  Uiso   1.00
C771   C     0.75313   0.16673   0.74985   0.00000  Uiso   1.00
C772   C     0.97885   0.20655   0.73788   0.00000  Uiso   1.00
C773   C     0.97924   0.12672   0.76100   0.00000  Uiso   1.00
C774   C     0.68663   0.20855   0.74960   0.00000  Uiso   1.00
C775   C     0.83431   0.20611   0.54586   0.00000  Uiso   1.00
C776   C     0.83547   0.12759   0.95418   0.00000  Uiso   1.00
C777   C     0.80703   0.20414   0.95134   0.00000  Uiso   1.00
C778   C     0.80768   0.12894   0.54858   0.00000  Uiso   1.00
C779   C     0.83834   0.20601   0.59175   0.00000  Uiso   1.00
C780   C     0.83959   0.12771   0.90829   0.00000  Uiso   1.00
C781   C     0.81185   0.20456   0.90549   0.00000  Uiso   1.00
C782   C     0.91335   0.16662   0.74994   0.00000  Uiso   1.00
C783   C     0.81242   0.12854   0.59442   0.00000  Uiso   1.00
C784   C     0.82821   0.16691   0.61596   0.00000  Uiso   1.00
C785   C     0.82848   0.16648   0.88402   0.00000  Uiso   1.00
C786   C     0.81937   0.16740   0.52414   0.00000  Uiso   1.00
C787   C     0.81952   0.16596   0.97583   0.00000  Uiso   1.00
C788   C     0.95740   0.16661   0.74963   0.00000  Uiso   1.00
C789   C     0.70878   0.16683   0.74951   0.00000  Uiso   1.00
C790   C     0.83251   0.16672   0.66381   0.00000  Uiso   1.00
C791   C     0.83262   0.16662   0.83618   0.00000  Uiso   1.00
C792   C     0.84297   0.02388   0.78783   0.00000  Uiso   1.00
C793   C     0.82369   0.30944   0.71217   0.00000  Uiso   1.00
C794   C     0.82369   0.02408   0.71217   0.00000  Uiso   1.00
C795   C     0.84308   0.30923   0.78781   0.00000  Uiso   1.00
C796   C     0.68698   0.12506   0.74911   0.00000  Uiso   1.00
H797   H     0.85084   0.04188   0.81806   0.00000  Uiso   1.00
H798   H     0.85214   0.09794   0.89196   0.00000  Uiso   1.00
H799   H     0.80231   0.23441   0.88688   0.00000  Uiso   1.00
H800   H     0.80354   0.09846   0.61295   0.00000  Uiso   1.00
H801   H     0.72027   0.10186   0.66264   0.00000  Uiso   1.00
H802   H     0.91497   0.25254   0.64772   0.00000  Uiso   1.00
H803   H     0.91821   0.07928   0.85263   0.00000  Uiso   1.00
H804   H     0.75120   0.28180   0.81903   0.00000  Uiso   1.00
H805   H     0.81579   0.29143   0.68195   0.00000  Uiso   1.00
H806   H     0.81589   0.04223   0.68192   0.00000  Uiso   1.00
H807   H     0.85102   0.29105   0.81801   0.00000  Uiso   1.00
H808   H     0.84409   0.23583   0.52730   0.00000  Uiso   1.00
H809   H     0.84592   0.09815   0.97280   0.00000  Uiso   1.00
H810   H     0.79416   0.23374   0.96773   0.00000  Uiso   1.00
H811   H     0.79554   0.09908   0.53213   0.00000  Uiso   1.00
H812   H     0.85010   0.23608   0.60812   0.00000  Uiso   1.00
N813   N     0.83333   0.28573   0.75000   0.00000  Uiso   1.00
N814   N     0.83333   0.04760   0.75000   0.00000  Uiso   1.00
O815   O     0.77226   0.20487   0.74999   0.00000  Uiso   1.00
O816   O     0.67233   0.04225   0.71264   0.00000  Uiso   1.00
O817   O     0.73721   0.08289   0.68295   0.00000  Uiso   1.00
O818   O     0.93465   0.28412   0.73028   0.00000  Uiso   1.00
O819   O     0.99183   0.27371   0.67781   0.00000  Uiso   1.00
O820   O     0.92568   0.22655   0.66533   0.00000  Uiso   1.00
O821   O     0.93613   0.04872   0.76752   0.00000  Uiso   1.00
O822   O     0.99319   0.05894   0.82002   0.00000  Uiso   1.00
O823   O     0.92638   0.10517   0.83341   0.00000  Uiso   1.00
O824   O     0.73059   0.28422   0.73318   0.00000  Uiso   1.00
O825   O     0.67163   0.29227   0.78364   0.00000  Uiso   1.00
O826   O     0.89441   0.12846   0.75000   0.00000  Uiso   1.00
O827   O     0.73675   0.25259   0.81430   0.00000  Uiso   1.00
O828   O     0.89441   0.20487   0.75000   0.00000  Uiso   1.00
O829   O     0.77226   0.12846   0.74999   0.00000  Uiso   1.00
O830   O     0.83333   0.20489   0.68453   0.00000  Uiso   1.00
O831   O     0.83334   0.12845   0.81547   0.00000  Uiso   1.00
O832   O     0.83334   0.20489   0.81547   0.00000  Uiso   1.00
O833   O     0.83333   0.12845   0.68453   0.00000  Uiso   1.00
O834   O     0.73139   0.04878   0.76284   0.00000  Uiso   1.00
S835   S     0.70677   0.07278   0.72737   0.00000  Uiso   1.00
S836   S     0.95788   0.24995   0.70271   0.00000  Uiso   1.00
S837   S     0.95886   0.08269   0.79560   0.00000  Uiso   1.00
S838   S     0.70628   0.26147   0.76963   0.00000  Uiso   1.00
Zn839  Zn    0.83333   0.21771   0.75000   0.00000  Uiso   1.00
Zn840  Zn    0.83333   0.11563   0.75000   0.00000  Uiso   1.00
C841   C     0.08647   0.50007   0.74985   0.00000  Uiso   1.00
C842   C     0.31218   0.53989   0.73788   0.00000  Uiso   1.00
C843   C     0.31258   0.46006   0.76100   0.00000  Uiso   1.00
C844   C     0.01997   0.54189   0.74960   0.00000  Uiso   1.00
C845   C     0.16764   0.53944   0.54586   0.00000  Uiso   1.00
C846   C     0.16880   0.46093   0.95418   0.00000  Uiso   1.00
C847   C     0.14037   0.53747   0.95134   0.00000  Uiso   1.00
C848   C     0.14102   0.46227   0.54858   0.00000  Uiso   1.00
C849   C     0.17168   0.53934   0.59175   0.00000  Uiso   1.00
C850   C     0.17292   0.46105   0.90829   0.00000  Uiso   1.00
C851   C     0.14518   0.53790   0.90549   0.00000  Uiso   1.00
C852   C     0.24669   0.49996   0.74994   0.00000  Uiso   1.00
C853   C     0.14576   0.46188   0.59442   0.00000  Uiso   1.00
C854   C     0.16154   0.50025   0.61596   0.00000  Uiso   1.00
C855   C     0.16181   0.49982   0.88402   0.00000  Uiso   1.00
C856   C     0.15271   0.50074   0.52414   0.00000  Uiso   1.00
C857   C     0.15285   0.49929   0.97583   0.00000  Uiso   1.00
C858   C     0.29073   0.49994   0.74963   0.00000  Uiso   1.00
C859   C     0.04211   0.50017   0.74951   0.00000  Uiso   1.00
C860   C     0.16584   0.50005   0.66381   0.00000  Uiso   1.00
C861   C     0.16595   0.49996   0.83618   0.00000  Uiso   1.00
C862   C     0.17631   0.35721   0.78783   0.00000  Uiso   1.00
C863   C     0.15702   0.64278   0.71217   0.00000  Uiso   1.00
C864   C     0.15703   0.35741   0.71217   0.00000  Uiso   1.00
C865   C     0.17641   0.64257   0.78781   0.00000  Uiso   1.00
C866   C     0.02031   0.45839   0.74911   0.00000  Uiso   1.00
H867   H     0.18418   0.37521   0.81806   0.00000  Uiso   1.00
H868   H     0.18548   0.43127   0.89196   0.00000  Uiso   1.00
H869   H     0.13564   0.56774   0.88688   0.00000  Uiso   1.00
H870   H     0.13687   0.43179   0.61295   0.00000  Uiso   1.00
H871   H     0.05360   0.43520   0.66264   0.00000  Uiso   1.00
H872   H     0.24831   0.58587   0.64772   0.00000  Uiso   1.00
H873   H     0.25154   0.41262   0.85263   0.00000  Uiso   1.00
H874   H     0.08453   0.61513   0.81903   0.00000  Uiso   1.00
H875   H     0.14912   0.62476   0.68195   0.00000  Uiso   1.00
H876   H     0.14922   0.37556   0.68192   0.00000  Uiso   1.00
H877   H     0.18436   0.62439   0.81801   0.00000  Uiso   1.00
H878   H     0.17742   0.56916   0.52730   0.00000  Uiso   1.00
H879   H     0.17925   0.43148   0.97280   0.00000  Uiso   1.00
H880   H     0.12749   0.56707   0.96773   0.00000  Uiso   1.00
H881   H     0.12887   0.43241   0.53213   0.00000  Uiso   1.00
H882   H     0.18343   0.56942   0.60812   0.00000  Uiso   1.00
N883   N     0.16667   0.61907   0.75000   0.00000  Uiso   1.00
N884   N     0.16667   0.38093   0.75000   0.00000  Uiso   1.00
O885   O     0.10559   0.53821   0.74999   0.00000  Uiso   1.00
O886   O     0.00566   0.37559   0.71264   0.00000  Uiso   1.00
O887   O     0.07055   0.41623   0.68295   0.00000  Uiso   1.00
O888   O     0.26798   0.61745   0.73028   0.00000  Uiso   1.00
O889   O     0.32517   0.60704   0.67781   0.00000  Uiso   1.00
O890   O     0.25901   0.55988   0.66533   0.00000  Uiso   1.00
O891   O     0.26947   0.38205   0.76752   0.00000  Uiso   1.00
O892   O     0.32653   0.39227   0.82002   0.00000  Uiso   1.00
O893   O     0.25971   0.43851   0.83341   0.00000  Uiso   1.00
O894   O     0.06392   0.61755   0.73318   0.00000  Uiso   1.00
O895   O     0.00496   0.62560   0.78364   0.00000  Uiso   1.00
O896   O     0.22774   0.46179   0.75000   0.00000  Uiso   1.00
O897   O     0.07008   0.58592   0.81430   0.00000  Uiso   1.00
O898   O     0.22774   0.53821   0.75000   0.00000  Uiso   1.00
O899   O     0.10559   0.46179   0.74999   0.00000  Uiso   1.00
O900   O     0.16666   0.53822   0.68453   0.00000  Uiso   1.00
O901   O     0.16667   0.46178   0.81547   0.00000  Uiso   1.00
O902   O     0.16667   0.53822   0.81547   0.00000  Uiso   1.00
O903   O     0.16666   0.46178   0.68453   0.00000  Uiso   1.00
O904   O     0.06472   0.38211   0.76284   0.00000  Uiso   1.00
S905   S     0.04010   0.40611   0.72737   0.00000  Uiso   1.00
S906   S     0.29121   0.58328   0.70271   0.00000  Uiso   1.00
S907   S     0.29219   0.41603   0.79560   0.00000  Uiso   1.00
S908   S     0.03961   0.59480   0.76963   0.00000  Uiso   1.00
Zn909  Zn    0.16667   0.55104   0.75000   0.00000  Uiso   1.00
Zn910  Zn    0.16667   0.44896   0.75000   0.00000  Uiso   1.00
C911   C     0.41980   0.50007   0.74985   0.00000  Uiso   1.00
C912   C     0.64551   0.53989   0.73788   0.00000  Uiso   1.00
C913   C     0.64591   0.46006   0.76100   0.00000  Uiso   1.00
C914   C     0.35330   0.54189   0.74960   0.00000  Uiso   1.00
C915   C     0.50098   0.53944   0.54586   0.00000  Uiso   1.00
C916   C     0.50213   0.46093   0.95418   0.00000  Uiso   1.00
C917   C     0.47370   0.53747   0.95134   0.00000  Uiso   1.00
C918   C     0.47435   0.46227   0.54858   0.00000  Uiso   1.00
C919   C     0.50501   0.53934   0.59175   0.00000  Uiso   1.00
C920   C     0.50625   0.46105   0.90829   0.00000  Uiso   1.00
C921   C     0.47851   0.53790   0.90549   0.00000  Uiso   1.00
C922   C     0.58002   0.49996   0.74994   0.00000  Uiso   1.00
C923   C     0.47909   0.46188   0.59442   0.00000  Uiso   1.00
C924   C     0.49488   0.50025   0.61596   0.00000  Uiso   1.00
C925   C     0.49515   0.49982   0.88402   0.00000  Uiso   1.00
C926   C     0.48604   0.50074   0.52414   0.00000  Uiso   1.00
C927   C     0.48618   0.49929   0.97583   0.00000  Uiso   1.00
C928   C     0.62407   0.49994   0.74963   0.00000  Uiso   1.00
C929   C     0.37545   0.50017   0.74951   0.00000  Uiso   1.00
C930   C     0.49917   0.50005   0.66381   0.00000  Uiso   1.00
C931   C     0.49929   0.49996   0.83618   0.00000  Uiso   1.00
C932   C     0.50964   0.35721   0.78783   0.00000  Uiso   1.00
C933   C     0.49036   0.64278   0.71217   0.00000  Uiso   1.00
C934   C     0.49036   0.35741   0.71217   0.00000  Uiso   1.00
C935   C     0.50974   0.64257   0.78781   0.00000  Uiso   1.00
C936   C     0.35364   0.45839   0.74911   0.00000  Uiso   1.00
H937   H     0.51751   0.37521   0.81806   0.00000  Uiso   1.00
H938   H     0.51881   0.43127   0.89196   0.00000  Uiso   1.00
H939   H     0.46898   0.56774   0.88688   0.00000  Uiso   1.00
H940   H     0.47021   0.43179   0.61295   0.00000  Uiso   1.00
H941   H     0.38694   0.43520   0.66264   0.00000  Uiso   1.00
H942   H     0.58164   0.58587   0.64772   0.00000  Uiso   1.00
H943   H     0.58488   0.41262   0.85263   0.00000  Uiso   1.00
H944   H     0.41787   0.61513   0.81903   0.00000  Uiso   1.00
H945   H     0.48246   0.62476   0.68195   0.00000  Uiso   1.00
H946   H     0.48255   0.37556   0.68192   0.00000  Uiso   1.00
H947   H     0.51769   0.62439   0.81801   0.00000  Uiso   1.00
H948   H     0.51075   0.56916   0.52730   0.00000  Uiso   1.00
H949   H     0.51259   0.43148   0.97280   0.00000  Uiso   1.00
H950   H     0.46082   0.56707   0.96773   0.00000  Uiso   1.00
H951   H     0.46221   0.43241   0.53213   0.00000  Uiso   1.00
H952   H     0.51677   0.56942   0.60812   0.00000  Uiso   1.00
N953   N     0.50000   0.61907   0.75000   0.00000  Uiso   1.00
N954   N     0.50000   0.38093   0.75000   0.00000  Uiso   1.00
O955   O     0.43892   0.53821   0.74999   0.00000  Uiso   1.00
O956   O     0.33900   0.37559   0.71264   0.00000  Uiso   1.00
O957   O     0.40388   0.41623   0.68295   0.00000  Uiso   1.00
O958   O     0.60131   0.61745   0.73028   0.00000  Uiso   1.00
O959   O     0.65850   0.60704   0.67781   0.00000  Uiso   1.00
O960   O     0.59235   0.55988   0.66533   0.00000  Uiso   1.00
O961   O     0.60280   0.38205   0.76752   0.00000  Uiso   1.00
O962   O     0.65986   0.39227   0.82002   0.00000  Uiso   1.00
O963   O     0.59304   0.43851   0.83341   0.00000  Uiso   1.00
O964   O     0.39725   0.61755   0.73318   0.00000  Uiso   1.00
O965   O     0.33829   0.62560   0.78364   0.00000  Uiso   1.00
O966   O     0.56108   0.46179   0.75000   0.00000  Uiso   1.00
O967   O     0.40342   0.58592   0.81430   0.00000  Uiso   1.00
O968   O     0.56108   0.53821   0.75000   0.00000  Uiso   1.00
O969   O     0.43892   0.46179   0.74999   0.00000  Uiso   1.00
O970   O     0.50000   0.53822   0.68453   0.00000  Uiso   1.00
O971   O     0.50000   0.46178   0.81547   0.00000  Uiso   1.00
O972   O     0.50000   0.53822   0.81547   0.00000  Uiso   1.00
O973   O     0.50000   0.46178   0.68453   0.00000  Uiso   1.00
O974   O     0.39805   0.38211   0.76284   0.00000  Uiso   1.00
S975   S     0.37344   0.40611   0.72737   0.00000  Uiso   1.00
S976   S     0.62455   0.58328   0.70271   0.00000  Uiso   1.00
S977   S     0.62552   0.41603   0.79560   0.00000  Uiso   1.00
S978   S     0.37295   0.59480   0.76963   0.00000  Uiso   1.00
Zn979  Zn    0.50000   0.55104   0.75000   0.00000  Uiso   1.00
Zn980  Zn    0.50000   0.44896   0.75000   0.00000  Uiso   1.00
C981   C     0.75313   0.50007   0.74985   0.00000  Uiso   1.00
C982   C     0.97885   0.53989   0.73788   0.00000  Uiso   1.00
C983   C     0.97924   0.46006   0.76100   0.00000  Uiso   1.00
C984   C     0.68663   0.54189   0.74960   0.00000  Uiso   1.00
C985   C     0.83431   0.53944   0.54586   0.00000  Uiso   1.00
C986   C     0.83547   0.46093   0.95418   0.00000  Uiso   1.00
C987   C     0.80703   0.53747   0.95134   0.00000  Uiso   1.00
C988   C     0.80768   0.46227   0.54858   0.00000  Uiso   1.00
C989   C     0.83834   0.53934   0.59175   0.00000  Uiso   1.00
C990   C     0.83959   0.46105   0.90829   0.00000  Uiso   1.00
C991   C     0.81185   0.53790   0.90549   0.00000  Uiso   1.00
C992   C     0.91335   0.49996   0.74994   0.00000  Uiso   1.00
C993   C     0.81242   0.46188   0.59442   0.00000  Uiso   1.00
C994   C     0.82821   0.50025   0.61596   0.00000  Uiso   1.00
C995   C     0.82848   0.49982   0.88402   0.00000  Uiso   1.00
C996   C     0.81937   0.50074   0.52414   0.00000  Uiso   1.00
C997   C     0.81952   0.49929   0.97583   0.00000  Uiso   1.00
C998   C     0.95740   0.49994   0.74963   0.00000  Uiso   1.00
C999   C     0.70878   0.50017   0.74951   0.00000  Uiso   1.00
C1000  C     0.83251   0.50005   0.66381   0.00000  Uiso   1.00
C1001  C     0.83262   0.49996   0.83618   0.00000  Uiso   1.00
C1002  C     0.84297   0.35721   0.78783   0.00000  Uiso   1.00
C1003  C     0.82369   0.64278   0.71217   0.00000  Uiso   1.00
C1004  C     0.82369   0.35741   0.71217   0.00000  Uiso   1.00
C1005  C     0.84308   0.64257   0.78781   0.00000  Uiso   1.00
C1006  C     0.68698   0.45839   0.74911   0.00000  Uiso   1.00
H1007  H     0.85084   0.37521   0.81806   0.00000  Uiso   1.00
H1008  H     0.85214   0.43127   0.89196   0.00000  Uiso   1.00
H1009  H     0.80231   0.56774   0.88688   0.00000  Uiso   1.00
H1010  H     0.80354   0.43179   0.61295   0.00000  Uiso   1.00
H1011  H     0.72027   0.43520   0.66264   0.00000  Uiso   1.00
H1012  H     0.91497   0.58587   0.64772   0.00000  Uiso   1.00
H1013  H     0.91821   0.41262   0.85263   0.00000  Uiso   1.00
H1014  H     0.75120   0.61513   0.81903   0.00000  Uiso   1.00
H1015  H     0.81579   0.62476   0.68195   0.00000  Uiso   1.00
H1016  H     0.81589   0.37556   0.68192   0.00000  Uiso   1.00
H1017  H     0.85102   0.62439   0.81801   0.00000  Uiso   1.00
H1018  H     0.84409   0.56916   0.52730   0.00000  Uiso   1.00
H1019  H     0.84592   0.43148   0.97280   0.00000  Uiso   1.00
H1020  H     0.79416   0.56707   0.96773   0.00000  Uiso   1.00
H1021  H     0.79554   0.43241   0.53213   0.00000  Uiso   1.00
H1022  H     0.85010   0.56942   0.60812   0.00000  Uiso   1.00
N1023  N     0.83333   0.61907   0.75000   0.00000  Uiso   1.00
N1024  N     0.83333   0.38093   0.75000   0.00000  Uiso   1.00
O1025  O     0.77226   0.53821   0.74999   0.00000  Uiso   1.00
O1026  O     0.67233   0.37559   0.71264   0.00000  Uiso   1.00
O1027  O     0.73721   0.41623   0.68295   0.00000  Uiso   1.00
O1028  O     0.93465   0.61745   0.73028   0.00000  Uiso   1.00
O1029  O     0.99183   0.60704   0.67781   0.00000  Uiso   1.00
O1030  O     0.92568   0.55988   0.66533   0.00000  Uiso   1.00
O1031  O     0.93613   0.38205   0.76752   0.00000  Uiso   1.00
O1032  O     0.99319   0.39227   0.82002   0.00000  Uiso   1.00
O1033  O     0.92638   0.43851   0.83341   0.00000  Uiso   1.00
O1034  O     0.73059   0.61755   0.73318   0.00000  Uiso   1.00
O1035  O     0.67163   0.62560   0.78364   0.00000  Uiso   1.00
O1036  O     0.89441   0.46179   0.75000   0.00000  Uiso   1.00
O1037  O     0.73675   0.58592   0.81430   0.00000  Uiso   1.00
O1038  O     0.89441   0.53821   0.75000   0.00000  Uiso   1.00
O1039  O     0.77226   0.46179   0.74999   0.00000  Uiso   1.00
O1040  O     0.83333   0.53822   0.68453   0.00000  Uiso   1.00
O1041  O     0.83334   0.46178   0.81547   0.00000  Uiso   1.00
O1042  O     0.83334   0.53822   0.81547   0.00000  Uiso   1.00
O1043  O     0.83333   0.46178   0.68453   0.00000  Uiso   1.00
O1044  O     0.73139   0.38211   0.76284   0.00000  Uiso   1.00
S1045  S     0.70677   0.40611   0.72737   0.00000  Uiso   1.00
S1046  S     0.95788   0.58328   0.70271   0.00000  Uiso   1.00
S1047  S     0.95886   0.41603   0.79560   0.00000  Uiso   1.00
S1048  S     0.70628   0.59480   0.76963   0.00000  Uiso   1.00
Zn1049 Zn    0.83333   0.55104   0.75000   0.00000  Uiso   1.00
Zn1050 Zn    0.83333   0.44896   0.75000   0.00000  Uiso   1.00
C1051  C     0.08647   0.83340   0.74985   0.00000  Uiso   1.00
C1052  C     0.31218   0.87322   0.73788   0.00000  Uiso   1.00
C1053  C     0.31258   0.79339   0.76100   0.00000  Uiso   1.00
C1054  C     0.01997   0.87522   0.74960   0.00000  Uiso   1.00
C1055  C     0.16764   0.87278   0.54586   0.00000  Uiso   1.00
C1056  C     0.16880   0.79426   0.95418   0.00000  Uiso   1.00
C1057  C     0.14037   0.87081   0.95134   0.00000  Uiso   1.00
C1058  C     0.14102   0.79560   0.54858   0.00000  Uiso   1.00
C1059  C     0.17168   0.87268   0.59175   0.00000  Uiso   1.00
C1060  C     0.17292   0.79438   0.90829   0.00000  Uiso   1.00
C1061  C     0.14518   0.87123   0.90549   0.00000  Uiso   1.00
C1062  C     0.24669   0.83329   0.74994   0.00000  Uiso   1.00
C1063  C     0.14576   0.79521   0.59442   0.00000  Uiso   1.00
C1064  C     0.16154   0.83358   0.61596   0.00000  Uiso   1.00
C1065  C     0.16181   0.83315   0.88402   0.00000  Uiso   1.00
C1066  C     0.15271   0.83407   0.52414   0.00000  Uiso   1.00
C1067  C     0.15285   0.83262   0.97583   0.00000  Uiso   1.00
C1068  C     0.29073   0.83327   0.74963   0.00000  Uiso   1.00
C1069  C     0.04211   0.83350   0.74951   0.00000  Uiso   1.00
C1070  C     0.16584   0.83339   0.66381   0.00000  Uiso   1.00
C1071  C     0.16595   0.83329   0.83618   0.00000  Uiso   1.00
C1072  C     0.17631   0.69054   0.78783   0.00000  Uiso   1.00
C1073  C     0.15702   0.97611   0.71217   0.00000  Uiso   1.00
C1074  C     0.15703   0.69075   0.71217   0.00000  Uiso   1.00
C1075  C     0.17641   0.97590   0.78781   0.00000  Uiso   1.00
C1076  C     0.02031   0.79173   0.74911   0.00000  Uiso   1.00
H1077  H     0.18418   0.70855   0.81806   0.00000  Uiso   1.00
H1078  H     0.18548   0.76460   0.89196   0.00000  Uiso   1.00
H1079  H     0.13564   0.90107   0.88688   0.00000  Uiso   1.00
H1080  H     0.13687   0.76513   0.61295   0.00000  Uiso   1.00
H1081  H     0.05360   0.76853   0.66264   0.00000  Uiso   1.00
H1082  H     0.24831   0.91921   0.64772   0.00000  Uiso   1.00
H1083  H     0.25154   0.74595   0.85263   0.00000  Uiso   1.00
H1084  H     0.08453   0.94847   0.81903   0.00000  Uiso   1.00
H1085  H     0.14912   0.95809   0.68195   0.00000  Uiso   1.00
H1086  H     0.14922   0.70890   0.68192   0.00000  Uiso   1.00
H1087  H     0.18436   0.95772   0.81801   0.00000  Uiso   1.00
H1088  H     0.17742   0.90249   0.52730   0.00000  Uiso   1.00
H1089  H     0.17925   0.76481   0.97280   0.00000  Uiso   1.00
H1090  H     0.12749   0.90041   0.96773   0.00000  Uiso   1.00
H1091  H     0.12887   0.76574   0.53213   0.00000  Uiso   1.00
H1092  H     0.18343   0.90275   0.60812   0.00000  Uiso   1.00
N1093  N     0.16667   0.95240   0.75000   0.00000  Uiso   1.00
N1094  N     0.16667   0.71427   0.75000   0.00000  Uiso   1.00
O1095  O     0.10559   0.87154   0.74999   0.00000  Uiso   1.00
O1096  O     0.00566   0.70892   0.71264   0.00000  Uiso   1.00
O1097  O     0.07055   0.74956   0.68295   0.00000  Uiso   1.00
O1098  O     0.26798   0.95078   0.73028   0.00000  Uiso   1.00
O1099  O     0.32517   0.94037   0.67781   0.00000  Uiso   1.00
O1100  O     0.25901   0.89322   0.66533   0.00000  Uiso   1.00
O1101  O     0.26947   0.71539   0.76752   0.00000  Uiso   1.00
O1102  O     0.32653   0.72561   0.82002   0.00000  Uiso   1.00
O1103  O     0.25971   0.77184   0.83341   0.00000  Uiso   1.00
O1104  O     0.06392   0.95089   0.73318   0.00000  Uiso   1.00
O1105  O     0.00496   0.95893   0.78364   0.00000  Uiso   1.00
O1106  O     0.22774   0.79513   0.75000   0.00000  Uiso   1.00
O1107  O     0.07008   0.91925   0.81430   0.00000  Uiso   1.00
O1108  O     0.22774   0.87154   0.75000   0.00000  Uiso   1.00
O1109  O     0.10559   0.79513   0.74999   0.00000  Uiso   1.00
O1110  O     0.16666   0.87155   0.68453   0.00000  Uiso   1.00
O1111  O     0.16667   0.79511   0.81547   0.00000  Uiso   1.00
O1112  O     0.16667   0.87155   0.81547   0.00000  Uiso   1.00
O1113  O     0.16666   0.79511   0.68453   0.00000  Uiso   1.00
O1114  O     0.06472   0.71545   0.76284   0.00000  Uiso   1.00
S1115  S     0.04010   0.73944   0.72737   0.00000  Uiso   1.00
S1116  S     0.29121   0.91661   0.70271   0.00000  Uiso   1.00
S1117  S     0.29219   0.74936   0.79560   0.00000  Uiso   1.00
S1118  S     0.03961   0.92814   0.76963   0.00000  Uiso   1.00
Zn1119 Zn    0.16667   0.88437   0.75000   0.00000  Uiso   1.00
Zn1120 Zn    0.16667   0.78229   0.75000   0.00000  Uiso   1.00
C1121  C     0.41980   0.83340   0.74985   0.00000  Uiso   1.00
C1122  C     0.64551   0.87322   0.73788   0.00000  Uiso   1.00
C1123  C     0.64591   0.79339   0.76100   0.00000  Uiso   1.00
C1124  C     0.35330   0.87522   0.74960   0.00000  Uiso   1.00
C1125  C     0.50098   0.87278   0.54586   0.00000  Uiso   1.00
C1126  C     0.50213   0.79426   0.95418   0.00000  Uiso   1.00
C1127  C     0.47370   0.87081   0.95134   0.00000  Uiso   1.00
C1128  C     0.47435   0.79560   0.54858   0.00000  Uiso   1.00
C1129  C     0.50501   0.87268   0.59175   0.00000  Uiso   1.00
C1130  C     0.50625   0.79438   0.90829   0.00000  Uiso   1.00
C1131  C     0.47851   0.87123   0.90549   0.00000  Uiso   1.00
C1132  C     0.58002   0.83329   0.74994   0.00000  Uiso   1.00
C1133  C     0.47909   0.79521   0.59442   0.00000  Uiso   1.00
C1134  C     0.49488   0.83358   0.61596   0.00000  Uiso   1.00
C1135  C     0.49515   0.83315   0.88402   0.00000  Uiso   1.00
C1136  C     0.48604   0.83407   0.52414   0.00000  Uiso   1.00
C1137  C     0.48618   0.83262   0.97583   0.00000  Uiso   1.00
C1138  C     0.62407   0.83327   0.74963   0.00000  Uiso   1.00
C1139  C     0.37545   0.83350   0.74951   0.00000  Uiso   1.00
C1140  C     0.49917   0.83339   0.66381   0.00000  Uiso   1.00
C1141  C     0.49929   0.83329   0.83618   0.00000  Uiso   1.00
C1142  C     0.50964   0.69054   0.78783   0.00000  Uiso   1.00
C1143  C     0.49036   0.97611   0.71217   0.00000  Uiso   1.00
C1144  C     0.49036   0.69075   0.71217   0.00000  Uiso   1.00
C1145  C     0.50974   0.97590   0.78781   0.00000  Uiso   1.00
C1146  C     0.35364   0.79173   0.74911   0.00000  Uiso   1.00
H1147  H     0.51751   0.70855   0.81806   0.00000  Uiso   1.00
H1148  H     0.51881   0.76460   0.89196   0.00000  Uiso   1.00
H1149  H     0.46898   0.90107   0.88688   0.00000  Uiso   1.00
H1150  H     0.47021   0.76513   0.61295   0.00000  Uiso   1.00
H1151  H     0.38694   0.76853   0.66264   0.00000  Uiso   1.00
H1152  H     0.58164   0.91921   0.64772   0.00000  Uiso   1.00
H1153  H     0.58488   0.74595   0.85263   0.00000  Uiso   1.00
H1154  H     0.41787   0.94847   0.81903   0.00000  Uiso   1.00
H1155  H     0.48246   0.95809   0.68195   0.00000  Uiso   1.00
H1156  H     0.48255   0.70890   0.68192   0.00000  Uiso   1.00
H1157  H     0.51769   0.95772   0.81801   0.00000  Uiso   1.00
H1158  H     0.51075   0.90249   0.52730   0.00000  Uiso   1.00
H1159  H     0.51259   0.76481   0.97280   0.00000  Uiso   1.00
H1160  H     0.46082   0.90041   0.96773   0.00000  Uiso   1.00
H1161  H     0.46221   0.76574   0.53213   0.00000  Uiso   1.00
H1162  H     0.51677   0.90275   0.60812   0.00000  Uiso   1.00
N1163  N     0.50000   0.95240   0.75000   0.00000  Uiso   1.00
N1164  N     0.50000   0.71427   0.75000   0.00000  Uiso   1.00
O1165  O     0.43892   0.87154   0.74999   0.00000  Uiso   1.00
O1166  O     0.33900   0.70892   0.71264   0.00000  Uiso   1.00
O1167  O     0.40388   0.74956   0.68295   0.00000  Uiso   1.00
O1168  O     0.60131   0.95078   0.73028   0.00000  Uiso   1.00
O1169  O     0.65850   0.94037   0.67781   0.00000  Uiso   1.00
O1170  O     0.59235   0.89322   0.66533   0.00000  Uiso   1.00
O1171  O     0.60280   0.71539   0.76752   0.00000  Uiso   1.00
O1172  O     0.65986   0.72561   0.82002   0.00000  Uiso   1.00
O1173  O     0.59304   0.77184   0.83341   0.00000  Uiso   1.00
O1174  O     0.39725   0.95089   0.73318   0.00000  Uiso   1.00
O1175  O     0.33829   0.95893   0.78364   0.00000  Uiso   1.00
O1176  O     0.56108   0.79513   0.75000   0.00000  Uiso   1.00
O1177  O     0.40342   0.91925   0.81430   0.00000  Uiso   1.00
O1178  O     0.56108   0.87154   0.75000   0.00000  Uiso   1.00
O1179  O     0.43892   0.79513   0.74999   0.00000  Uiso   1.00
O1180  O     0.50000   0.87155   0.68453   0.00000  Uiso   1.00
O1181  O     0.50000   0.79511   0.81547   0.00000  Uiso   1.00
O1182  O     0.50000   0.87155   0.81547   0.00000  Uiso   1.00
O1183  O     0.50000   0.79511   0.68453   0.00000  Uiso   1.00
O1184  O     0.39805   0.71545   0.76284   0.00000  Uiso   1.00
S1185  S     0.37344   0.73944   0.72737   0.00000  Uiso   1.00
S1186  S     0.62455   0.91661   0.70271   0.00000  Uiso   1.00
S1187  S     0.62552   0.74936   0.79560   0.00000  Uiso   1.00
S1188  S     0.37295   0.92814   0.76963   0.00000  Uiso   1.00
Zn1189 Zn    0.50000   0.88437   0.75000   0.00000  Uiso   1.00
Zn1190 Zn    0.50000   0.78229   0.75000   0.00000  Uiso   1.00
C1191  C     0.75313   0.83340   0.74985   0.00000  Uiso   1.00
C1192  C     0.97885   0.87322   0.73788   0.00000  Uiso   1.00
C1193  C     0.97924   0.79339   0.76100   0.00000  Uiso   1.00
C1194  C     0.68663   0.87522   0.74960   0.00000  Uiso   1.00
C1195  C     0.83431   0.87278   0.54586   0.00000  Uiso   1.00
C1196  C     0.83547   0.79426   0.95418   0.00000  Uiso   1.00
C1197  C     0.80703   0.87081   0.95134   0.00000  Uiso   1.00
C1198  C     0.80768   0.79560   0.54858   0.00000  Uiso   1.00
C1199  C     0.83834   0.87268   0.59175   0.00000  Uiso   1.00
C1200  C     0.83959   0.79438   0.90829   0.00000  Uiso   1.00
C1201  C     0.81185   0.87123   0.90549   0.00000  Uiso   1.00
C1202  C     0.91335   0.83329   0.74994   0.00000  Uiso   1.00
C1203  C     0.81242   0.79521   0.59442   0.00000  Uiso   1.00
C1204  C     0.82821   0.83358   0.61596   0.00000  Uiso   1.00
C1205  C     0.82848   0.83315   0.88402   0.00000  Uiso   1.00
C1206  C     0.81937   0.83407   0.52414   0.00000  Uiso   1.00
C1207  C     0.81952   0.83262   0.97583   0.00000  Uiso   1.00
C1208  C     0.95740   0.83327   0.74963   0.00000  Uiso   1.00
C1209  C     0.70878   0.83350   0.74951   0.00000  Uiso   1.00
C1210  C     0.83251   0.83339   0.66381   0.00000  Uiso   1.00
C1211  C     0.83262   0.83329   0.83618   0.00000  Uiso   1.00
C1212  C     0.84297   0.69054   0.78783   0.00000  Uiso   1.00
C1213  C     0.82369   0.97611   0.71217   0.00000  Uiso   1.00
C1214  C     0.82369   0.69075   0.71217   0.00000  Uiso   1.00
C1215  C     0.84308   0.97590   0.78781   0.00000  Uiso   1.00
C1216  C     0.68698   0.79173   0.74911   0.00000  Uiso   1.00
H1217  H     0.85084   0.70855   0.81806   0.00000  Uiso   1.00
H1218  H     0.85214   0.76460   0.89196   0.00000  Uiso   1.00
H1219  H     0.80231   0.90107   0.88688   0.00000  Uiso   1.00
H1220  H     0.80354   0.76513   0.61295   0.00000  Uiso   1.00
H1221  H     0.72027   0.76853   0.66264   0.00000  Uiso   1.00
H1222  H     0.91497   0.91921   0.64772   0.00000  Uiso   1.00
H1223  H     0.91821   0.74595   0.85263   0.00000  Uiso   1.00
H1224  H     0.75120   0.94847   0.81903   0.00000  Uiso   1.00
H1225  H     0.81579   0.95809   0.68195   0.00000  Uiso   1.00
H1226  H     0.81589   0.70890   0.68192   0.00000  Uiso   1.00
H1227  H     0.85102   0.95772   0.81801   0.00000  Uiso   1.00
H1228  H     0.84409   0.90249   0.52730   0.00000  Uiso   1.00
H1229  H     0.84592   0.76481   0.97280   0.00000  Uiso   1.00
H1230  H     0.79416   0.90041   0.96773   0.00000  Uiso   1.00
H1231  H     0.79554   0.76574   0.53213   0.00000  Uiso   1.00
H1232  H     0.85010   0.90275   0.60812   0.00000  Uiso   1.00
N1233  N     0.83333   0.95240   0.75000   0.00000  Uiso   1.00
N1234  N     0.83333   0.71427   0.75000   0.00000  Uiso   1.00
O1235  O     0.77226   0.87154   0.74999   0.00000  Uiso   1.00
O1236  O     0.67233   0.70892   0.71264   0.00000  Uiso   1.00
O1237  O     0.73721   0.74956   0.68295   0.00000  Uiso   1.00
O1238  O     0.93465   0.95078   0.73028   0.00000  Uiso   1.00
O1239  O     0.99183   0.94037   0.67781   0.00000  Uiso   1.00
O1240  O     0.92568   0.89322   0.66533   0.00000  Uiso   1.00
O1241  O     0.93613   0.71539   0.76752   0.00000  Uiso   1.00
O1242  O     0.99319   0.72561   0.82002   0.00000  Uiso   1.00
O1243  O     0.92638   0.77184   0.83341   0.00000  Uiso   1.00
O1244  O     0.73059   0.95089   0.73318   0.00000  Uiso   1.00
O1245  O     0.67163   0.95893   0.78364   0.00000  Uiso   1.00
O1246  O     0.89441   0.79513   0.75000   0.00000  Uiso   1.00
O1247  O     0.73675   0.91925   0.81430   0.00000  Uiso   1.00
O1248  O     0.89441   0.87154   0.75000   0.00000  Uiso   1.00
O1249  O     0.77226   0.79513   0.74999   0.00000  Uiso   1.00
O1250  O     0.83333   0.87155   0.68453   0.00000  Uiso   1.00
O1251  O     0.83334   0.79511   0.81547   0.00000  Uiso   1.00
O1252  O     0.83334   0.87155   0.81547   0.00000  Uiso   1.00
O1253  O     0.83333   0.79511   0.68453   0.00000  Uiso   1.00
O1254  O     0.73139   0.71545   0.76284   0.00000  Uiso   1.00
S1255  S     0.70677   0.73944   0.72737   0.00000  Uiso   1.00
S1256  S     0.95788   0.91661   0.70271   0.00000  Uiso   1.00
S1257  S     0.95886   0.74936   0.79560   0.00000  Uiso   1.00
S1258  S     0.70628   0.92814   0.76963   0.00000  Uiso   1.00
Zn1259 Zn    0.83333   0.88437   0.75000   0.00000  Uiso   1.00
Zn1260 Zn    0.83333   0.78229   0.75000   0.00000  Uiso   1.00
loop_
_geom_bond_atom_site_label_1
_geom_bond_atom_site_label_2
_geom_bond_distance
_geom_bond_site_symmetry_2
_ccdc_geom_bond_type
C1     O59     1.284   .     A
C1     C19     1.439   .     S
C1     O45     1.284   .     A
C2     C18     1.411   .     A
C2     S66     1.787   .     S
C2     C74     1.381   .     S
C3     S67     1.785   .     S
C3     C18     1.411   .     A
C3     C96     1.380   .     S
C4     C19     1.421   .     A
C4     S68     1.789   .     S
C4     C142    1.381   1_455 S
C5     C9      1.380   .     A
C5     C16     1.400   .     A
C5     H38     1.083   .     S
C6     C10     1.380   .     A
C6     C17     1.401   .     A
C6     H39     1.083   .     S
C7     H40     1.083   .     S
C7     C11     1.381   .     A
C7     C17     1.399   .     A
C8     C13     1.381   .     A
C8     C16     1.399   .     A
C8     H41     1.083   .     S
C9     C14     1.398   .     A
C9     H42     1.083   .     S
C10    C15     1.398   .     A
C10    H28     1.083   .     S
C11    C15     1.400   .     A
C11    H29     1.084   .     S
C12    O58     1.281   .     A
C12    C18     1.429   .     S
C12    O56     1.282   .     A
C13    C14     1.400   .     A
C13    H30     1.083   .     S
C14    C20     1.439   .     S
C15    C21     1.438   .     S
C16    C647    1.447   1_554 S
C17    C646    1.447   .     S
C19    C26     1.420   .     A
C20    O60     1.285   .     A
C20    O63     1.285   .     A
C21    O62     1.284   .     A
C21    O61     1.284   .     A
C22    H27     1.081   .     S
C22    N44     1.365   .     A
C22    C445    1.412   1_545 S
C23    H35     1.081   .     S
C23    N43     1.365   .     A
C23    C234    1.412   .     S
C24    H36     1.080   .     S
C24    N44     1.365   .     A
C24    C443    1.412   1_545 S
C25    N43     1.365   .     A
C25    H37     1.081   .     S
C25    C232    1.412   .     S
C26    S65     1.789   .     S
C26    C143    1.380   1_455 S
H31    O47     0.990   .     S
H32    O50     0.990   .     S
H33    O53     0.990   .     S
H34    O57     0.991   .     S
N43    Zn69    2.002   .     S
N44    Zn70    2.002   .     S
O45    Zn69    2.018   .     S
O46    S65     1.503   .     D
O47    S65     1.683   .     S
O48    S66     1.503   .     D
O49    S66     1.503   .     D
O50    S66     1.681   .     S
O51    S67     1.503   .     D
O52    S67     1.503   .     D
O53    S67     1.682   .     S
O54    S68     1.503   .     D
O55    S68     1.502   .     D
O56    Zn70    2.018   .     S
O57    S68     1.683   .     S
O58    Zn69    2.017   .     S
O59    Zn70    2.017   .     S
O60    Zn69    1.997   .     S
O61    Zn70    1.997   .     S
O62    Zn69    1.995   .     S
O63    Zn70    1.995   .     S
O64    S65     1.503   .     D
C71    O129    1.284   .     A
C71    C89     1.439   .     S
C71    O115    1.284   .     A
C72    C88     1.411   .     A
C72    S136    1.787   .     S
C72    C144    1.381   .     S
C73    S137    1.785   .     S
C73    C88     1.411   .     A
C73    C166    1.380   .     S
C74    C89     1.421   .     A
C74    S138    1.789   .     S
C75    C79     1.380   .     A
C75    C86     1.400   .     A
C75    H108    1.083   .     S
C76    C80     1.380   .     A
C76    C87     1.401   .     A
C76    H109    1.083   .     S
C77    H110    1.083   .     S
C77    C81     1.381   .     A
C77    C87     1.399   .     A
C78    C83     1.381   .     A
C78    C86     1.399   .     A
C78    H111    1.083   .     S
C79    C84     1.398   .     A
C79    H112    1.083   .     S
C80    C85     1.398   .     A
C80    H98     1.083   .     S
C81    C85     1.400   .     A
C81    H99     1.084   .     S
C82    O128    1.281   .     A
C82    C88     1.429   .     S
C82    O126    1.282   .     A
C83    C84     1.400   .     A
C83    H100    1.083   .     S
C84    C90     1.439   .     S
C85    C91     1.438   .     S
C86    C717    1.447   1_554 S
C87    C716    1.447   .     S
C89    C96     1.420   .     A
C90    O130    1.285   .     A
C90    O133    1.285   .     A
C91    O132    1.284   .     A
C91    O131    1.284   .     A
C92    H97     1.081   .     S
C92    N114    1.365   .     A
C92    C515    1.412   1_545 S
C93    H105    1.081   .     S
C93    N113    1.365   .     A
C93    C304    1.412   .     S
C94    H106    1.080   .     S
C94    N114    1.365   .     A
C94    C513    1.412   1_545 S
C95    N113    1.365   .     A
C95    H107    1.081   .     S
C95    C302    1.412   .     S
C96    S135    1.789   .     S
H101   O117    0.990   .     S
H102   O120    0.990   .     S
H103   O123    0.990   .     S
H104   O127    0.991   .     S
N113   Zn139   2.002   .     S
N114   Zn140   2.002   .     S
O115   Zn139   2.018   .     S
O116   S135    1.503   .     D
O117   S135    1.683   .     S
O118   S136    1.503   .     D
O119   S136    1.503   .     D
O120   S136    1.681   .     S
O121   S137    1.503   .     D
O122   S137    1.503   .     D
O123   S137    1.682   .     S
O124   S138    1.503   .     D
O125   S138    1.502   .     D
O126   Zn140   2.018   .     S
O127   S138    1.683   .     S
O128   Zn139   2.017   .     S
O129   Zn140   2.017   .     S
O130   Zn139   1.997   .     S
O131   Zn140   1.997   .     S
O132   Zn139   1.995   .     S
O133   Zn140   1.995   .     S
O134   S135    1.503   .     D
C141   O199    1.284   .     A
C141   C159    1.439   .     S
C141   O185    1.284   .     A
C142   C158    1.411   .     A
C142   S206    1.787   .     S
C142   C4      1.381   1_655 S
C143   S207    1.785   .     S
C143   C158    1.411   .     A
C143   C26     1.380   1_655 S
C144   C159    1.421   .     A
C144   S208    1.789   .     S
C145   C149    1.380   .     A
C145   C156    1.400   .     A
C145   H178    1.083   .     S
C146   C150    1.380   .     A
C146   C157    1.401   .     A
C146   H179    1.083   .     S
C147   H180    1.083   .     S
C147   C151    1.381   .     A
C147   C157    1.399   .     A
C148   C153    1.381   .     A
C148   C156    1.399   .     A
C148   H181    1.083   .     S
C149   C154    1.398   .     A
C149   H182    1.083   .     S
C150   C155    1.398   .     A
C150   H168    1.083   .     S
C151   C155    1.400   .     A
C151   H169    1.084   .     S
C152   O198    1.281   .     A
C152   C158    1.429   .     S
C152   O196    1.282   .     A
C153   C154    1.400   .     A
C153   H170    1.083   .     S
C154   C160    1.439   .     S
C155   C161    1.438   .     S
C156   C787    1.447   1_554 S
C157   C786    1.447   .     S
C159   C166    1.420   .     A
C160   O200    1.285   .     A
C160   O203    1.285   .     A
C161   O202    1.284   .     A
C161   O201    1.284   .     A
C162   H167    1.081   .     S
C162   N184    1.365   .     A
C162   C585    1.412   1_545 S
C163   H175    1.081   .     S
C163   N183    1.365   .     A
C163   C374    1.412   .     S
C164   H176    1.080   .     S
C164   N184    1.365   .     A
C164   C583    1.412   1_545 S
C165   N183    1.365   .     A
C165   H177    1.081   .     S
C165   C372    1.412   .     S
C166   S205    1.789   .     S
H171   O187    0.990   .     S
H172   O190    0.990   .     S
H173   O193    0.990   .     S
H174   O197    0.991   .     S
N183   Zn209   2.002   .     S
N184   Zn210   2.002   .     S
O185   Zn209   2.018   .     S
O186   S205    1.503   .     D
O187   S205    1.683   .     S
O188   S206    1.503   .     D
O189   S206    1.503   .     D
O190   S206    1.681   .     S
O191   S207    1.503   .     D
O192   S207    1.503   .     D
O193   S207    1.682   .     S
O194   S208    1.503   .     D
O195   S208    1.502   .     D
O196   Zn210   2.018   .     S
O197   S208    1.683   .     S
O198   Zn209   2.017   .     S
O199   Zn210   2.017   .     S
O200   Zn209   1.997   .     S
O201   Zn210   1.997   .     S
O202   Zn209   1.995   .     S
O203   Zn210   1.995   .     S
O204   S205    1.503   .     D
C211   O269    1.284   .     A
C211   C229    1.439   .     S
C211   O255    1.284   .     A
C212   C228    1.411   .     A
C212   S276    1.787   .     S
C212   C284    1.381   .     S
C213   S277    1.785   .     S
C213   C228    1.411   .     A
C213   C306    1.380   .     S
C214   C229    1.421   .     A
C214   S278    1.789   .     S
C214   C352    1.381   1_455 S
C215   C219    1.380   .     A
C215   C226    1.400   .     A
C215   H248    1.083   .     S
C216   C220    1.380   .     A
C216   C227    1.401   .     A
C216   H249    1.083   .     S
C217   H250    1.083   .     S
C217   C221    1.381   .     A
C217   C227    1.399   .     A
C218   C223    1.381   .     A
C218   C226    1.399   .     A
C218   H251    1.083   .     S
C219   C224    1.398   .     A
C219   H252    1.083   .     S
C220   C225    1.398   .     A
C220   H238    1.083   .     S
C221   C225    1.400   .     A
C221   H239    1.084   .     S
C222   O268    1.281   .     A
C222   C228    1.429   .     S
C222   O266    1.282   .     A
C223   C224    1.400   .     A
C223   H240    1.083   .     S
C224   C230    1.439   .     S
C225   C231    1.438   .     S
C226   C857    1.447   1_554 S
C227   C856    1.447   .     S
C229   C236    1.420   .     A
C230   O270    1.285   .     A
C230   O273    1.285   .     A
C231   O272    1.284   .     A
C231   O271    1.284   .     A
C232   H237    1.081   .     S
C232   N254    1.365   .     A
C233   H245    1.081   .     S
C233   N253    1.365   .     A
C233   C444    1.412   .     S
C234   H246    1.080   .     S
C234   N254    1.365   .     A
C235   N253    1.365   .     A
C235   H247    1.081   .     S
C235   C442    1.412   .     S
C236   S275    1.789   .     S
C236   C353    1.380   1_455 S
H241   O257    0.990   .     S
H242   O260    0.990   .     S
H243   O263    0.990   .     S
H244   O267    0.991   .     S
N253   Zn279   2.002   .     S
N254   Zn280   2.002   .     S
O255   Zn279   2.018   .     S
O256   S275    1.503   .     D
O257   S275    1.683   .     S
O258   S276    1.503   .     D
O259   S276    1.503   .     D
O260   S276    1.681   .     S
O261   S277    1.503   .     D
O262   S277    1.503   .     D
O263   S277    1.682   .     S
O264   S278    1.503   .     D
O265   S278    1.502   .     D
O266   Zn280   2.018   .     S
O267   S278    1.683   .     S
O268   Zn279   2.017   .     S
O269   Zn280   2.017   .     S
O270   Zn279   1.997   .     S
O271   Zn280   1.997   .     S
O272   Zn279   1.995   .     S
O273   Zn280   1.995   .     S
O274   S275    1.503   .     D
C281   O339    1.284   .     A
C281   C299    1.439   .     S
C281   O325    1.284   .     A
C282   C298    1.411   .     A
C282   S346    1.787   .     S
C282   C354    1.381   .     S
C283   S347    1.785   .     S
C283   C298    1.411   .     A
C283   C376    1.380   .     S
C284   C299    1.421   .     A
C284   S348    1.789   .     S
C285   C289    1.380   .     A
C285   C296    1.400   .     A
C285   H318    1.083   .     S
C286   C290    1.380   .     A
C286   C297    1.401   .     A
C286   H319    1.083   .     S
C287   H320    1.083   .     S
C287   C291    1.381   .     A
C287   C297    1.399   .     A
C288   C293    1.381   .     A
C288   C296    1.399   .     A
C288   H321    1.083   .     S
C289   C294    1.398   .     A
C289   H322    1.083   .     S
C290   C295    1.398   .     A
C290   H308    1.083   .     S
C291   C295    1.400   .     A
C291   H309    1.084   .     S
C292   O338    1.281   .     A
C292   C298    1.429   .     S
C292   O336    1.282   .     A
C293   C294    1.400   .     A
C293   H310    1.083   .     S
C294   C300    1.439   .     S
C295   C301    1.438   .     S
C296   C927    1.447   1_554 S
C297   C926    1.447   .     S
C299   C306    1.420   .     A
C300   O340    1.285   .     A
C300   O343    1.285   .     A
C301   O342    1.284   .     A
C301   O341    1.284   .     A
C302   H307    1.081   .     S
C302   N324    1.365   .     A
C303   H315    1.081   .     S
C303   N323    1.365   .     A
C303   C514    1.412   .     S
C304   H316    1.080   .     S
C304   N324    1.365   .     A
C305   N323    1.365   .     A
C305   H317    1.081   .     S
C305   C512    1.412   .     S
C306   S345    1.789   .     S
H311   O327    0.990   .     S
H312   O330    0.990   .     S
H313   O333    0.990   .     S
H314   O337    0.991   .     S
N323   Zn349   2.002   .     S
N324   Zn350   2.002   .     S
O325   Zn349   2.018   .     S
O326   S345    1.503   .     D
O327   S345    1.683   .     S
O328   S346    1.503   .     D
O329   S346    1.503   .     D
O330   S346    1.681   .     S
O331   S347    1.503   .     D
O332   S347    1.503   .     D
O333   S347    1.682   .     S
O334   S348    1.503   .     D
O335   S348    1.502   .     D
O336   Zn350   2.018   .     S
O337   S348    1.683   .     S
O338   Zn349   2.017   .     S
O339   Zn350   2.017   .     S
O340   Zn349   1.997   .     S
O341   Zn350   1.997   .     S
O342   Zn349   1.995   .     S
O343   Zn350   1.995   .     S
O344   S345    1.503   .     D
C351   O409    1.284   .     A
C351   C369    1.439   .     S
C351   O395    1.284   .     A
C352   C368    1.411   .     A
C352   S416    1.787   .     S
C352   C214    1.381   1_655 S
C353   S417    1.785   .     S
C353   C368    1.411   .     A
C353   C236    1.380   1_655 S
C354   C369    1.421   .     A
C354   S418    1.789   .     S
C355   C359    1.380   .     A
C355   C366    1.400   .     A
C355   H388    1.083   .     S
C356   C360    1.380   .     A
C356   C367    1.401   .     A
C356   H389    1.083   .     S
C357   H390    1.083   .     S
C357   C361    1.381   .     A
C357   C367    1.399   .     A
C358   C363    1.381   .     A
C358   C366    1.399   .     A
C358   H391    1.083   .     S
C359   C364    1.398   .     A
C359   H392    1.083   .     S
C360   C365    1.398   .     A
C360   H378    1.083   .     S
C361   C365    1.400   .     A
C361   H379    1.084   .     S
C362   O408    1.281   .     A
C362   C368    1.429   .     S
C362   O406    1.282   .     A
C363   C364    1.400   .     A
C363   H380    1.083   .     S
C364   C370    1.439   .     S
C365   C371    1.438   .     S
C366   C997    1.447   1_554 S
C367   C996    1.447   .     S
C369   C376    1.420   .     A
C370   O410    1.285   .     A
C370   O413    1.285   .     A
C371   O412    1.284   .     A
C371   O411    1.284   .     A
C372   H377    1.081   .     S
C372   N394    1.365   .     A
C373   H385    1.081   .     S
C373   N393    1.365   .     A
C373   C584    1.412   .     S
C374   H386    1.080   .     S
C374   N394    1.365   .     A
C375   N393    1.365   .     A
C375   H387    1.081   .     S
C375   C582    1.412   .     S
C376   S415    1.789   .     S
H381   O397    0.990   .     S
H382   O400    0.990   .     S
H383   O403    0.990   .     S
H384   O407    0.991   .     S
N393   Zn419   2.002   .     S
N394   Zn420   2.002   .     S
O395   Zn419   2.018   .     S
O396   S415    1.503   .     D
O397   S415    1.683   .     S
O398   S416    1.503   .     D
O399   S416    1.503   .     D
O400   S416    1.681   .     S
O401   S417    1.503   .     D
O402   S417    1.503   .     D
O403   S417    1.682   .     S
O404   S418    1.503   .     D
O405   S418    1.502   .     D
O406   Zn420   2.018   .     S
O407   S418    1.683   .     S
O408   Zn419   2.017   .     S
O409   Zn420   2.017   .     S
O410   Zn419   1.997   .     S
O411   Zn420   1.997   .     S
O412   Zn419   1.995   .     S
O413   Zn420   1.995   .     S
O414   S415    1.503   .     D
C421   O479    1.284   .     A
C421   C439    1.439   .     S
C421   O465    1.284   .     A
C422   C438    1.411   .     A
C422   S486    1.787   .     S
C422   C494    1.381   .     S
C423   S487    1.785   .     S
C423   C438    1.411   .     A
C423   C516    1.380   .     S
C424   C439    1.421   .     A
C424   S488    1.789   .     S
C424   C562    1.381   1_455 S
C425   C429    1.380   .     A
C425   C436    1.400   .     A
C425   H458    1.083   .     S
C426   C430    1.380   .     A
C426   C437    1.401   .     A
C426   H459    1.083   .     S
C427   H460    1.083   .     S
C427   C431    1.381   .     A
C427   C437    1.399   .     A
C428   C433    1.381   .     A
C428   C436    1.399   .     A
C428   H461    1.083   .     S
C429   C434    1.398   .     A
C429   H462    1.083   .     S
C430   C435    1.398   .     A
C430   H448    1.083   .     S
C431   C435    1.400   .     A
C431   H449    1.084   .     S
C432   O478    1.281   .     A
C432   C438    1.429   .     S
C432   O476    1.282   .     A
C433   C434    1.400   .     A
C433   H450    1.083   .     S
C434   C440    1.439   .     S
C435   C441    1.438   .     S
C436   C1067   1.447   1_554 S
C437   C1066   1.447   .     S
C439   C446    1.420   .     A
C440   O480    1.285   .     A
C440   O483    1.285   .     A
C441   O482    1.284   .     A
C441   O481    1.284   .     A
C442   H447    1.081   .     S
C442   N464    1.365   .     A
C443   H455    1.081   .     S
C443   N463    1.365   .     A
C443   C24     1.412   1_565 S
C444   H456    1.080   .     S
C444   N464    1.365   .     A
C445   N463    1.365   .     A
C445   H457    1.081   .     S
C445   C22     1.412   1_565 S
C446   S485    1.789   .     S
C446   C563    1.380   1_455 S
H451   O467    0.990   .     S
H452   O470    0.990   .     S
H453   O473    0.990   .     S
H454   O477    0.991   .     S
N463   Zn489   2.002   .     S
N464   Zn490   2.002   .     S
O465   Zn489   2.018   .     S
O466   S485    1.503   .     D
O467   S485    1.683   .     S
O468   S486    1.503   .     D
O469   S486    1.503   .     D
O470   S486    1.681   .     S
O471   S487    1.503   .     D
O472   S487    1.503   .     D
O473   S487    1.682   .     S
O474   S488    1.503   .     D
O475   S488    1.502   .     D
O476   Zn490   2.018   .     S
O477   S488    1.683   .     S
O478   Zn489   2.017   .     S
O479   Zn490   2.017   .     S
O480   Zn489   1.997   .     S
O481   Zn490   1.997   .     S
O482   Zn489   1.995   .     S
O483   Zn490   1.995   .     S
O484   S485    1.503   .     D
C491   O549    1.284   .     A
C491   C509    1.439   .     S
C491   O535    1.284   .     A
C492   C508    1.411   .     A
C492   S556    1.787   .     S
C492   C564    1.381   .     S
C493   S557    1.785   .     S
C493   C508    1.411   .     A
C493   C586    1.380   .     S
C494   C509    1.421   .     A
C494   S558    1.789   .     S
C495   C499    1.380   .     A
C495   C506    1.400   .     A
C495   H528    1.083   .     S
C496   C500    1.380   .     A
C496   C507    1.401   .     A
C496   H529    1.083   .     S
C497   H530    1.083   .     S
C497   C501    1.381   .     A
C497   C507    1.399   .     A
C498   C503    1.381   .     A
C498   C506    1.399   .     A
C498   H531    1.083   .     S
C499   C504    1.398   .     A
C499   H532    1.083   .     S
C500   C505    1.398   .     A
C500   H518    1.083   .     S
C501   C505    1.400   .     A
C501   H519    1.084   .     S
C502   O548    1.281   .     A
C502   C508    1.429   .     S
C502   O546    1.282   .     A
C503   C504    1.400   .     A
C503   H520    1.083   .     S
C504   C510    1.439   .     S
C505   C511    1.438   .     S
C506   C1137   1.447   1_554 S
C507   C1136   1.447   .     S
C509   C516    1.420   .     A
C510   O550    1.285   .     A
C510   O553    1.285   .     A
C511   O552    1.284   .     A
C511   O551    1.284   .     A
C512   H517    1.081   .     S
C512   N534    1.365   .     A
C513   H525    1.081   .     S
C513   N533    1.365   .     A
C513   C94     1.412   1_565 S
C514   H526    1.080   .     S
C514   N534    1.365   .     A
C515   N533    1.365   .     A
C515   H527    1.081   .     S
C515   C92     1.412   1_565 S
C516   S555    1.789   .     S
H521   O537    0.990   .     S
H522   O540    0.990   .     S
H523   O543    0.990   .     S
H524   O547    0.991   .     S
N533   Zn559   2.002   .     S
N534   Zn560   2.002   .     S
O535   Zn559   2.018   .     S
O536   S555    1.503   .     D
O537   S555    1.683   .     S
O538   S556    1.503   .     D
O539   S556    1.503   .     D
O540   S556    1.681   .     S
O541   S557    1.503   .     D
O542   S557    1.503   .     D
O543   S557    1.682   .     S
O544   S558    1.503   .     D
O545   S558    1.502   .     D
O546   Zn560   2.018   .     S
O547   S558    1.683   .     S
O548   Zn559   2.017   .     S
O549   Zn560   2.017   .     S
O550   Zn559   1.997   .     S
O551   Zn560   1.997   .     S
O552   Zn559   1.995   .     S
O553   Zn560   1.995   .     S
O554   S555    1.503   .     D
C561   O619    1.284   .     A
C561   C579    1.439   .     S
C561   O605    1.284   .     A
C562   C578    1.411   .     A
C562   S626    1.787   .     S
C562   C424    1.381   1_655 S
C563   S627    1.785   .     S
C563   C578    1.411   .     A
C563   C446    1.380   1_655 S
C564   C579    1.421   .     A
C564   S628    1.789   .     S
C565   C569    1.380   .     A
C565   C576    1.400   .     A
C565   H598    1.083   .     S
C566   C570    1.380   .     A
C566   C577    1.401   .     A
C566   H599    1.083   .     S
C567   H600    1.083   .     S
C567   C571    1.381   .     A
C567   C577    1.399   .     A
C568   C573    1.381   .     A
C568   C576    1.399   .     A
C568   H601    1.083   .     S
C569   C574    1.398   .     A
C569   H602    1.083   .     S
C570   C575    1.398   .     A
C570   H588    1.083   .     S
C571   C575    1.400   .     A
C571   H589    1.084   .     S
C572   O618    1.281   .     A
C572   C578    1.429   .     S
C572   O616    1.282   .     A
C573   C574    1.400   .     A
C573   H590    1.083   .     S
C574   C580    1.439   .     S
C575   C581    1.438   .     S
C576   C1207   1.447   1_554 S
C577   C1206   1.447   .     S
C579   C586    1.420   .     A
C580   O620    1.285   .     A
C580   O623    1.285   .     A
C581   O622    1.284   .     A
C581   O621    1.284   .     A
C582   H587    1.081   .     S
C582   N604    1.365   .     A
C583   H595    1.081   .     S
C583   N603    1.365   .     A
C583   C164    1.412   1_565 S
C584   H596    1.080   .     S
C584   N604    1.365   .     A
C585   N603    1.365   .     A
C585   H597    1.081   .     S
C585   C162    1.412   1_565 S
C586   S625    1.789   .     S
H591   O607    0.990   .     S
H592   O610    0.990   .     S
H593   O613    0.990   .     S
H594   O617    0.991   .     S
N603   Zn629   2.002   .     S
N604   Zn630   2.002   .     S
O605   Zn629   2.018   .     S
O606   S625    1.503   .     D
O607   S625    1.683   .     S
O608   S626    1.503   .     D
O609   S626    1.503   .     D
O610   S626    1.681   .     S
O611   S627    1.503   .     D
O612   S627    1.503   .     D
O613   S627    1.682   .     S
O614   S628    1.503   .     D
O615   S628    1.502   .     D
O616   Zn630   2.018   .     S
O617   S628    1.683   .     S
O618   Zn629   2.017   .     S
O619   Zn630   2.017   .     S
O620   Zn629   1.997   .     S
O621   Zn630   1.997   .     S
O622   Zn629   1.995   .     S
O623   Zn630   1.995   .     S
O624   S625    1.503   .     D
C631   O689    1.284   .     A
C631   C649    1.439   .     S
C631   O675    1.284   .     A
C632   C648    1.411   .     A
C632   S696    1.787   .     S
C632   C704    1.381   .     S
C633   S697    1.785   .     S
C633   C648    1.411   .     A
C633   C726    1.380   .     S
C634   C649    1.421   .     A
C634   S698    1.789   .     S
C634   C772    1.381   1_455 S
C635   C639    1.380   .     A
C635   C646    1.400   .     A
C635   H668    1.083   .     S
C636   C640    1.380   .     A
C636   C647    1.401   .     A
C636   H669    1.083   .     S
C637   H670    1.083   .     S
C637   C641    1.381   .     A
C637   C647    1.399   .     A
C638   C643    1.381   .     A
C638   C646    1.399   .     A
C638   H671    1.083   .     S
C639   C644    1.398   .     A
C639   H672    1.083   .     S
C640   C645    1.398   .     A
C640   H658    1.083   .     S
C641   C645    1.400   .     A
C641   H659    1.084   .     S
C642   O688    1.281   .     A
C642   C648    1.429   .     S
C642   O686    1.282   .     A
C643   C644    1.400   .     A
C643   H660    1.083   .     S
C644   C650    1.439   .     S
C645   C651    1.438   .     S
C647   C16     1.447   1_556 S
C649   C656    1.420   .     A
C650   O690    1.285   .     A
C650   O693    1.285   .     A
C651   O692    1.284   .     A
C651   O691    1.284   .     A
C652   H657    1.081   .     S
C652   N674    1.365   .     A
C652   C1075   1.412   1_545 S
C653   H665    1.081   .     S
C653   N673    1.365   .     A
C653   C864    1.412   .     S
C654   H666    1.080   .     S
C654   N674    1.365   .     A
C654   C1073   1.412   1_545 S
C655   N673    1.365   .     A
C655   H667    1.081   .     S
C655   C862    1.412   .     S
C656   S695    1.789   .     S
C656   C773    1.380   1_455 S
H661   O677    0.990   .     S
H662   O680    0.990   .     S
H663   O683    0.990   .     S
H664   O687    0.991   .     S
N673   Zn699   2.002   .     S
N674   Zn700   2.002   .     S
O675   Zn699   2.018   .     S
O676   S695    1.503   .     D
O677   S695    1.683   .     S
O678   S696    1.503   .     D
O679   S696    1.503   .     D
O680   S696    1.681   .     S
O681   S697    1.503   .     D
O682   S697    1.503   .     D
O683   S697    1.682   .     S
O684   S698    1.503   .     D
O685   S698    1.502   .     D
O686   Zn700   2.018   .     S
O687   S698    1.683   .     S
O688   Zn699   2.017   .     S
O689   Zn700   2.017   .     S
O690   Zn699   1.997   .     S
O691   Zn700   1.997   .     S
O692   Zn699   1.995   .     S
O693   Zn700   1.995   .     S
O694   S695    1.503   .     D
C701   O759    1.284   .     A
C701   C719    1.439   .     S
C701   O745    1.284   .     A
C702   C718    1.411   .     A
C702   S766    1.787   .     S
C702   C774    1.381   .     S
C703   S767    1.785   .     S
C703   C718    1.411   .     A
C703   C796    1.380   .     S
C704   C719    1.421   .     A
C704   S768    1.789   .     S
C705   C709    1.380   .     A
C705   C716    1.400   .     A
C705   H738    1.083   .     S
C706   C710    1.380   .     A
C706   C717    1.401   .     A
C706   H739    1.083   .     S
C707   H740    1.083   .     S
C707   C711    1.381   .     A
C707   C717    1.399   .     A
C708   C713    1.381   .     A
C708   C716    1.399   .     A
C708   H741    1.083   .     S
C709   C714    1.398   .     A
C709   H742    1.083   .     S
C710   C715    1.398   .     A
C710   H728    1.083   .     S
C711   C715    1.400   .     A
C711   H729    1.084   .     S
C712   O758    1.281   .     A
C712   C718    1.429   .     S
C712   O756    1.282   .     A
C713   C714    1.400   .     A
C713   H730    1.083   .     S
C714   C720    1.439   .     S
C715   C721    1.438   .     S
C717   C86     1.447   1_556 S
C719   C726    1.420   .     A
C720   O760    1.285   .     A
C720   O763    1.285   .     A
C721   O762    1.284   .     A
C721   O761    1.284   .     A
C722   H727    1.081   .     S
C722   N744    1.365   .     A
C722   C1145   1.412   1_545 S
C723   H735    1.081   .     S
C723   N743    1.365   .     A
C723   C934    1.412   .     S
C724   H736    1.080   .     S
C724   N744    1.365   .     A
C724   C1143   1.412   1_545 S
C725   N743    1.365   .     A
C725   H737    1.081   .     S
C725   C932    1.412   .     S
C726   S765    1.789   .     S
H731   O747    0.990   .     S
H732   O750    0.990   .     S
H733   O753    0.990   .     S
H734   O757    0.991   .     S
N743   Zn769   2.002   .     S
N744   Zn770   2.002   .     S
O745   Zn769   2.018   .     S
O746   S765    1.503   .     D
O747   S765    1.683   .     S
O748   S766    1.503   .     D
O749   S766    1.503   .     D
O750   S766    1.681   .     S
O751   S767    1.503   .     D
O752   S767    1.503   .     D
O753   S767    1.682   .     S
O754   S768    1.503   .     D
O755   S768    1.502   .     D
O756   Zn770   2.018   .     S
O757   S768    1.683   .     S
O758   Zn769   2.017   .     S
O759   Zn770   2.017   .     S
O760   Zn769   1.997   .     S
O761   Zn770   1.997   .     S
O762   Zn769   1.995   .     S
O763   Zn770   1.995   .     S
O764   S765    1.503   .     D
C771   O829    1.284   .     A
C771   C789    1.439   .     S
C771   O815    1.284   .     A
C772   C788    1.411   .     A
C772   S836    1.787   .     S
C772   C634    1.381   1_655 S
C773   S837    1.785   .     S
C773   C788    1.411   .     A
C773   C656    1.380   1_655 S
C774   C789    1.421   .     A
C774   S838    1.789   .     S
C775   C779    1.380   .     A
C775   C786    1.400   .     A
C775   H808    1.083   .     S
C776   C780    1.380   .     A
C776   C787    1.401   .     A
C776   H809    1.083   .     S
C777   H810    1.083   .     S
C777   C781    1.381   .     A
C777   C787    1.399   .     A
C778   C783    1.381   .     A
C778   C786    1.399   .     A
C778   H811    1.083   .     S
C779   C784    1.398   .     A
C779   H812    1.083   .     S
C780   C785    1.398   .     A
C780   H798    1.083   .     S
C781   C785    1.400   .     A
C781   H799    1.084   .     S
C782   O828    1.281   .     A
C782   C788    1.429   .     S
C782   O826    1.282   .     A
C783   C784    1.400   .     A
C783   H800    1.083   .     S
C784   C790    1.439   .     S
C785   C791    1.438   .     S
C787   C156    1.447   1_556 S
C789   C796    1.420   .     A
C790   O830    1.285   .     A
C790   O833    1.285   .     A
C791   O832    1.284   .     A
C791   O831    1.284   .     A
C792   H797    1.081   .     S
C792   N814    1.365   .     A
C792   C1215   1.412   1_545 S
C793   H805    1.081   .     S
C793   N813    1.365   .     A
C793   C1004   1.412   .     S
C794   H806    1.080   .     S
C794   N814    1.365   .     A
C794   C1213   1.412   1_545 S
C795   N813    1.365   .     A
C795   H807    1.081   .     S
C795   C1002   1.412   .     S
C796   S835    1.789   .     S
H801   O817    0.990   .     S
H802   O820    0.990   .     S
H803   O823    0.990   .     S
H804   O827    0.991   .     S
N813   Zn839   2.002   .     S
N814   Zn840   2.002   .     S
O815   Zn839   2.018   .     S
O816   S835    1.503   .     D
O817   S835    1.683   .     S
O818   S836    1.503   .     D
O819   S836    1.503   .     D
O820   S836    1.681   .     S
O821   S837    1.503   .     D
O822   S837    1.503   .     D
O823   S837    1.682   .     S
O824   S838    1.503   .     D
O825   S838    1.502   .     D
O826   Zn840   2.018   .     S
O827   S838    1.683   .     S
O828   Zn839   2.017   .     S
O829   Zn840   2.017   .     S
O830   Zn839   1.997   .     S
O831   Zn840   1.997   .     S
O832   Zn839   1.995   .     S
O833   Zn840   1.995   .     S
O834   S835    1.503   .     D
C841   O899    1.284   .     A
C841   C859    1.439   .     S
C841   O885    1.284   .     A
C842   C858    1.411   .     A
C842   S906    1.787   .     S
C842   C914    1.381   .     S
C843   S907    1.785   .     S
C843   C858    1.411   .     A
C843   C936    1.380   .     S
C844   C859    1.421   .     A
C844   S908    1.789   .     S
C844   C982    1.381   1_455 S
C845   C849    1.380   .     A
C845   C856    1.400   .     A
C845   H878    1.083   .     S
C846   C850    1.380   .     A
C846   C857    1.401   .     A
C846   H879    1.083   .     S
C847   H880    1.083   .     S
C847   C851    1.381   .     A
C847   C857    1.399   .     A
C848   C853    1.381   .     A
C848   C856    1.399   .     A
C848   H881    1.083   .     S
C849   C854    1.398   .     A
C849   H882    1.083   .     S
C850   C855    1.398   .     A
C850   H868    1.083   .     S
C851   C855    1.400   .     A
C851   H869    1.084   .     S
C852   O898    1.281   .     A
C852   C858    1.429   .     S
C852   O896    1.282   .     A
C853   C854    1.400   .     A
C853   H870    1.083   .     S
C854   C860    1.439   .     S
C855   C861    1.438   .     S
C857   C226    1.447   1_556 S
C859   C866    1.420   .     A
C860   O900    1.285   .     A
C860   O903    1.285   .     A
C861   O902    1.284   .     A
C861   O901    1.284   .     A
C862   H867    1.081   .     S
C862   N884    1.365   .     A
C863   H875    1.081   .     S
C863   N883    1.365   .     A
C863   C1074   1.412   .     S
C864   H876    1.080   .     S
C864   N884    1.365   .     A
C865   N883    1.365   .     A
C865   H877    1.081   .     S
C865   C1072   1.412   .     S
C866   S905    1.789   .     S
C866   C983    1.380   1_455 S
H871   O887    0.990   .     S
H872   O890    0.990   .     S
H873   O893    0.990   .     S
H874   O897    0.991   .     S
N883   Zn909   2.002   .     S
N884   Zn910   2.002   .     S
O885   Zn909   2.018   .     S
O886   S905    1.503   .     D
O887   S905    1.683   .     S
O888   S906    1.503   .     D
O889   S906    1.503   .     D
O890   S906    1.681   .     S
O891   S907    1.503   .     D
O892   S907    1.503   .     D
O893   S907    1.682   .     S
O894   S908    1.503   .     D
O895   S908    1.502   .     D
O896   Zn910   2.018   .     S
O897   S908    1.683   .     S
O898   Zn909   2.017   .     S
O899   Zn910   2.017   .     S
O900   Zn909   1.997   .     S
O901   Zn910   1.997   .     S
O902   Zn909   1.995   .     S
O903   Zn910   1.995   .     S
O904   S905    1.503   .     D
C911   O969    1.284   .     A
C911   C929    1.439   .     S
C911   O955    1.284   .     A
C912   C928    1.411   .     A
C912   S976    1.787   .     S
C912   C984    1.381   .     S
C913   S977    1.785   .     S
C913   C928    1.411   .     A
C913   C1006   1.380   .     S
C914   C929    1.421   .     A
C914   S978    1.789   .     S
C915   C919    1.380   .     A
C915   C926    1.400   .     A
C915   H948    1.083   .     S
C916   C920    1.380   .     A
C916   C927    1.401   .     A
C916   H949    1.083   .     S
C917   H950    1.083   .     S
C917   C921    1.381   .     A
C917   C927    1.399   .     A
C918   C923    1.381   .     A
C918   C926    1.399   .     A
C918   H951    1.083   .     S
C919   C924    1.398   .     A
C919   H952    1.083   .     S
C920   C925    1.398   .     A
C920   H938    1.083   .     S
C921   C925    1.400   .     A
C921   H939    1.084   .     S
C922   O968    1.281   .     A
C922   C928    1.429   .     S
C922   O966    1.282   .     A
C923   C924    1.400   .     A
C923   H940    1.083   .     S
C924   C930    1.439   .     S
C925   C931    1.438   .     S
C927   C296    1.447   1_556 S
C929   C936    1.420   .     A
C930   O970    1.285   .     A
C930   O973    1.285   .     A
C931   O972    1.284   .     A
C931   O971    1.284   .     A
C932   H937    1.081   .     S
C932   N954    1.365   .     A
C933   H945    1.081   .     S
C933   N953    1.365   .     A
C933   C1144   1.412   .     S
C934   H946    1.080   .     S
C934   N954    1.365   .     A
C935   N953    1.365   .     A
C935   H947    1.081   .     S
C935   C1142   1.412   .     S
C936   S975    1.789   .     S
H941   O957    0.990   .     S
H942   O960    0.990   .     S
H943   O963    0.990   .     S
H944   O967    0.991   .     S
N953   Zn979   2.002   .     S
N954   Zn980   2.002   .     S
O955   Zn979   2.018   .     S
O956   S975    1.503   .     D
O957   S975    1.683   .     S
O958   S976    1.503   .     D
O959   S976    1.503   .     D
O960   S976    1.681   .     S
O961   S977    1.503   .     D
O962   S977    1.503   .     D
O963   S977    1.682   .     S
O964   S978    1.503   .     D
O965   S978    1.502   .     D
O966   Zn980   2.018   .     S
O967   S978    1.683   .     S
O968   Zn979   2.017   .     S
O969   Zn980   2.017   .     S
O970   Zn979   1.997   .     S
O971   Zn980   1.997   .     S
O972   Zn979   1.995   .     S
O973   Zn980   1.995   .     S
O974   S975    1.503   .     D
C981   O1039   1.284   .     A
C981   C999    1.439   .     S
C981   O1025   1.284   .     A
C982   C998    1.411   .     A
C982   S1046   1.787   .     S
C982   C844    1.381   1_655 S
C983   S1047   1.785   .     S
C983   C998    1.411   .     A
C983   C866    1.380   1_655 S
C984   C999    1.421   .     A
C984   S1048   1.789   .     S
C985   C989    1.380   .     A
C985   C996    1.400   .     A
C985   H1018   1.083   .     S
C986   C990    1.380   .     A
C986   C997    1.401   .     A
C986   H1019   1.083   .     S
C987   H1020   1.083   .     S
C987   C991    1.381   .     A
C987   C997    1.399   .     A
C988   C993    1.381   .     A
C988   C996    1.399   .     A
C988   H1021   1.083   .     S
C989   C994    1.398   .     A
C989   H1022   1.083   .     S
C990   C995    1.398   .     A
C990   H1008   1.083   .     S
C991   C995    1.400   .     A
C991   H1009   1.084   .     S
C992   O1038   1.281   .     A
C992   C998    1.429   .     S
C992   O1036   1.282   .     A
C993   C994    1.400   .     A
C993   H1010   1.083   .     S
C994   C1000   1.439   .     S
C995   C1001   1.438   .     S
C997   C366    1.447   1_556 S
C999   C1006   1.420   .     A
C1000  O1040   1.285   .     A
C1000  O1043   1.285   .     A
C1001  O1042   1.284   .     A
C1001  O1041   1.284   .     A
C1002  H1007   1.081   .     S
C1002  N1024   1.365   .     A
C1003  H1015   1.081   .     S
C1003  N1023   1.365   .     A
C1003  C1214   1.412   .     S
C1004  H1016   1.080   .     S
C1004  N1024   1.365   .     A
C1005  N1023   1.365   .     A
C1005  H1017   1.081   .     S
C1005  C1212   1.412   .     S
C1006  S1045   1.789   .     S
H1011  O1027   0.990   .     S
H1012  O1030   0.990   .     S
H1013  O1033   0.990   .     S
H1014  O1037   0.991   .     S
N1023  Zn1049  2.002   .     S
N1024  Zn1050  2.002   .     S
O1025  Zn1049  2.018   .     S
O1026  S1045   1.503   .     D
O1027  S1045   1.683   .     S
O1028  S1046   1.503   .     D
O1029  S1046   1.503   .     D
O1030  S1046   1.681   .     S
O1031  S1047   1.503   .     D
O1032  S1047   1.503   .     D
O1033  S1047   1.682   .     S
O1034  S1048   1.503   .     D
O1035  S1048   1.502   .     D
O1036  Zn1050  2.018   .     S
O1037  S1048   1.683   .     S
O1038  Zn1049  2.017   .     S
O1039  Zn1050  2.017   .     S
O1040  Zn1049  1.997   .     S
O1041  Zn1050  1.997   .     S
O1042  Zn1049  1.995   .     S
O1043  Zn1050  1.995   .     S
O1044  S1045   1.503   .     D
C1051  O1109   1.284   .     A
C1051  C1069   1.439   .     S
C1051  O1095   1.284   .     A
C1052  C1068   1.411   .     A
C1052  S1116   1.787   .     S
C1052  C1124   1.381   .     S
C1053  S1117   1.785   .     S
C1053  C1068   1.411   .     A
C1053  C1146   1.380   .     S
C1054  C1069   1.421   .     A
C1054  S1118   1.789   .     S
C1054  C1192   1.381   1_455 S
C1055  C1059   1.380   .     A
C1055  C1066   1.400   .     A
C1055  H1088   1.083   .     S
C1056  C1060   1.380   .     A
C1056  C1067   1.401   .     A
C1056  H1089   1.083   .     S
C1057  H1090   1.083   .     S
C1057  C1061   1.381   .     A
C1057  C1067   1.399   .     A
C1058  C1063   1.381   .     A
C1058  C1066   1.399   .     A
C1058  H1091   1.083   .     S
C1059  C1064   1.398   .     A
C1059  H1092   1.083   .     S
C1060  C1065   1.398   .     A
C1060  H1078   1.083   .     S
C1061  C1065   1.400   .     A
C1061  H1079   1.084   .     S
C1062  O1108   1.281   .     A
C1062  C1068   1.429   .     S
C1062  O1106   1.282   .     A
C1063  C1064   1.400   .     A
C1063  H1080   1.083   .     S
C1064  C1070   1.439   .     S
C1065  C1071   1.438   .     S
C1067  C436    1.447   1_556 S
C1069  C1076   1.420   .     A
C1070  O1110   1.285   .     A
C1070  O1113   1.285   .     A
C1071  O1112   1.284   .     A
C1071  O1111   1.284   .     A
C1072  H1077   1.081   .     S
C1072  N1094   1.365   .     A
C1073  H1085   1.081   .     S
C1073  N1093   1.365   .     A
C1073  C654    1.412   1_565 S
C1074  H1086   1.080   .     S
C1074  N1094   1.365   .     A
C1075  N1093   1.365   .     A
C1075  H1087   1.081   .     S
C1075  C652    1.412   1_565 S
C1076  S1115   1.789   .     S
C1076  C1193   1.380   1_455 S
H1081  O1097   0.990   .     S
H1082  O1100   0.990   .     S
H1083  O1103   0.990   .     S
H1084  O1107   0.991   .     S
N1093  Zn1119  2.002   .     S
N1094  Zn1120  2.002   .     S
O1095  Zn1119  2.018   .     S
O1096  S1115   1.503   .     D
O1097  S1115   1.683   .     S
O1098  S1116   1.503   .     D
O1099  S1116   1.503   .     D
O1100  S1116   1.681   .     S
O1101  S1117   1.503   .     D
O1102  S1117   1.503   .     D
O1103  S1117   1.682   .     S
O1104  S1118   1.503   .     D
O1105  S1118   1.502   .     D
O1106  Zn1120  2.018   .     S
O1107  S1118   1.683   .     S
O1108  Zn1119  2.017   .     S
O1109  Zn1120  2.017   .     S
O1110  Zn1119  1.997   .     S
O1111  Zn1120  1.997   .     S
O1112  Zn1119  1.995   .     S
O1113  Zn1120  1.995   .     S
O1114  S1115   1.503   .     D
C1121  O1179   1.284   .     A
C1121  C1139   1.439   .     S
C1121  O1165   1.284   .     A
C1122  C1138   1.411   .     A
C1122  S1186   1.787   .     S
C1122  C1194   1.381   .     S
C1123  S1187   1.785   .     S
C1123  C1138   1.411   .     A
C1123  C1216   1.380   .     S
C1124  C1139   1.421   .     A
C1124  S1188   1.789   .     S
C1125  C1129   1.380   .     A
C1125  C1136   1.400   .     A
C1125  H1158   1.083   .     S
C1126  C1130   1.380   .     A
C1126  C1137   1.401   .     A
C1126  H1159   1.083   .     S
C1127  H1160   1.083   .     S
C1127  C1131   1.381   .     A
C1127  C1137   1.399   .     A
C1128  C1133   1.381   .     A
C1128  C1136   1.399   .     A
C1128  H1161   1.083   .     S
C1129  C1134   1.398   .     A
C1129  H1162   1.083   .     S
C1130  C1135   1.398   .     A
C1130  H1148   1.083   .     S
C1131  C1135   1.400   .     A
C1131  H1149   1.084   .     S
C1132  O1178   1.281   .     A
C1132  C1138   1.429   .     S
C1132  O1176   1.282   .     A
C1133  C1134   1.400   .     A
C1133  H1150   1.083   .     S
C1134  C1140   1.439   .     S
C1135  C1141   1.438   .     S
C1137  C506    1.447   1_556 S
C1139  C1146   1.420   .     A
C1140  O1180   1.285   .     A
C1140  O1183   1.285   .     A
C1141  O1182   1.284   .     A
C1141  O1181   1.284   .     A
C1142  H1147   1.081   .     S
C1142  N1164   1.365   .     A
C1143  H1155   1.081   .     S
C1143  N1163   1.365   .     A
C1143  C724    1.412   1_565 S
C1144  H1156   1.080   .     S
C1144  N1164   1.365   .     A
C1145  N1163   1.365   .     A
C1145  H1157   1.081   .     S
C1145  C722    1.412   1_565 S
C1146  S1185   1.789   .     S
H1151  O1167   0.990   .     S
H1152  O1170   0.990   .     S
H1153  O1173   0.990   .     S
H1154  O1177   0.991   .     S
N1163  Zn1189  2.002   .     S
N1164  Zn1190  2.002   .     S
O1165  Zn1189  2.018   .     S
O1166  S1185   1.503   .     D
O1167  S1185   1.683   .     S
O1168  S1186   1.503   .     D
O1169  S1186   1.503   .     D
O1170  S1186   1.681   .     S
O1171  S1187   1.503   .     D
O1172  S1187   1.503   .     D
O1173  S1187   1.682   .     S
O1174  S1188   1.503   .     D
O1175  S1188   1.502   .     D
O1176  Zn1190  2.018   .     S
O1177  S1188   1.683   .     S
O1178  Zn1189  2.017   .     S
O1179  Zn1190  2.017   .     S
O1180  Zn1189  1.997   .     S
O1181  Zn1190  1.997   .     S
O1182  Zn1189  1.995   .     S
O1183  Zn1190  1.995   .     S
O1184  S1185   1.503   .     D
C1191  O1249   1.284   .     A
C1191  C1209   1.439   .     S
C1191  O1235   1.284   .     A
C1192  C1208   1.411   .     A
C1192  S1256   1.787   .     S
C1192  C1054   1.381   1_655 S
C1193  S1257   1.785   .     S
C1193  C1208   1.411   .     A
C1193  C1076   1.380   1_655 S
C1194  C1209   1.421   .     A
C1194  S1258   1.789   .     S
C1195  C1199   1.380   .     A
C1195  C1206   1.400   .     A
C1195  H1228   1.083   .     S
C1196  C1200   1.380   .     A
C1196  C1207   1.401   .     A
C1196  H1229   1.083   .     S
C1197  H1230   1.083   .     S
C1197  C1201   1.381   .     A
C1197  C1207   1.399   .     A
C1198  C1203   1.381   .     A
C1198  C1206   1.399   .     A
C1198  H1231   1.083   .     S
C1199  C1204   1.398   .     A
C1199  H1232   1.083   .     S
C1200  C1205   1.398   .     A
C1200  H1218   1.083   .     S
C1201  C1205   1.400   .     A
C1201  H1219   1.084   .     S
C1202  O1248   1.281   .     A
C1202  C1208   1.429   .     S
C1202  O1246   1.282   .     A
C1203  C1204   1.400   .     A
C1203  H1220   1.083   .     S
C1204  C1210   1.439   .     S
C1205  C1211   1.438   .     S
C1207  C576    1.447   1_556 S
C1209  C1216   1.420   .     A
C1210  O1250   1.285   .     A
C1210  O1253   1.285   .     A
C1211  O1252   1.284   .     A
C1211  O1251   1.284   .     A
C1212  H1217   1.081   .     S
C1212  N1234   1.365   .     A
C1213  H1225   1.081   .     S
C1213  N1233   1.365   .     A
C1213  C794    1.412   1_565 S
C1214  H1226   1.080   .     S
C1214  N1234   1.365   .     A
C1215  N1233   1.365   .     A
C1215  H1227   1.081   .     S
C1215  C792    1.412   1_565 S
C1216  S1255   1.789   .     S
H1221  O1237   0.990   .     S
H1222  O1240   0.990   .     S
H1223  O1243   0.990   .     S
H1224  O1247   0.991   .     S
N1233  Zn1259  2.002   .     S
N1234  Zn1260  2.002   .     S
O1235  Zn1259  2.018   .     S
O1236  S1255   1.503   .     D
O1237  S1255   1.683   .     S
O1238  S1256   1.503   .     D
O1239  S1256   1.503   .     D
O1240  S1256   1.681   .     S
O1241  S1257   1.503   .     D
O1242  S1257   1.503   .     D
O1243  S1257   1.682   .     S
O1244  S1258   1.503   .     D
O1245  S1258   1.502   .     D
O1246  Zn1260  2.018   .     S
O1247  S1258   1.683   .     S
O1248  Zn1259  2.017   .     S
O1249  Zn1260  2.017   .     S
O1250  Zn1259  1.997   .     S
O1251  Zn1260  1.997   .     S
O1252  Zn1259  1.995   .     S
O1253  Zn1260  1.995   .     S
O1254  S1255   1.503   .     D
