data_str_m3_o1_o16_pcu_sym.51
_audit_creation_date              2020-01-03
_audit_creation_method            'Materials Studio'
_symmetry_space_group_name_H-M    'P1'
_symmetry_Int_Tables_number       1
_symmetry_cell_setting            triclinic
loop_
_symmetry_equiv_pos_as_xyz
  x,y,z
_cell_length_a                    29.5358
_cell_length_b                    32.1085
_cell_length_c                    26.2720
_cell_angle_alpha                 90.1614
_cell_angle_beta                  69.9753
_cell_angle_gamma                 90.1564
loop_
_atom_site_label
_atom_site_type_symbol
_atom_site_fract_x
_atom_site_fract_y
_atom_site_fract_z
_atom_site_U_iso_or_equiv
_atom_site_adp_type
_atom_site_occupancy
C1     C     0.16667   0.24667   0.25022   0.00000  Uiso   1.00
C2     C     0.12250   0.16068   0.41097   0.00000  Uiso   1.00
C3     C     0.21030   0.31212   0.23189   0.00000  Uiso   1.00
C4     C     0.13996   0.16436   0.35207   0.00000  Uiso   1.00
C5     C     0.21004   0.02146   0.23201   0.00000  Uiso   1.00
C6     C     0.16603   0.04245   0.25139   0.00000  Uiso   1.00
C7     C     0.12213   0.02095   0.27128   0.00000  Uiso   1.00
C8     C     0.12252   0.31159   0.27082   0.00000  Uiso   1.00
C9     C     0.16653   0.29076   0.25096   0.00000  Uiso   1.00
C10    C     0.31952   0.14076   0.21631   0.00000  Uiso   1.00
C11    C     0.03414   0.14078   0.21631   0.00000  Uiso   1.00
C12    C     0.14351   0.15699   0.49227   0.00000  Uiso   1.00
C13    C     0.01382   0.19253   0.28373   0.00000  Uiso   1.00
C14    C     0.29922   0.19257   0.28372   0.00000  Uiso   1.00
C15    C     0.16640   0.08663   0.25056   0.00000  Uiso   1.00
C16    C     0.19342   0.16628   0.14779   0.00000  Uiso   1.00
C17    C     0.25895   0.12373   0.00905   0.00000  Uiso   1.00
C18    C     0.20961   0.16001   0.08950   0.00000  Uiso   1.00
C19    C     0.07713   0.17690   0.44100   0.00000  Uiso   1.00
C20    C     0.06395   0.18138   0.49676   0.00000  Uiso   1.00
C21    C     0.09712   0.17267   0.02223   0.00000  Uiso   1.00
C22    C     0.15341   0.14599   0.43769   0.00000  Uiso   1.00
C23    C     0.18045   0.15188   0.01456   0.00000  Uiso   1.00
C24    C     0.22309   0.12964   0.48577   0.00000  Uiso   1.00
C25    C     0.22871   0.11322   0.43474   0.00000  Uiso   1.00
C26    C     0.19423   0.12124   0.41105   0.00000  Uiso   1.00
C27    C     0.17648   0.16933   0.06436   0.00000  Uiso   1.00
C28    C     0.25185   0.13813   0.06134   0.00000  Uiso   1.00
F29    F     0.28473   0.12876   0.08512   0.00000  Uiso   1.00
F30    F     0.07920   0.04097   0.29193   0.00000  Uiso   1.00
F31    F     0.26649   0.21868   0.31744   0.00000  Uiso   1.00
F32    F     0.26803   0.09021   0.40712   0.00000  Uiso   1.00
H33    H     0.29158   0.10666   0.48774   0.00000  Uiso   1.00
H34    H     0.02391   0.21319   0.31067   0.00000  Uiso   1.00
H35    H     0.08511   0.17742   0.06550   0.00000  Uiso   1.00
H36    H     0.19960   0.10739   0.37183   0.00000  Uiso   1.00
H37    H     0.14664   0.18933   0.08559   0.00000  Uiso   1.00
H38    H     0.05246   0.18726   0.42121   0.00000  Uiso   1.00
H39    H     0.02868   0.19341   0.02000   0.00000  Uiso   1.00
H40    H     0.24445   0.29591   0.21623   0.00000  Uiso   1.00
H41    H     0.24407   0.03797   0.21634   0.00000  Uiso   1.00
H42    H     0.08862   0.29490   0.28645   0.00000  Uiso   1.00
H43    H     0.30950   0.12007   0.18936   0.00000  Uiso   1.00
H44    H     0.06044   0.12007   0.18935   0.00000  Uiso   1.00
N45    N     0.04760   0.16668   0.25001   0.00000  Uiso   1.00
N46    N     0.28573   0.16665   0.25000   0.00000  Uiso   1.00
O47    O     0.12846   0.22775   0.25000   0.00000  Uiso   1.00
O48    O     0.20490   0.22774   0.25000   0.00000  Uiso   1.00
O49    O     0.10947   0.16666   0.32681   0.00000  Uiso   1.00
O50    O     0.18591   0.16665   0.32681   0.00000  Uiso   1.00
O51    O     0.12843   0.10559   0.24999   0.00000  Uiso   1.00
O52    O     0.20488   0.10558   0.24999   0.00000  Uiso   1.00
O53    O     0.14742   0.16668   0.17319   0.00000  Uiso   1.00
O54    O     0.22387   0.16667   0.17319   0.00000  Uiso   1.00
Zn55   Zn    0.11562   0.16667   0.25000   0.00000  Uiso   1.00
Zn56   Zn    0.21771   0.16666   0.25000   0.00000  Uiso   1.00
C57    C     0.50000   0.24667   0.25022   0.00000  Uiso   1.00
C58    C     0.45583   0.16068   0.41097   0.00000  Uiso   1.00
C59    C     0.54364   0.31212   0.23189   0.00000  Uiso   1.00
C60    C     0.47330   0.16436   0.35207   0.00000  Uiso   1.00
C61    C     0.54338   0.02146   0.23201   0.00000  Uiso   1.00
C62    C     0.49936   0.04245   0.25139   0.00000  Uiso   1.00
C63    C     0.45546   0.02095   0.27128   0.00000  Uiso   1.00
C64    C     0.45585   0.31159   0.27082   0.00000  Uiso   1.00
C65    C     0.49986   0.29076   0.25096   0.00000  Uiso   1.00
C66    C     0.65286   0.14076   0.21631   0.00000  Uiso   1.00
C67    C     0.36748   0.14078   0.21631   0.00000  Uiso   1.00
C68    C     0.47685   0.15699   0.49227   0.00000  Uiso   1.00
C69    C     0.34716   0.19253   0.28373   0.00000  Uiso   1.00
C70    C     0.63255   0.19257   0.28372   0.00000  Uiso   1.00
C71    C     0.49973   0.08663   0.25056   0.00000  Uiso   1.00
C72    C     0.52675   0.16628   0.14779   0.00000  Uiso   1.00
C73    C     0.59229   0.12373   0.00905   0.00000  Uiso   1.00
C74    C     0.54294   0.16001   0.08950   0.00000  Uiso   1.00
C75    C     0.41046   0.17690   0.44100   0.00000  Uiso   1.00
C76    C     0.39728   0.18138   0.49676   0.00000  Uiso   1.00
C77    C     0.43045   0.17267   0.02223   0.00000  Uiso   1.00
C78    C     0.48675   0.14599   0.43769   0.00000  Uiso   1.00
C79    C     0.51379   0.15188   0.01456   0.00000  Uiso   1.00
C80    C     0.55643   0.12964   0.48577   0.00000  Uiso   1.00
C81    C     0.56204   0.11322   0.43474   0.00000  Uiso   1.00
C82    C     0.52756   0.12124   0.41105   0.00000  Uiso   1.00
C83    C     0.50982   0.16933   0.06436   0.00000  Uiso   1.00
C84    C     0.58518   0.13813   0.06134   0.00000  Uiso   1.00
F85    F     0.61807   0.12876   0.08512   0.00000  Uiso   1.00
F86    F     0.41253   0.04097   0.29193   0.00000  Uiso   1.00
F87    F     0.59982   0.21868   0.31744   0.00000  Uiso   1.00
F88    F     0.60136   0.09021   0.40712   0.00000  Uiso   1.00
H89    H     0.62491   0.10666   0.48774   0.00000  Uiso   1.00
H90    H     0.35725   0.21319   0.31067   0.00000  Uiso   1.00
H91    H     0.41844   0.17742   0.06550   0.00000  Uiso   1.00
H92    H     0.53293   0.10739   0.37183   0.00000  Uiso   1.00
H93    H     0.47997   0.18933   0.08559   0.00000  Uiso   1.00
H94    H     0.38579   0.18726   0.42121   0.00000  Uiso   1.00
H95    H     0.36201   0.19341   0.02000   0.00000  Uiso   1.00
H96    H     0.57778   0.29591   0.21623   0.00000  Uiso   1.00
H97    H     0.57740   0.03797   0.21634   0.00000  Uiso   1.00
H98    H     0.42195   0.29490   0.28645   0.00000  Uiso   1.00
H99    H     0.64283   0.12007   0.18936   0.00000  Uiso   1.00
H100   H     0.39377   0.12007   0.18935   0.00000  Uiso   1.00
N101   N     0.38093   0.16668   0.25001   0.00000  Uiso   1.00
N102   N     0.61906   0.16665   0.25000   0.00000  Uiso   1.00
O103   O     0.46179   0.22775   0.25000   0.00000  Uiso   1.00
O104   O     0.53823   0.22774   0.25000   0.00000  Uiso   1.00
O105   O     0.44280   0.16666   0.32681   0.00000  Uiso   1.00
O106   O     0.51924   0.16665   0.32681   0.00000  Uiso   1.00
O107   O     0.46177   0.10559   0.24999   0.00000  Uiso   1.00
O108   O     0.53821   0.10558   0.24999   0.00000  Uiso   1.00
O109   O     0.48076   0.16668   0.17319   0.00000  Uiso   1.00
O110   O     0.55720   0.16667   0.17319   0.00000  Uiso   1.00
Zn111  Zn    0.44896   0.16667   0.25000   0.00000  Uiso   1.00
Zn112  Zn    0.55104   0.16666   0.25000   0.00000  Uiso   1.00
C113   C     0.83334   0.24667   0.25022   0.00000  Uiso   1.00
C114   C     0.78916   0.16068   0.41097   0.00000  Uiso   1.00
C115   C     0.87697   0.31212   0.23189   0.00000  Uiso   1.00
C116   C     0.80663   0.16436   0.35207   0.00000  Uiso   1.00
C117   C     0.87671   0.02146   0.23201   0.00000  Uiso   1.00
C118   C     0.83269   0.04245   0.25139   0.00000  Uiso   1.00
C119   C     0.78879   0.02095   0.27128   0.00000  Uiso   1.00
C120   C     0.78919   0.31159   0.27082   0.00000  Uiso   1.00
C121   C     0.83319   0.29076   0.25096   0.00000  Uiso   1.00
C122   C     0.98619   0.14076   0.21631   0.00000  Uiso   1.00
C123   C     0.70081   0.14078   0.21631   0.00000  Uiso   1.00
C124   C     0.81018   0.15699   0.49227   0.00000  Uiso   1.00
C125   C     0.68049   0.19253   0.28373   0.00000  Uiso   1.00
C126   C     0.96589   0.19257   0.28372   0.00000  Uiso   1.00
C127   C     0.83306   0.08663   0.25056   0.00000  Uiso   1.00
C128   C     0.86008   0.16628   0.14779   0.00000  Uiso   1.00
C129   C     0.92562   0.12373   0.00905   0.00000  Uiso   1.00
C130   C     0.87627   0.16001   0.08950   0.00000  Uiso   1.00
C131   C     0.74380   0.17690   0.44100   0.00000  Uiso   1.00
C132   C     0.73061   0.18138   0.49676   0.00000  Uiso   1.00
C133   C     0.76378   0.17267   0.02223   0.00000  Uiso   1.00
C134   C     0.82008   0.14599   0.43769   0.00000  Uiso   1.00
C135   C     0.84712   0.15188   0.01456   0.00000  Uiso   1.00
C136   C     0.88976   0.12964   0.48577   0.00000  Uiso   1.00
C137   C     0.89538   0.11322   0.43474   0.00000  Uiso   1.00
C138   C     0.86090   0.12124   0.41105   0.00000  Uiso   1.00
C139   C     0.84315   0.16933   0.06436   0.00000  Uiso   1.00
C140   C     0.91851   0.13813   0.06134   0.00000  Uiso   1.00
F141   F     0.95140   0.12876   0.08512   0.00000  Uiso   1.00
F142   F     0.74587   0.04097   0.29193   0.00000  Uiso   1.00
F143   F     0.93316   0.21868   0.31744   0.00000  Uiso   1.00
F144   F     0.93469   0.09021   0.40712   0.00000  Uiso   1.00
H145   H     0.95824   0.10666   0.48774   0.00000  Uiso   1.00
H146   H     0.69058   0.21319   0.31067   0.00000  Uiso   1.00
H147   H     0.75178   0.17742   0.06550   0.00000  Uiso   1.00
H148   H     0.86626   0.10739   0.37183   0.00000  Uiso   1.00
H149   H     0.81331   0.18933   0.08559   0.00000  Uiso   1.00
H150   H     0.71913   0.18726   0.42121   0.00000  Uiso   1.00
H151   H     0.69535   0.19341   0.02000   0.00000  Uiso   1.00
H152   H     0.91112   0.29591   0.21623   0.00000  Uiso   1.00
H153   H     0.91074   0.03797   0.21634   0.00000  Uiso   1.00
H154   H     0.75528   0.29490   0.28645   0.00000  Uiso   1.00
H155   H     0.97617   0.12007   0.18936   0.00000  Uiso   1.00
H156   H     0.72710   0.12007   0.18935   0.00000  Uiso   1.00
N157   N     0.71426   0.16668   0.25001   0.00000  Uiso   1.00
N158   N     0.95239   0.16665   0.25000   0.00000  Uiso   1.00
O159   O     0.79512   0.22775   0.25000   0.00000  Uiso   1.00
O160   O     0.87157   0.22774   0.25000   0.00000  Uiso   1.00
O161   O     0.77613   0.16666   0.32681   0.00000  Uiso   1.00
O162   O     0.85258   0.16665   0.32681   0.00000  Uiso   1.00
O163   O     0.79510   0.10559   0.24999   0.00000  Uiso   1.00
O164   O     0.87154   0.10558   0.24999   0.00000  Uiso   1.00
O165   O     0.81409   0.16668   0.17319   0.00000  Uiso   1.00
O166   O     0.89053   0.16667   0.17319   0.00000  Uiso   1.00
Zn167  Zn    0.78229   0.16667   0.25000   0.00000  Uiso   1.00
Zn168  Zn    0.88438   0.16666   0.25000   0.00000  Uiso   1.00
C169   C     0.16667   0.58000   0.25022   0.00000  Uiso   1.00
C170   C     0.12250   0.49401   0.41097   0.00000  Uiso   1.00
C171   C     0.21030   0.64545   0.23189   0.00000  Uiso   1.00
C172   C     0.13996   0.49769   0.35207   0.00000  Uiso   1.00
C173   C     0.21004   0.35480   0.23201   0.00000  Uiso   1.00
C174   C     0.16603   0.37578   0.25139   0.00000  Uiso   1.00
C175   C     0.12213   0.35429   0.27128   0.00000  Uiso   1.00
C176   C     0.12252   0.64493   0.27082   0.00000  Uiso   1.00
C177   C     0.16653   0.62409   0.25096   0.00000  Uiso   1.00
C178   C     0.31952   0.47410   0.21631   0.00000  Uiso   1.00
C179   C     0.03414   0.47411   0.21631   0.00000  Uiso   1.00
C180   C     0.14351   0.49033   0.49227   0.00000  Uiso   1.00
C181   C     0.01382   0.52586   0.28373   0.00000  Uiso   1.00
C182   C     0.29922   0.52591   0.28372   0.00000  Uiso   1.00
C183   C     0.16640   0.41996   0.25056   0.00000  Uiso   1.00
C184   C     0.19342   0.49962   0.14779   0.00000  Uiso   1.00
C185   C     0.25895   0.45706   0.00905   0.00000  Uiso   1.00
C186   C     0.20961   0.49334   0.08950   0.00000  Uiso   1.00
C187   C     0.07713   0.51023   0.44100   0.00000  Uiso   1.00
C188   C     0.06395   0.51471   0.49676   0.00000  Uiso   1.00
C189   C     0.09712   0.50600   0.02223   0.00000  Uiso   1.00
C190   C     0.15341   0.47933   0.43769   0.00000  Uiso   1.00
C191   C     0.18045   0.48522   0.01456   0.00000  Uiso   1.00
C192   C     0.22309   0.46297   0.48577   0.00000  Uiso   1.00
C193   C     0.22871   0.44655   0.43474   0.00000  Uiso   1.00
C194   C     0.19423   0.45457   0.41105   0.00000  Uiso   1.00
C195   C     0.17648   0.50266   0.06436   0.00000  Uiso   1.00
C196   C     0.25185   0.47146   0.06134   0.00000  Uiso   1.00
F197   F     0.28473   0.46210   0.08512   0.00000  Uiso   1.00
F198   F     0.07920   0.37431   0.29193   0.00000  Uiso   1.00
F199   F     0.26649   0.55202   0.31744   0.00000  Uiso   1.00
F200   F     0.26803   0.42354   0.40712   0.00000  Uiso   1.00
H201   H     0.29158   0.44000   0.48774   0.00000  Uiso   1.00
H202   H     0.02391   0.54653   0.31067   0.00000  Uiso   1.00
H203   H     0.08511   0.51075   0.06550   0.00000  Uiso   1.00
H204   H     0.19960   0.44073   0.37183   0.00000  Uiso   1.00
H205   H     0.14664   0.52266   0.08559   0.00000  Uiso   1.00
H206   H     0.05246   0.52059   0.42121   0.00000  Uiso   1.00
H207   H     0.02868   0.52674   0.02000   0.00000  Uiso   1.00
H208   H     0.24445   0.62924   0.21623   0.00000  Uiso   1.00
H209   H     0.24407   0.37130   0.21634   0.00000  Uiso   1.00
H210   H     0.08862   0.62824   0.28645   0.00000  Uiso   1.00
H211   H     0.30950   0.45340   0.18936   0.00000  Uiso   1.00
H212   H     0.06044   0.45340   0.18935   0.00000  Uiso   1.00
N213   N     0.04760   0.50001   0.25001   0.00000  Uiso   1.00
N214   N     0.28573   0.49998   0.25000   0.00000  Uiso   1.00
O215   O     0.12846   0.56108   0.25000   0.00000  Uiso   1.00
O216   O     0.20490   0.56107   0.25000   0.00000  Uiso   1.00
O217   O     0.10947   0.50000   0.32681   0.00000  Uiso   1.00
O218   O     0.18591   0.49999   0.32681   0.00000  Uiso   1.00
O219   O     0.12843   0.43893   0.24999   0.00000  Uiso   1.00
O220   O     0.20488   0.43892   0.24999   0.00000  Uiso   1.00
O221   O     0.14742   0.50001   0.17319   0.00000  Uiso   1.00
O222   O     0.22387   0.50000   0.17319   0.00000  Uiso   1.00
Zn223  Zn    0.11562   0.50001   0.25000   0.00000  Uiso   1.00
Zn224  Zn    0.21771   0.49999   0.25000   0.00000  Uiso   1.00
C225   C     0.50000   0.58000   0.25022   0.00000  Uiso   1.00
C226   C     0.45583   0.49401   0.41097   0.00000  Uiso   1.00
C227   C     0.54364   0.64545   0.23189   0.00000  Uiso   1.00
C228   C     0.47330   0.49769   0.35207   0.00000  Uiso   1.00
C229   C     0.54338   0.35480   0.23201   0.00000  Uiso   1.00
C230   C     0.49936   0.37578   0.25139   0.00000  Uiso   1.00
C231   C     0.45546   0.35429   0.27128   0.00000  Uiso   1.00
C232   C     0.45585   0.64493   0.27082   0.00000  Uiso   1.00
C233   C     0.49986   0.62409   0.25096   0.00000  Uiso   1.00
C234   C     0.65286   0.47410   0.21631   0.00000  Uiso   1.00
C235   C     0.36748   0.47411   0.21631   0.00000  Uiso   1.00
C236   C     0.47685   0.49033   0.49227   0.00000  Uiso   1.00
C237   C     0.34716   0.52586   0.28373   0.00000  Uiso   1.00
C238   C     0.63255   0.52591   0.28372   0.00000  Uiso   1.00
C239   C     0.49973   0.41996   0.25056   0.00000  Uiso   1.00
C240   C     0.52675   0.49962   0.14779   0.00000  Uiso   1.00
C241   C     0.59229   0.45706   0.00905   0.00000  Uiso   1.00
C242   C     0.54294   0.49334   0.08950   0.00000  Uiso   1.00
C243   C     0.41046   0.51023   0.44100   0.00000  Uiso   1.00
C244   C     0.39728   0.51471   0.49676   0.00000  Uiso   1.00
C245   C     0.43045   0.50600   0.02223   0.00000  Uiso   1.00
C246   C     0.48675   0.47933   0.43769   0.00000  Uiso   1.00
C247   C     0.51379   0.48522   0.01456   0.00000  Uiso   1.00
C248   C     0.55643   0.46297   0.48577   0.00000  Uiso   1.00
C249   C     0.56204   0.44655   0.43474   0.00000  Uiso   1.00
C250   C     0.52756   0.45457   0.41105   0.00000  Uiso   1.00
C251   C     0.50982   0.50266   0.06436   0.00000  Uiso   1.00
C252   C     0.58518   0.47146   0.06134   0.00000  Uiso   1.00
F253   F     0.61807   0.46210   0.08512   0.00000  Uiso   1.00
F254   F     0.41253   0.37431   0.29193   0.00000  Uiso   1.00
F255   F     0.59982   0.55202   0.31744   0.00000  Uiso   1.00
F256   F     0.60136   0.42354   0.40712   0.00000  Uiso   1.00
H257   H     0.62491   0.44000   0.48774   0.00000  Uiso   1.00
H258   H     0.35725   0.54653   0.31067   0.00000  Uiso   1.00
H259   H     0.41844   0.51075   0.06550   0.00000  Uiso   1.00
H260   H     0.53293   0.44073   0.37183   0.00000  Uiso   1.00
H261   H     0.47997   0.52266   0.08559   0.00000  Uiso   1.00
H262   H     0.38579   0.52059   0.42121   0.00000  Uiso   1.00
H263   H     0.36201   0.52674   0.02000   0.00000  Uiso   1.00
H264   H     0.57778   0.62924   0.21623   0.00000  Uiso   1.00
H265   H     0.57740   0.37130   0.21634   0.00000  Uiso   1.00
H266   H     0.42195   0.62824   0.28645   0.00000  Uiso   1.00
H267   H     0.64283   0.45340   0.18936   0.00000  Uiso   1.00
H268   H     0.39377   0.45340   0.18935   0.00000  Uiso   1.00
N269   N     0.38093   0.50001   0.25001   0.00000  Uiso   1.00
N270   N     0.61906   0.49998   0.25000   0.00000  Uiso   1.00
O271   O     0.46179   0.56108   0.25000   0.00000  Uiso   1.00
O272   O     0.53823   0.56107   0.25000   0.00000  Uiso   1.00
O273   O     0.44280   0.50000   0.32681   0.00000  Uiso   1.00
O274   O     0.51924   0.49999   0.32681   0.00000  Uiso   1.00
O275   O     0.46177   0.43893   0.24999   0.00000  Uiso   1.00
O276   O     0.53821   0.43892   0.24999   0.00000  Uiso   1.00
O277   O     0.48076   0.50001   0.17319   0.00000  Uiso   1.00
O278   O     0.55720   0.50000   0.17319   0.00000  Uiso   1.00
Zn279  Zn    0.44896   0.50001   0.25000   0.00000  Uiso   1.00
Zn280  Zn    0.55104   0.49999   0.25000   0.00000  Uiso   1.00
C281   C     0.83334   0.58000   0.25022   0.00000  Uiso   1.00
C282   C     0.78916   0.49401   0.41097   0.00000  Uiso   1.00
C283   C     0.87697   0.64545   0.23189   0.00000  Uiso   1.00
C284   C     0.80663   0.49769   0.35207   0.00000  Uiso   1.00
C285   C     0.87671   0.35480   0.23201   0.00000  Uiso   1.00
C286   C     0.83269   0.37578   0.25139   0.00000  Uiso   1.00
C287   C     0.78879   0.35429   0.27128   0.00000  Uiso   1.00
C288   C     0.78919   0.64493   0.27082   0.00000  Uiso   1.00
C289   C     0.83319   0.62409   0.25096   0.00000  Uiso   1.00
C290   C     0.98619   0.47410   0.21631   0.00000  Uiso   1.00
C291   C     0.70081   0.47411   0.21631   0.00000  Uiso   1.00
C292   C     0.81018   0.49033   0.49227   0.00000  Uiso   1.00
C293   C     0.68049   0.52586   0.28373   0.00000  Uiso   1.00
C294   C     0.96589   0.52591   0.28372   0.00000  Uiso   1.00
C295   C     0.83306   0.41996   0.25056   0.00000  Uiso   1.00
C296   C     0.86008   0.49962   0.14779   0.00000  Uiso   1.00
C297   C     0.92562   0.45706   0.00905   0.00000  Uiso   1.00
C298   C     0.87627   0.49334   0.08950   0.00000  Uiso   1.00
C299   C     0.74380   0.51023   0.44100   0.00000  Uiso   1.00
C300   C     0.73061   0.51471   0.49676   0.00000  Uiso   1.00
C301   C     0.76378   0.50600   0.02223   0.00000  Uiso   1.00
C302   C     0.82008   0.47933   0.43769   0.00000  Uiso   1.00
C303   C     0.84712   0.48522   0.01456   0.00000  Uiso   1.00
C304   C     0.88976   0.46297   0.48577   0.00000  Uiso   1.00
C305   C     0.89538   0.44655   0.43474   0.00000  Uiso   1.00
C306   C     0.86090   0.45457   0.41105   0.00000  Uiso   1.00
C307   C     0.84315   0.50266   0.06436   0.00000  Uiso   1.00
C308   C     0.91851   0.47146   0.06134   0.00000  Uiso   1.00
F309   F     0.95140   0.46210   0.08512   0.00000  Uiso   1.00
F310   F     0.74587   0.37431   0.29193   0.00000  Uiso   1.00
F311   F     0.93316   0.55202   0.31744   0.00000  Uiso   1.00
F312   F     0.93469   0.42354   0.40712   0.00000  Uiso   1.00
H313   H     0.95824   0.44000   0.48774   0.00000  Uiso   1.00
H314   H     0.69058   0.54653   0.31067   0.00000  Uiso   1.00
H315   H     0.75178   0.51075   0.06550   0.00000  Uiso   1.00
H316   H     0.86626   0.44073   0.37183   0.00000  Uiso   1.00
H317   H     0.81331   0.52266   0.08559   0.00000  Uiso   1.00
H318   H     0.71913   0.52059   0.42121   0.00000  Uiso   1.00
H319   H     0.69535   0.52674   0.02000   0.00000  Uiso   1.00
H320   H     0.91112   0.62924   0.21623   0.00000  Uiso   1.00
H321   H     0.91074   0.37130   0.21634   0.00000  Uiso   1.00
H322   H     0.75528   0.62824   0.28645   0.00000  Uiso   1.00
H323   H     0.97617   0.45340   0.18936   0.00000  Uiso   1.00
H324   H     0.72710   0.45340   0.18935   0.00000  Uiso   1.00
N325   N     0.71426   0.50001   0.25001   0.00000  Uiso   1.00
N326   N     0.95239   0.49998   0.25000   0.00000  Uiso   1.00
O327   O     0.79512   0.56108   0.25000   0.00000  Uiso   1.00
O328   O     0.87157   0.56107   0.25000   0.00000  Uiso   1.00
O329   O     0.77613   0.50000   0.32681   0.00000  Uiso   1.00
O330   O     0.85258   0.49999   0.32681   0.00000  Uiso   1.00
O331   O     0.79510   0.43893   0.24999   0.00000  Uiso   1.00
O332   O     0.87154   0.43892   0.24999   0.00000  Uiso   1.00
O333   O     0.81409   0.50001   0.17319   0.00000  Uiso   1.00
O334   O     0.89053   0.50000   0.17319   0.00000  Uiso   1.00
Zn335  Zn    0.78229   0.50001   0.25000   0.00000  Uiso   1.00
Zn336  Zn    0.88438   0.49999   0.25000   0.00000  Uiso   1.00
C337   C     0.16667   0.91333   0.25022   0.00000  Uiso   1.00
C338   C     0.12250   0.82734   0.41097   0.00000  Uiso   1.00
C339   C     0.21030   0.97878   0.23189   0.00000  Uiso   1.00
C340   C     0.13996   0.83103   0.35207   0.00000  Uiso   1.00
C341   C     0.21004   0.68813   0.23201   0.00000  Uiso   1.00
C342   C     0.16603   0.70912   0.25139   0.00000  Uiso   1.00
C343   C     0.12213   0.68762   0.27128   0.00000  Uiso   1.00
C344   C     0.12252   0.97826   0.27082   0.00000  Uiso   1.00
C345   C     0.16653   0.95742   0.25096   0.00000  Uiso   1.00
C346   C     0.31952   0.80743   0.21631   0.00000  Uiso   1.00
C347   C     0.03414   0.80744   0.21631   0.00000  Uiso   1.00
C348   C     0.14351   0.82366   0.49227   0.00000  Uiso   1.00
C349   C     0.01382   0.85919   0.28373   0.00000  Uiso   1.00
C350   C     0.29922   0.85924   0.28372   0.00000  Uiso   1.00
C351   C     0.16640   0.75330   0.25056   0.00000  Uiso   1.00
C352   C     0.19342   0.83295   0.14779   0.00000  Uiso   1.00
C353   C     0.25895   0.79040   0.00905   0.00000  Uiso   1.00
C354   C     0.20961   0.82668   0.08950   0.00000  Uiso   1.00
C355   C     0.07713   0.84356   0.44100   0.00000  Uiso   1.00
C356   C     0.06395   0.84805   0.49676   0.00000  Uiso   1.00
C357   C     0.09712   0.83934   0.02223   0.00000  Uiso   1.00
C358   C     0.15341   0.81266   0.43769   0.00000  Uiso   1.00
C359   C     0.18045   0.81855   0.01456   0.00000  Uiso   1.00
C360   C     0.22309   0.79631   0.48577   0.00000  Uiso   1.00
C361   C     0.22871   0.77988   0.43474   0.00000  Uiso   1.00
C362   C     0.19423   0.78791   0.41105   0.00000  Uiso   1.00
C363   C     0.17648   0.83599   0.06436   0.00000  Uiso   1.00
C364   C     0.25185   0.80480   0.06134   0.00000  Uiso   1.00
F365   F     0.28473   0.79543   0.08512   0.00000  Uiso   1.00
F366   F     0.07920   0.70764   0.29193   0.00000  Uiso   1.00
F367   F     0.26649   0.88535   0.31744   0.00000  Uiso   1.00
F368   F     0.26803   0.75687   0.40712   0.00000  Uiso   1.00
H369   H     0.29158   0.77333   0.48774   0.00000  Uiso   1.00
H370   H     0.02391   0.87986   0.31067   0.00000  Uiso   1.00
H371   H     0.08511   0.84408   0.06550   0.00000  Uiso   1.00
H372   H     0.19960   0.77406   0.37183   0.00000  Uiso   1.00
H373   H     0.14664   0.85600   0.08559   0.00000  Uiso   1.00
H374   H     0.05246   0.85393   0.42121   0.00000  Uiso   1.00
H375   H     0.02868   0.86007   0.02000   0.00000  Uiso   1.00
H376   H     0.24445   0.96257   0.21623   0.00000  Uiso   1.00
H377   H     0.24407   0.70463   0.21634   0.00000  Uiso   1.00
H378   H     0.08862   0.96157   0.28645   0.00000  Uiso   1.00
H379   H     0.30950   0.78674   0.18936   0.00000  Uiso   1.00
H380   H     0.06044   0.78674   0.18935   0.00000  Uiso   1.00
N381   N     0.04760   0.83334   0.25001   0.00000  Uiso   1.00
N382   N     0.28573   0.83331   0.25000   0.00000  Uiso   1.00
O383   O     0.12846   0.89442   0.25000   0.00000  Uiso   1.00
O384   O     0.20490   0.89441   0.25000   0.00000  Uiso   1.00
O385   O     0.10947   0.83333   0.32681   0.00000  Uiso   1.00
O386   O     0.18591   0.83332   0.32681   0.00000  Uiso   1.00
O387   O     0.12843   0.77226   0.24999   0.00000  Uiso   1.00
O388   O     0.20488   0.77225   0.24999   0.00000  Uiso   1.00
O389   O     0.14742   0.83335   0.17319   0.00000  Uiso   1.00
O390   O     0.22387   0.83334   0.17319   0.00000  Uiso   1.00
Zn391  Zn    0.11562   0.83334   0.25000   0.00000  Uiso   1.00
Zn392  Zn    0.21771   0.83333   0.25000   0.00000  Uiso   1.00
C393   C     0.50000   0.91333   0.25022   0.00000  Uiso   1.00
C394   C     0.45583   0.82734   0.41097   0.00000  Uiso   1.00
C395   C     0.54364   0.97878   0.23189   0.00000  Uiso   1.00
C396   C     0.47330   0.83103   0.35207   0.00000  Uiso   1.00
C397   C     0.54338   0.68813   0.23201   0.00000  Uiso   1.00
C398   C     0.49936   0.70912   0.25139   0.00000  Uiso   1.00
C399   C     0.45546   0.68762   0.27128   0.00000  Uiso   1.00
C400   C     0.45585   0.97826   0.27082   0.00000  Uiso   1.00
C401   C     0.49986   0.95742   0.25096   0.00000  Uiso   1.00
C402   C     0.65286   0.80743   0.21631   0.00000  Uiso   1.00
C403   C     0.36748   0.80744   0.21631   0.00000  Uiso   1.00
C404   C     0.47685   0.82366   0.49227   0.00000  Uiso   1.00
C405   C     0.34716   0.85919   0.28373   0.00000  Uiso   1.00
C406   C     0.63255   0.85924   0.28372   0.00000  Uiso   1.00
C407   C     0.49973   0.75330   0.25056   0.00000  Uiso   1.00
C408   C     0.52675   0.83295   0.14779   0.00000  Uiso   1.00
C409   C     0.59229   0.79040   0.00905   0.00000  Uiso   1.00
C410   C     0.54294   0.82668   0.08950   0.00000  Uiso   1.00
C411   C     0.41046   0.84356   0.44100   0.00000  Uiso   1.00
C412   C     0.39728   0.84805   0.49676   0.00000  Uiso   1.00
C413   C     0.43045   0.83934   0.02223   0.00000  Uiso   1.00
C414   C     0.48675   0.81266   0.43769   0.00000  Uiso   1.00
C415   C     0.51379   0.81855   0.01456   0.00000  Uiso   1.00
C416   C     0.55643   0.79631   0.48577   0.00000  Uiso   1.00
C417   C     0.56204   0.77988   0.43474   0.00000  Uiso   1.00
C418   C     0.52756   0.78791   0.41105   0.00000  Uiso   1.00
C419   C     0.50982   0.83599   0.06436   0.00000  Uiso   1.00
C420   C     0.58518   0.80480   0.06134   0.00000  Uiso   1.00
F421   F     0.61807   0.79543   0.08512   0.00000  Uiso   1.00
F422   F     0.41253   0.70764   0.29193   0.00000  Uiso   1.00
F423   F     0.59982   0.88535   0.31744   0.00000  Uiso   1.00
F424   F     0.60136   0.75687   0.40712   0.00000  Uiso   1.00
H425   H     0.62491   0.77333   0.48774   0.00000  Uiso   1.00
H426   H     0.35725   0.87986   0.31067   0.00000  Uiso   1.00
H427   H     0.41844   0.84408   0.06550   0.00000  Uiso   1.00
H428   H     0.53293   0.77406   0.37183   0.00000  Uiso   1.00
H429   H     0.47997   0.85600   0.08559   0.00000  Uiso   1.00
H430   H     0.38579   0.85393   0.42121   0.00000  Uiso   1.00
H431   H     0.36201   0.86007   0.02000   0.00000  Uiso   1.00
H432   H     0.57778   0.96257   0.21623   0.00000  Uiso   1.00
H433   H     0.57740   0.70463   0.21634   0.00000  Uiso   1.00
H434   H     0.42195   0.96157   0.28645   0.00000  Uiso   1.00
H435   H     0.64283   0.78674   0.18936   0.00000  Uiso   1.00
H436   H     0.39377   0.78674   0.18935   0.00000  Uiso   1.00
N437   N     0.38093   0.83334   0.25001   0.00000  Uiso   1.00
N438   N     0.61906   0.83331   0.25000   0.00000  Uiso   1.00
O439   O     0.46179   0.89442   0.25000   0.00000  Uiso   1.00
O440   O     0.53823   0.89441   0.25000   0.00000  Uiso   1.00
O441   O     0.44280   0.83333   0.32681   0.00000  Uiso   1.00
O442   O     0.51924   0.83332   0.32681   0.00000  Uiso   1.00
O443   O     0.46177   0.77226   0.24999   0.00000  Uiso   1.00
O444   O     0.53821   0.77225   0.24999   0.00000  Uiso   1.00
O445   O     0.48076   0.83335   0.17319   0.00000  Uiso   1.00
O446   O     0.55720   0.83334   0.17319   0.00000  Uiso   1.00
Zn447  Zn    0.44896   0.83334   0.25000   0.00000  Uiso   1.00
Zn448  Zn    0.55104   0.83333   0.25000   0.00000  Uiso   1.00
C449   C     0.83334   0.91333   0.25022   0.00000  Uiso   1.00
C450   C     0.78916   0.82734   0.41097   0.00000  Uiso   1.00
C451   C     0.87697   0.97878   0.23189   0.00000  Uiso   1.00
C452   C     0.80663   0.83103   0.35207   0.00000  Uiso   1.00
C453   C     0.87671   0.68813   0.23201   0.00000  Uiso   1.00
C454   C     0.83269   0.70912   0.25139   0.00000  Uiso   1.00
C455   C     0.78879   0.68762   0.27128   0.00000  Uiso   1.00
C456   C     0.78919   0.97826   0.27082   0.00000  Uiso   1.00
C457   C     0.83319   0.95742   0.25096   0.00000  Uiso   1.00
C458   C     0.98619   0.80743   0.21631   0.00000  Uiso   1.00
C459   C     0.70081   0.80744   0.21631   0.00000  Uiso   1.00
C460   C     0.81018   0.82366   0.49227   0.00000  Uiso   1.00
C461   C     0.68049   0.85919   0.28373   0.00000  Uiso   1.00
C462   C     0.96589   0.85924   0.28372   0.00000  Uiso   1.00
C463   C     0.83306   0.75330   0.25056   0.00000  Uiso   1.00
C464   C     0.86008   0.83295   0.14779   0.00000  Uiso   1.00
C465   C     0.92562   0.79040   0.00905   0.00000  Uiso   1.00
C466   C     0.87627   0.82668   0.08950   0.00000  Uiso   1.00
C467   C     0.74380   0.84356   0.44100   0.00000  Uiso   1.00
C468   C     0.73061   0.84805   0.49676   0.00000  Uiso   1.00
C469   C     0.76378   0.83934   0.02223   0.00000  Uiso   1.00
C470   C     0.82008   0.81266   0.43769   0.00000  Uiso   1.00
C471   C     0.84712   0.81855   0.01456   0.00000  Uiso   1.00
C472   C     0.88976   0.79631   0.48577   0.00000  Uiso   1.00
C473   C     0.89538   0.77988   0.43474   0.00000  Uiso   1.00
C474   C     0.86090   0.78791   0.41105   0.00000  Uiso   1.00
C475   C     0.84315   0.83599   0.06436   0.00000  Uiso   1.00
C476   C     0.91851   0.80480   0.06134   0.00000  Uiso   1.00
F477   F     0.95140   0.79543   0.08512   0.00000  Uiso   1.00
F478   F     0.74587   0.70764   0.29193   0.00000  Uiso   1.00
F479   F     0.93316   0.88535   0.31744   0.00000  Uiso   1.00
F480   F     0.93469   0.75687   0.40712   0.00000  Uiso   1.00
H481   H     0.95824   0.77333   0.48774   0.00000  Uiso   1.00
H482   H     0.69058   0.87986   0.31067   0.00000  Uiso   1.00
H483   H     0.75178   0.84408   0.06550   0.00000  Uiso   1.00
H484   H     0.86626   0.77406   0.37183   0.00000  Uiso   1.00
H485   H     0.81331   0.85600   0.08559   0.00000  Uiso   1.00
H486   H     0.71913   0.85393   0.42121   0.00000  Uiso   1.00
H487   H     0.69535   0.86007   0.02000   0.00000  Uiso   1.00
H488   H     0.91112   0.96257   0.21623   0.00000  Uiso   1.00
H489   H     0.91074   0.70463   0.21634   0.00000  Uiso   1.00
H490   H     0.75528   0.96157   0.28645   0.00000  Uiso   1.00
H491   H     0.97617   0.78674   0.18936   0.00000  Uiso   1.00
H492   H     0.72710   0.78674   0.18935   0.00000  Uiso   1.00
N493   N     0.71426   0.83334   0.25001   0.00000  Uiso   1.00
N494   N     0.95239   0.83331   0.25000   0.00000  Uiso   1.00
O495   O     0.79512   0.89442   0.25000   0.00000  Uiso   1.00
O496   O     0.87157   0.89441   0.25000   0.00000  Uiso   1.00
O497   O     0.77613   0.83333   0.32681   0.00000  Uiso   1.00
O498   O     0.85258   0.83332   0.32681   0.00000  Uiso   1.00
O499   O     0.79510   0.77226   0.24999   0.00000  Uiso   1.00
O500   O     0.87154   0.77225   0.24999   0.00000  Uiso   1.00
O501   O     0.81409   0.83335   0.17319   0.00000  Uiso   1.00
O502   O     0.89053   0.83334   0.17319   0.00000  Uiso   1.00
Zn503  Zn    0.78229   0.83334   0.25000   0.00000  Uiso   1.00
Zn504  Zn    0.88438   0.83333   0.25000   0.00000  Uiso   1.00
C505   C     0.16667   0.24667   0.75022   0.00000  Uiso   1.00
C506   C     0.12250   0.16068   0.91097   0.00000  Uiso   1.00
C507   C     0.21030   0.31212   0.73189   0.00000  Uiso   1.00
C508   C     0.13996   0.16436   0.85207   0.00000  Uiso   1.00
C509   C     0.21004   0.02146   0.73201   0.00000  Uiso   1.00
C510   C     0.16603   0.04245   0.75139   0.00000  Uiso   1.00
C511   C     0.12213   0.02095   0.77128   0.00000  Uiso   1.00
C512   C     0.12252   0.31159   0.77082   0.00000  Uiso   1.00
C513   C     0.16653   0.29076   0.75096   0.00000  Uiso   1.00
C514   C     0.31952   0.14076   0.71631   0.00000  Uiso   1.00
C515   C     0.03414   0.14078   0.71631   0.00000  Uiso   1.00
C516   C     0.14351   0.15699   0.99227   0.00000  Uiso   1.00
C517   C     0.01382   0.19253   0.78373   0.00000  Uiso   1.00
C518   C     0.29922   0.19257   0.78372   0.00000  Uiso   1.00
C519   C     0.16640   0.08663   0.75056   0.00000  Uiso   1.00
C520   C     0.19342   0.16628   0.64779   0.00000  Uiso   1.00
C521   C     0.25895   0.12373   0.50905   0.00000  Uiso   1.00
C522   C     0.20961   0.16001   0.58950   0.00000  Uiso   1.00
C523   C     0.07713   0.17690   0.94100   0.00000  Uiso   1.00
C524   C     0.06395   0.18138   0.99676   0.00000  Uiso   1.00
C525   C     0.09712   0.17267   0.52223   0.00000  Uiso   1.00
C526   C     0.15341   0.14599   0.93769   0.00000  Uiso   1.00
C527   C     0.18045   0.15188   0.51456   0.00000  Uiso   1.00
C528   C     0.22309   0.12964   0.98577   0.00000  Uiso   1.00
C529   C     0.22871   0.11322   0.93474   0.00000  Uiso   1.00
C530   C     0.19423   0.12124   0.91105   0.00000  Uiso   1.00
C531   C     0.17648   0.16933   0.56436   0.00000  Uiso   1.00
C532   C     0.25185   0.13813   0.56134   0.00000  Uiso   1.00
F533   F     0.28473   0.12876   0.58512   0.00000  Uiso   1.00
F534   F     0.07920   0.04097   0.79193   0.00000  Uiso   1.00
F535   F     0.26649   0.21868   0.81744   0.00000  Uiso   1.00
F536   F     0.26803   0.09021   0.90712   0.00000  Uiso   1.00
H537   H     0.29158   0.10666   0.98774   0.00000  Uiso   1.00
H538   H     0.02391   0.21319   0.81067   0.00000  Uiso   1.00
H539   H     0.08511   0.17742   0.56550   0.00000  Uiso   1.00
H540   H     0.19960   0.10739   0.87183   0.00000  Uiso   1.00
H541   H     0.14664   0.18933   0.58559   0.00000  Uiso   1.00
H542   H     0.05246   0.18726   0.92121   0.00000  Uiso   1.00
H543   H     0.02868   0.19341   0.52000   0.00000  Uiso   1.00
H544   H     0.24445   0.29591   0.71623   0.00000  Uiso   1.00
H545   H     0.24407   0.03797   0.71634   0.00000  Uiso   1.00
H546   H     0.08862   0.29490   0.78645   0.00000  Uiso   1.00
H547   H     0.30950   0.12007   0.68936   0.00000  Uiso   1.00
H548   H     0.06044   0.12007   0.68935   0.00000  Uiso   1.00
N549   N     0.04760   0.16668   0.75001   0.00000  Uiso   1.00
N550   N     0.28573   0.16665   0.75000   0.00000  Uiso   1.00
O551   O     0.12846   0.22775   0.75000   0.00000  Uiso   1.00
O552   O     0.20490   0.22774   0.75000   0.00000  Uiso   1.00
O553   O     0.10947   0.16666   0.82681   0.00000  Uiso   1.00
O554   O     0.18591   0.16665   0.82681   0.00000  Uiso   1.00
O555   O     0.12843   0.10559   0.74999   0.00000  Uiso   1.00
O556   O     0.20488   0.10558   0.74999   0.00000  Uiso   1.00
O557   O     0.14742   0.16668   0.67319   0.00000  Uiso   1.00
O558   O     0.22387   0.16667   0.67319   0.00000  Uiso   1.00
Zn559  Zn    0.11562   0.16667   0.75000   0.00000  Uiso   1.00
Zn560  Zn    0.21771   0.16666   0.75000   0.00000  Uiso   1.00
C561   C     0.50000   0.24667   0.75022   0.00000  Uiso   1.00
C562   C     0.45583   0.16068   0.91097   0.00000  Uiso   1.00
C563   C     0.54364   0.31212   0.73189   0.00000  Uiso   1.00
C564   C     0.47330   0.16436   0.85207   0.00000  Uiso   1.00
C565   C     0.54338   0.02146   0.73201   0.00000  Uiso   1.00
C566   C     0.49936   0.04245   0.75139   0.00000  Uiso   1.00
C567   C     0.45546   0.02095   0.77128   0.00000  Uiso   1.00
C568   C     0.45585   0.31159   0.77082   0.00000  Uiso   1.00
C569   C     0.49986   0.29076   0.75096   0.00000  Uiso   1.00
C570   C     0.65286   0.14076   0.71631   0.00000  Uiso   1.00
C571   C     0.36748   0.14078   0.71631   0.00000  Uiso   1.00
C572   C     0.47685   0.15699   0.99227   0.00000  Uiso   1.00
C573   C     0.34716   0.19253   0.78373   0.00000  Uiso   1.00
C574   C     0.63255   0.19257   0.78372   0.00000  Uiso   1.00
C575   C     0.49973   0.08663   0.75056   0.00000  Uiso   1.00
C576   C     0.52675   0.16628   0.64779   0.00000  Uiso   1.00
C577   C     0.59229   0.12373   0.50905   0.00000  Uiso   1.00
C578   C     0.54294   0.16001   0.58950   0.00000  Uiso   1.00
C579   C     0.41046   0.17690   0.94100   0.00000  Uiso   1.00
C580   C     0.39728   0.18138   0.99676   0.00000  Uiso   1.00
C581   C     0.43045   0.17267   0.52223   0.00000  Uiso   1.00
C582   C     0.48675   0.14599   0.93769   0.00000  Uiso   1.00
C583   C     0.51379   0.15188   0.51456   0.00000  Uiso   1.00
C584   C     0.55643   0.12964   0.98577   0.00000  Uiso   1.00
C585   C     0.56204   0.11322   0.93474   0.00000  Uiso   1.00
C586   C     0.52756   0.12124   0.91105   0.00000  Uiso   1.00
C587   C     0.50982   0.16933   0.56436   0.00000  Uiso   1.00
C588   C     0.58518   0.13813   0.56134   0.00000  Uiso   1.00
F589   F     0.61807   0.12876   0.58512   0.00000  Uiso   1.00
F590   F     0.41253   0.04097   0.79193   0.00000  Uiso   1.00
F591   F     0.59982   0.21868   0.81744   0.00000  Uiso   1.00
F592   F     0.60136   0.09021   0.90712   0.00000  Uiso   1.00
H593   H     0.62491   0.10666   0.98774   0.00000  Uiso   1.00
H594   H     0.35725   0.21319   0.81067   0.00000  Uiso   1.00
H595   H     0.41844   0.17742   0.56550   0.00000  Uiso   1.00
H596   H     0.53293   0.10739   0.87183   0.00000  Uiso   1.00
H597   H     0.47997   0.18933   0.58559   0.00000  Uiso   1.00
H598   H     0.38579   0.18726   0.92121   0.00000  Uiso   1.00
H599   H     0.36201   0.19341   0.52000   0.00000  Uiso   1.00
H600   H     0.57778   0.29591   0.71623   0.00000  Uiso   1.00
H601   H     0.57740   0.03797   0.71634   0.00000  Uiso   1.00
H602   H     0.42195   0.29490   0.78645   0.00000  Uiso   1.00
H603   H     0.64283   0.12007   0.68936   0.00000  Uiso   1.00
H604   H     0.39377   0.12007   0.68935   0.00000  Uiso   1.00
N605   N     0.38093   0.16668   0.75001   0.00000  Uiso   1.00
N606   N     0.61906   0.16665   0.75000   0.00000  Uiso   1.00
O607   O     0.46179   0.22775   0.75000   0.00000  Uiso   1.00
O608   O     0.53823   0.22774   0.75000   0.00000  Uiso   1.00
O609   O     0.44280   0.16666   0.82681   0.00000  Uiso   1.00
O610   O     0.51924   0.16665   0.82681   0.00000  Uiso   1.00
O611   O     0.46177   0.10559   0.74999   0.00000  Uiso   1.00
O612   O     0.53821   0.10558   0.74999   0.00000  Uiso   1.00
O613   O     0.48076   0.16668   0.67319   0.00000  Uiso   1.00
O614   O     0.55720   0.16667   0.67319   0.00000  Uiso   1.00
Zn615  Zn    0.44896   0.16667   0.75000   0.00000  Uiso   1.00
Zn616  Zn    0.55104   0.16666   0.75000   0.00000  Uiso   1.00
C617   C     0.83334   0.24667   0.75022   0.00000  Uiso   1.00
C618   C     0.78916   0.16068   0.91097   0.00000  Uiso   1.00
C619   C     0.87697   0.31212   0.73189   0.00000  Uiso   1.00
C620   C     0.80663   0.16436   0.85207   0.00000  Uiso   1.00
C621   C     0.87671   0.02146   0.73201   0.00000  Uiso   1.00
C622   C     0.83269   0.04245   0.75139   0.00000  Uiso   1.00
C623   C     0.78879   0.02095   0.77128   0.00000  Uiso   1.00
C624   C     0.78919   0.31159   0.77082   0.00000  Uiso   1.00
C625   C     0.83319   0.29076   0.75096   0.00000  Uiso   1.00
C626   C     0.98619   0.14076   0.71631   0.00000  Uiso   1.00
C627   C     0.70081   0.14078   0.71631   0.00000  Uiso   1.00
C628   C     0.81018   0.15699   0.99227   0.00000  Uiso   1.00
C629   C     0.68049   0.19253   0.78373   0.00000  Uiso   1.00
C630   C     0.96589   0.19257   0.78372   0.00000  Uiso   1.00
C631   C     0.83306   0.08663   0.75056   0.00000  Uiso   1.00
C632   C     0.86008   0.16628   0.64779   0.00000  Uiso   1.00
C633   C     0.92562   0.12373   0.50905   0.00000  Uiso   1.00
C634   C     0.87627   0.16001   0.58950   0.00000  Uiso   1.00
C635   C     0.74380   0.17690   0.94100   0.00000  Uiso   1.00
C636   C     0.73061   0.18138   0.99676   0.00000  Uiso   1.00
C637   C     0.76378   0.17267   0.52223   0.00000  Uiso   1.00
C638   C     0.82008   0.14599   0.93769   0.00000  Uiso   1.00
C639   C     0.84712   0.15188   0.51456   0.00000  Uiso   1.00
C640   C     0.88976   0.12964   0.98577   0.00000  Uiso   1.00
C641   C     0.89538   0.11322   0.93474   0.00000  Uiso   1.00
C642   C     0.86090   0.12124   0.91105   0.00000  Uiso   1.00
C643   C     0.84315   0.16933   0.56436   0.00000  Uiso   1.00
C644   C     0.91851   0.13813   0.56134   0.00000  Uiso   1.00
F645   F     0.95140   0.12876   0.58512   0.00000  Uiso   1.00
F646   F     0.74587   0.04097   0.79193   0.00000  Uiso   1.00
F647   F     0.93316   0.21868   0.81744   0.00000  Uiso   1.00
F648   F     0.93469   0.09021   0.90712   0.00000  Uiso   1.00
H649   H     0.95824   0.10666   0.98774   0.00000  Uiso   1.00
H650   H     0.69058   0.21319   0.81067   0.00000  Uiso   1.00
H651   H     0.75178   0.17742   0.56550   0.00000  Uiso   1.00
H652   H     0.86626   0.10739   0.87183   0.00000  Uiso   1.00
H653   H     0.81331   0.18933   0.58559   0.00000  Uiso   1.00
H654   H     0.71913   0.18726   0.92121   0.00000  Uiso   1.00
H655   H     0.69535   0.19341   0.52000   0.00000  Uiso   1.00
H656   H     0.91112   0.29591   0.71623   0.00000  Uiso   1.00
H657   H     0.91074   0.03797   0.71634   0.00000  Uiso   1.00
H658   H     0.75528   0.29490   0.78645   0.00000  Uiso   1.00
H659   H     0.97617   0.12007   0.68936   0.00000  Uiso   1.00
H660   H     0.72710   0.12007   0.68935   0.00000  Uiso   1.00
N661   N     0.71426   0.16668   0.75001   0.00000  Uiso   1.00
N662   N     0.95239   0.16665   0.75000   0.00000  Uiso   1.00
O663   O     0.79512   0.22775   0.75000   0.00000  Uiso   1.00
O664   O     0.87157   0.22774   0.75000   0.00000  Uiso   1.00
O665   O     0.77613   0.16666   0.82681   0.00000  Uiso   1.00
O666   O     0.85258   0.16665   0.82681   0.00000  Uiso   1.00
O667   O     0.79510   0.10559   0.74999   0.00000  Uiso   1.00
O668   O     0.87154   0.10558   0.74999   0.00000  Uiso   1.00
O669   O     0.81409   0.16668   0.67319   0.00000  Uiso   1.00
O670   O     0.89053   0.16667   0.67319   0.00000  Uiso   1.00
Zn671  Zn    0.78229   0.16667   0.75000   0.00000  Uiso   1.00
Zn672  Zn    0.88438   0.16666   0.75000   0.00000  Uiso   1.00
C673   C     0.16667   0.58000   0.75022   0.00000  Uiso   1.00
C674   C     0.12250   0.49401   0.91097   0.00000  Uiso   1.00
C675   C     0.21030   0.64545   0.73189   0.00000  Uiso   1.00
C676   C     0.13996   0.49769   0.85207   0.00000  Uiso   1.00
C677   C     0.21004   0.35480   0.73201   0.00000  Uiso   1.00
C678   C     0.16603   0.37578   0.75139   0.00000  Uiso   1.00
C679   C     0.12213   0.35429   0.77128   0.00000  Uiso   1.00
C680   C     0.12252   0.64493   0.77082   0.00000  Uiso   1.00
C681   C     0.16653   0.62409   0.75096   0.00000  Uiso   1.00
C682   C     0.31952   0.47410   0.71631   0.00000  Uiso   1.00
C683   C     0.03414   0.47411   0.71631   0.00000  Uiso   1.00
C684   C     0.14351   0.49033   0.99227   0.00000  Uiso   1.00
C685   C     0.01382   0.52586   0.78373   0.00000  Uiso   1.00
C686   C     0.29922   0.52591   0.78372   0.00000  Uiso   1.00
C687   C     0.16640   0.41996   0.75056   0.00000  Uiso   1.00
C688   C     0.19342   0.49962   0.64779   0.00000  Uiso   1.00
C689   C     0.25895   0.45706   0.50905   0.00000  Uiso   1.00
C690   C     0.20961   0.49334   0.58950   0.00000  Uiso   1.00
C691   C     0.07713   0.51023   0.94100   0.00000  Uiso   1.00
C692   C     0.06395   0.51471   0.99676   0.00000  Uiso   1.00
C693   C     0.09712   0.50600   0.52223   0.00000  Uiso   1.00
C694   C     0.15341   0.47933   0.93769   0.00000  Uiso   1.00
C695   C     0.18045   0.48522   0.51456   0.00000  Uiso   1.00
C696   C     0.22309   0.46297   0.98577   0.00000  Uiso   1.00
C697   C     0.22871   0.44655   0.93474   0.00000  Uiso   1.00
C698   C     0.19423   0.45457   0.91105   0.00000  Uiso   1.00
C699   C     0.17648   0.50266   0.56436   0.00000  Uiso   1.00
C700   C     0.25185   0.47146   0.56134   0.00000  Uiso   1.00
F701   F     0.28473   0.46210   0.58512   0.00000  Uiso   1.00
F702   F     0.07920   0.37431   0.79193   0.00000  Uiso   1.00
F703   F     0.26649   0.55202   0.81744   0.00000  Uiso   1.00
F704   F     0.26803   0.42354   0.90712   0.00000  Uiso   1.00
H705   H     0.29158   0.44000   0.98774   0.00000  Uiso   1.00
H706   H     0.02391   0.54653   0.81067   0.00000  Uiso   1.00
H707   H     0.08511   0.51075   0.56550   0.00000  Uiso   1.00
H708   H     0.19960   0.44073   0.87183   0.00000  Uiso   1.00
H709   H     0.14664   0.52266   0.58559   0.00000  Uiso   1.00
H710   H     0.05246   0.52059   0.92121   0.00000  Uiso   1.00
H711   H     0.02868   0.52674   0.52000   0.00000  Uiso   1.00
H712   H     0.24445   0.62924   0.71623   0.00000  Uiso   1.00
H713   H     0.24407   0.37130   0.71634   0.00000  Uiso   1.00
H714   H     0.08862   0.62824   0.78645   0.00000  Uiso   1.00
H715   H     0.30950   0.45340   0.68936   0.00000  Uiso   1.00
H716   H     0.06044   0.45340   0.68935   0.00000  Uiso   1.00
N717   N     0.04760   0.50001   0.75001   0.00000  Uiso   1.00
N718   N     0.28573   0.49998   0.75000   0.00000  Uiso   1.00
O719   O     0.12846   0.56108   0.75000   0.00000  Uiso   1.00
O720   O     0.20490   0.56107   0.75000   0.00000  Uiso   1.00
O721   O     0.10947   0.50000   0.82681   0.00000  Uiso   1.00
O722   O     0.18591   0.49999   0.82681   0.00000  Uiso   1.00
O723   O     0.12843   0.43893   0.74999   0.00000  Uiso   1.00
O724   O     0.20488   0.43892   0.74999   0.00000  Uiso   1.00
O725   O     0.14742   0.50001   0.67319   0.00000  Uiso   1.00
O726   O     0.22387   0.50000   0.67319   0.00000  Uiso   1.00
Zn727  Zn    0.11562   0.50001   0.75000   0.00000  Uiso   1.00
Zn728  Zn    0.21771   0.49999   0.75000   0.00000  Uiso   1.00
C729   C     0.50000   0.58000   0.75022   0.00000  Uiso   1.00
C730   C     0.45583   0.49401   0.91097   0.00000  Uiso   1.00
C731   C     0.54364   0.64545   0.73189   0.00000  Uiso   1.00
C732   C     0.47330   0.49769   0.85207   0.00000  Uiso   1.00
C733   C     0.54338   0.35480   0.73201   0.00000  Uiso   1.00
C734   C     0.49936   0.37578   0.75139   0.00000  Uiso   1.00
C735   C     0.45546   0.35429   0.77128   0.00000  Uiso   1.00
C736   C     0.45585   0.64493   0.77082   0.00000  Uiso   1.00
C737   C     0.49986   0.62409   0.75096   0.00000  Uiso   1.00
C738   C     0.65286   0.47410   0.71631   0.00000  Uiso   1.00
C739   C     0.36748   0.47411   0.71631   0.00000  Uiso   1.00
C740   C     0.47685   0.49033   0.99227   0.00000  Uiso   1.00
C741   C     0.34716   0.52586   0.78373   0.00000  Uiso   1.00
C742   C     0.63255   0.52591   0.78372   0.00000  Uiso   1.00
C743   C     0.49973   0.41996   0.75056   0.00000  Uiso   1.00
C744   C     0.52675   0.49962   0.64779   0.00000  Uiso   1.00
C745   C     0.59229   0.45706   0.50905   0.00000  Uiso   1.00
C746   C     0.54294   0.49334   0.58950   0.00000  Uiso   1.00
C747   C     0.41046   0.51023   0.94100   0.00000  Uiso   1.00
C748   C     0.39728   0.51471   0.99676   0.00000  Uiso   1.00
C749   C     0.43045   0.50600   0.52223   0.00000  Uiso   1.00
C750   C     0.48675   0.47933   0.93769   0.00000  Uiso   1.00
C751   C     0.51379   0.48522   0.51456   0.00000  Uiso   1.00
C752   C     0.55643   0.46297   0.98577   0.00000  Uiso   1.00
C753   C     0.56204   0.44655   0.93474   0.00000  Uiso   1.00
C754   C     0.52756   0.45457   0.91105   0.00000  Uiso   1.00
C755   C     0.50982   0.50266   0.56436   0.00000  Uiso   1.00
C756   C     0.58518   0.47146   0.56134   0.00000  Uiso   1.00
F757   F     0.61807   0.46210   0.58512   0.00000  Uiso   1.00
F758   F     0.41253   0.37431   0.79193   0.00000  Uiso   1.00
F759   F     0.59982   0.55202   0.81744   0.00000  Uiso   1.00
F760   F     0.60136   0.42354   0.90712   0.00000  Uiso   1.00
H761   H     0.62491   0.44000   0.98774   0.00000  Uiso   1.00
H762   H     0.35725   0.54653   0.81067   0.00000  Uiso   1.00
H763   H     0.41844   0.51075   0.56550   0.00000  Uiso   1.00
H764   H     0.53293   0.44073   0.87183   0.00000  Uiso   1.00
H765   H     0.47997   0.52266   0.58559   0.00000  Uiso   1.00
H766   H     0.38579   0.52059   0.92121   0.00000  Uiso   1.00
H767   H     0.36201   0.52674   0.52000   0.00000  Uiso   1.00
H768   H     0.57778   0.62924   0.71623   0.00000  Uiso   1.00
H769   H     0.57740   0.37130   0.71634   0.00000  Uiso   1.00
H770   H     0.42195   0.62824   0.78645   0.00000  Uiso   1.00
H771   H     0.64283   0.45340   0.68936   0.00000  Uiso   1.00
H772   H     0.39377   0.45340   0.68935   0.00000  Uiso   1.00
N773   N     0.38093   0.50001   0.75001   0.00000  Uiso   1.00
N774   N     0.61906   0.49998   0.75000   0.00000  Uiso   1.00
O775   O     0.46179   0.56108   0.75000   0.00000  Uiso   1.00
O776   O     0.53823   0.56107   0.75000   0.00000  Uiso   1.00
O777   O     0.44280   0.50000   0.82681   0.00000  Uiso   1.00
O778   O     0.51924   0.49999   0.82681   0.00000  Uiso   1.00
O779   O     0.46177   0.43893   0.74999   0.00000  Uiso   1.00
O780   O     0.53821   0.43892   0.74999   0.00000  Uiso   1.00
O781   O     0.48076   0.50001   0.67319   0.00000  Uiso   1.00
O782   O     0.55720   0.50000   0.67319   0.00000  Uiso   1.00
Zn783  Zn    0.44896   0.50001   0.75000   0.00000  Uiso   1.00
Zn784  Zn    0.55104   0.49999   0.75000   0.00000  Uiso   1.00
C785   C     0.83334   0.58000   0.75022   0.00000  Uiso   1.00
C786   C     0.78916   0.49401   0.91097   0.00000  Uiso   1.00
C787   C     0.87697   0.64545   0.73189   0.00000  Uiso   1.00
C788   C     0.80663   0.49769   0.85207   0.00000  Uiso   1.00
C789   C     0.87671   0.35480   0.73201   0.00000  Uiso   1.00
C790   C     0.83269   0.37578   0.75139   0.00000  Uiso   1.00
C791   C     0.78879   0.35429   0.77128   0.00000  Uiso   1.00
C792   C     0.78919   0.64493   0.77082   0.00000  Uiso   1.00
C793   C     0.83319   0.62409   0.75096   0.00000  Uiso   1.00
C794   C     0.98619   0.47410   0.71631   0.00000  Uiso   1.00
C795   C     0.70081   0.47411   0.71631   0.00000  Uiso   1.00
C796   C     0.81018   0.49033   0.99227   0.00000  Uiso   1.00
C797   C     0.68049   0.52586   0.78373   0.00000  Uiso   1.00
C798   C     0.96589   0.52591   0.78372   0.00000  Uiso   1.00
C799   C     0.83306   0.41996   0.75056   0.00000  Uiso   1.00
C800   C     0.86008   0.49962   0.64779   0.00000  Uiso   1.00
C801   C     0.92562   0.45706   0.50905   0.00000  Uiso   1.00
C802   C     0.87627   0.49334   0.58950   0.00000  Uiso   1.00
C803   C     0.74380   0.51023   0.94100   0.00000  Uiso   1.00
C804   C     0.73061   0.51471   0.99676   0.00000  Uiso   1.00
C805   C     0.76378   0.50600   0.52223   0.00000  Uiso   1.00
C806   C     0.82008   0.47933   0.93769   0.00000  Uiso   1.00
C807   C     0.84712   0.48522   0.51456   0.00000  Uiso   1.00
C808   C     0.88976   0.46297   0.98577   0.00000  Uiso   1.00
C809   C     0.89538   0.44655   0.93474   0.00000  Uiso   1.00
C810   C     0.86090   0.45457   0.91105   0.00000  Uiso   1.00
C811   C     0.84315   0.50266   0.56436   0.00000  Uiso   1.00
C812   C     0.91851   0.47146   0.56134   0.00000  Uiso   1.00
F813   F     0.95140   0.46210   0.58512   0.00000  Uiso   1.00
F814   F     0.74587   0.37431   0.79193   0.00000  Uiso   1.00
F815   F     0.93316   0.55202   0.81744   0.00000  Uiso   1.00
F816   F     0.93469   0.42354   0.90712   0.00000  Uiso   1.00
H817   H     0.95824   0.44000   0.98774   0.00000  Uiso   1.00
H818   H     0.69058   0.54653   0.81067   0.00000  Uiso   1.00
H819   H     0.75178   0.51075   0.56550   0.00000  Uiso   1.00
H820   H     0.86626   0.44073   0.87183   0.00000  Uiso   1.00
H821   H     0.81331   0.52266   0.58559   0.00000  Uiso   1.00
H822   H     0.71913   0.52059   0.92121   0.00000  Uiso   1.00
H823   H     0.69535   0.52674   0.52000   0.00000  Uiso   1.00
H824   H     0.91112   0.62924   0.71623   0.00000  Uiso   1.00
H825   H     0.91074   0.37130   0.71634   0.00000  Uiso   1.00
H826   H     0.75528   0.62824   0.78645   0.00000  Uiso   1.00
H827   H     0.97617   0.45340   0.68936   0.00000  Uiso   1.00
H828   H     0.72710   0.45340   0.68935   0.00000  Uiso   1.00
N829   N     0.71426   0.50001   0.75001   0.00000  Uiso   1.00
N830   N     0.95239   0.49998   0.75000   0.00000  Uiso   1.00
O831   O     0.79512   0.56108   0.75000   0.00000  Uiso   1.00
O832   O     0.87157   0.56107   0.75000   0.00000  Uiso   1.00
O833   O     0.77613   0.50000   0.82681   0.00000  Uiso   1.00
O834   O     0.85258   0.49999   0.82681   0.00000  Uiso   1.00
O835   O     0.79510   0.43893   0.74999   0.00000  Uiso   1.00
O836   O     0.87154   0.43892   0.74999   0.00000  Uiso   1.00
O837   O     0.81409   0.50001   0.67319   0.00000  Uiso   1.00
O838   O     0.89053   0.50000   0.67319   0.00000  Uiso   1.00
Zn839  Zn    0.78229   0.50001   0.75000   0.00000  Uiso   1.00
Zn840  Zn    0.88438   0.49999   0.75000   0.00000  Uiso   1.00
C841   C     0.16667   0.91333   0.75022   0.00000  Uiso   1.00
C842   C     0.12250   0.82734   0.91097   0.00000  Uiso   1.00
C843   C     0.21030   0.97878   0.73189   0.00000  Uiso   1.00
C844   C     0.13996   0.83103   0.85207   0.00000  Uiso   1.00
C845   C     0.21004   0.68813   0.73201   0.00000  Uiso   1.00
C846   C     0.16603   0.70912   0.75139   0.00000  Uiso   1.00
C847   C     0.12213   0.68762   0.77128   0.00000  Uiso   1.00
C848   C     0.12252   0.97826   0.77082   0.00000  Uiso   1.00
C849   C     0.16653   0.95742   0.75096   0.00000  Uiso   1.00
C850   C     0.31952   0.80743   0.71631   0.00000  Uiso   1.00
C851   C     0.03414   0.80744   0.71631   0.00000  Uiso   1.00
C852   C     0.14351   0.82366   0.99227   0.00000  Uiso   1.00
C853   C     0.01382   0.85919   0.78373   0.00000  Uiso   1.00
C854   C     0.29922   0.85924   0.78372   0.00000  Uiso   1.00
C855   C     0.16640   0.75330   0.75056   0.00000  Uiso   1.00
C856   C     0.19342   0.83295   0.64779   0.00000  Uiso   1.00
C857   C     0.25895   0.79040   0.50905   0.00000  Uiso   1.00
C858   C     0.20961   0.82668   0.58950   0.00000  Uiso   1.00
C859   C     0.07713   0.84356   0.94100   0.00000  Uiso   1.00
C860   C     0.06395   0.84805   0.99676   0.00000  Uiso   1.00
C861   C     0.09712   0.83934   0.52223   0.00000  Uiso   1.00
C862   C     0.15341   0.81266   0.93769   0.00000  Uiso   1.00
C863   C     0.18045   0.81855   0.51456   0.00000  Uiso   1.00
C864   C     0.22309   0.79631   0.98577   0.00000  Uiso   1.00
C865   C     0.22871   0.77988   0.93474   0.00000  Uiso   1.00
C866   C     0.19423   0.78791   0.91105   0.00000  Uiso   1.00
C867   C     0.17648   0.83599   0.56436   0.00000  Uiso   1.00
C868   C     0.25185   0.80480   0.56134   0.00000  Uiso   1.00
F869   F     0.28473   0.79543   0.58512   0.00000  Uiso   1.00
F870   F     0.07920   0.70764   0.79193   0.00000  Uiso   1.00
F871   F     0.26649   0.88535   0.81744   0.00000  Uiso   1.00
F872   F     0.26803   0.75687   0.90712   0.00000  Uiso   1.00
H873   H     0.29158   0.77333   0.98774   0.00000  Uiso   1.00
H874   H     0.02391   0.87986   0.81067   0.00000  Uiso   1.00
H875   H     0.08511   0.84408   0.56550   0.00000  Uiso   1.00
H876   H     0.19960   0.77406   0.87183   0.00000  Uiso   1.00
H877   H     0.14664   0.85600   0.58559   0.00000  Uiso   1.00
H878   H     0.05246   0.85393   0.92121   0.00000  Uiso   1.00
H879   H     0.02868   0.86007   0.52000   0.00000  Uiso   1.00
H880   H     0.24445   0.96257   0.71623   0.00000  Uiso   1.00
H881   H     0.24407   0.70463   0.71634   0.00000  Uiso   1.00
H882   H     0.08862   0.96157   0.78645   0.00000  Uiso   1.00
H883   H     0.30950   0.78674   0.68936   0.00000  Uiso   1.00
H884   H     0.06044   0.78674   0.68935   0.00000  Uiso   1.00
N885   N     0.04760   0.83334   0.75001   0.00000  Uiso   1.00
N886   N     0.28573   0.83331   0.75000   0.00000  Uiso   1.00
O887   O     0.12846   0.89442   0.75000   0.00000  Uiso   1.00
O888   O     0.20490   0.89441   0.75000   0.00000  Uiso   1.00
O889   O     0.10947   0.83333   0.82681   0.00000  Uiso   1.00
O890   O     0.18591   0.83332   0.82681   0.00000  Uiso   1.00
O891   O     0.12843   0.77226   0.74999   0.00000  Uiso   1.00
O892   O     0.20488   0.77225   0.74999   0.00000  Uiso   1.00
O893   O     0.14742   0.83335   0.67319   0.00000  Uiso   1.00
O894   O     0.22387   0.83334   0.67319   0.00000  Uiso   1.00
Zn895  Zn    0.11562   0.83334   0.75000   0.00000  Uiso   1.00
Zn896  Zn    0.21771   0.83333   0.75000   0.00000  Uiso   1.00
C897   C     0.50000   0.91333   0.75022   0.00000  Uiso   1.00
C898   C     0.45583   0.82734   0.91097   0.00000  Uiso   1.00
C899   C     0.54364   0.97878   0.73189   0.00000  Uiso   1.00
C900   C     0.47330   0.83103   0.85207   0.00000  Uiso   1.00
C901   C     0.54338   0.68813   0.73201   0.00000  Uiso   1.00
C902   C     0.49936   0.70912   0.75139   0.00000  Uiso   1.00
C903   C     0.45546   0.68762   0.77128   0.00000  Uiso   1.00
C904   C     0.45585   0.97826   0.77082   0.00000  Uiso   1.00
C905   C     0.49986   0.95742   0.75096   0.00000  Uiso   1.00
C906   C     0.65286   0.80743   0.71631   0.00000  Uiso   1.00
C907   C     0.36748   0.80744   0.71631   0.00000  Uiso   1.00
C908   C     0.47685   0.82366   0.99227   0.00000  Uiso   1.00
C909   C     0.34716   0.85919   0.78373   0.00000  Uiso   1.00
C910   C     0.63255   0.85924   0.78372   0.00000  Uiso   1.00
C911   C     0.49973   0.75330   0.75056   0.00000  Uiso   1.00
C912   C     0.52675   0.83295   0.64779   0.00000  Uiso   1.00
C913   C     0.59229   0.79040   0.50905   0.00000  Uiso   1.00
C914   C     0.54294   0.82668   0.58950   0.00000  Uiso   1.00
C915   C     0.41046   0.84356   0.94100   0.00000  Uiso   1.00
C916   C     0.39728   0.84805   0.99676   0.00000  Uiso   1.00
C917   C     0.43045   0.83934   0.52223   0.00000  Uiso   1.00
C918   C     0.48675   0.81266   0.93769   0.00000  Uiso   1.00
C919   C     0.51379   0.81855   0.51456   0.00000  Uiso   1.00
C920   C     0.55643   0.79631   0.98577   0.00000  Uiso   1.00
C921   C     0.56204   0.77988   0.93474   0.00000  Uiso   1.00
C922   C     0.52756   0.78791   0.91105   0.00000  Uiso   1.00
C923   C     0.50982   0.83599   0.56436   0.00000  Uiso   1.00
C924   C     0.58518   0.80480   0.56134   0.00000  Uiso   1.00
F925   F     0.61807   0.79543   0.58512   0.00000  Uiso   1.00
F926   F     0.41253   0.70764   0.79193   0.00000  Uiso   1.00
F927   F     0.59982   0.88535   0.81744   0.00000  Uiso   1.00
F928   F     0.60136   0.75687   0.90712   0.00000  Uiso   1.00
H929   H     0.62491   0.77333   0.98774   0.00000  Uiso   1.00
H930   H     0.35725   0.87986   0.81067   0.00000  Uiso   1.00
H931   H     0.41844   0.84408   0.56550   0.00000  Uiso   1.00
H932   H     0.53293   0.77406   0.87183   0.00000  Uiso   1.00
H933   H     0.47997   0.85600   0.58559   0.00000  Uiso   1.00
H934   H     0.38579   0.85393   0.92121   0.00000  Uiso   1.00
H935   H     0.36201   0.86007   0.52000   0.00000  Uiso   1.00
H936   H     0.57778   0.96257   0.71623   0.00000  Uiso   1.00
H937   H     0.57740   0.70463   0.71634   0.00000  Uiso   1.00
H938   H     0.42195   0.96157   0.78645   0.00000  Uiso   1.00
H939   H     0.64283   0.78674   0.68936   0.00000  Uiso   1.00
H940   H     0.39377   0.78674   0.68935   0.00000  Uiso   1.00
N941   N     0.38093   0.83334   0.75001   0.00000  Uiso   1.00
N942   N     0.61906   0.83331   0.75000   0.00000  Uiso   1.00
O943   O     0.46179   0.89442   0.75000   0.00000  Uiso   1.00
O944   O     0.53823   0.89441   0.75000   0.00000  Uiso   1.00
O945   O     0.44280   0.83333   0.82681   0.00000  Uiso   1.00
O946   O     0.51924   0.83332   0.82681   0.00000  Uiso   1.00
O947   O     0.46177   0.77226   0.74999   0.00000  Uiso   1.00
O948   O     0.53821   0.77225   0.74999   0.00000  Uiso   1.00
O949   O     0.48076   0.83335   0.67319   0.00000  Uiso   1.00
O950   O     0.55720   0.83334   0.67319   0.00000  Uiso   1.00
Zn951  Zn    0.44896   0.83334   0.75000   0.00000  Uiso   1.00
Zn952  Zn    0.55104   0.83333   0.75000   0.00000  Uiso   1.00
C953   C     0.83334   0.91333   0.75022   0.00000  Uiso   1.00
C954   C     0.78916   0.82734   0.91097   0.00000  Uiso   1.00
C955   C     0.87697   0.97878   0.73189   0.00000  Uiso   1.00
C956   C     0.80663   0.83103   0.85207   0.00000  Uiso   1.00
C957   C     0.87671   0.68813   0.73201   0.00000  Uiso   1.00
C958   C     0.83269   0.70912   0.75139   0.00000  Uiso   1.00
C959   C     0.78879   0.68762   0.77128   0.00000  Uiso   1.00
C960   C     0.78919   0.97826   0.77082   0.00000  Uiso   1.00
C961   C     0.83319   0.95742   0.75096   0.00000  Uiso   1.00
C962   C     0.98619   0.80743   0.71631   0.00000  Uiso   1.00
C963   C     0.70081   0.80744   0.71631   0.00000  Uiso   1.00
C964   C     0.81018   0.82366   0.99227   0.00000  Uiso   1.00
C965   C     0.68049   0.85919   0.78373   0.00000  Uiso   1.00
C966   C     0.96589   0.85924   0.78372   0.00000  Uiso   1.00
C967   C     0.83306   0.75330   0.75056   0.00000  Uiso   1.00
C968   C     0.86008   0.83295   0.64779   0.00000  Uiso   1.00
C969   C     0.92562   0.79040   0.50905   0.00000  Uiso   1.00
C970   C     0.87627   0.82668   0.58950   0.00000  Uiso   1.00
C971   C     0.74380   0.84356   0.94100   0.00000  Uiso   1.00
C972   C     0.73061   0.84805   0.99676   0.00000  Uiso   1.00
C973   C     0.76378   0.83934   0.52223   0.00000  Uiso   1.00
C974   C     0.82008   0.81266   0.93769   0.00000  Uiso   1.00
C975   C     0.84712   0.81855   0.51456   0.00000  Uiso   1.00
C976   C     0.88976   0.79631   0.98577   0.00000  Uiso   1.00
C977   C     0.89538   0.77988   0.93474   0.00000  Uiso   1.00
C978   C     0.86090   0.78791   0.91105   0.00000  Uiso   1.00
C979   C     0.84315   0.83599   0.56436   0.00000  Uiso   1.00
C980   C     0.91851   0.80480   0.56134   0.00000  Uiso   1.00
F981   F     0.95140   0.79543   0.58512   0.00000  Uiso   1.00
F982   F     0.74587   0.70764   0.79193   0.00000  Uiso   1.00
F983   F     0.93316   0.88535   0.81744   0.00000  Uiso   1.00
F984   F     0.93469   0.75687   0.90712   0.00000  Uiso   1.00
H985   H     0.95824   0.77333   0.98774   0.00000  Uiso   1.00
H986   H     0.69058   0.87986   0.81067   0.00000  Uiso   1.00
H987   H     0.75178   0.84408   0.56550   0.00000  Uiso   1.00
H988   H     0.86626   0.77406   0.87183   0.00000  Uiso   1.00
H989   H     0.81331   0.85600   0.58559   0.00000  Uiso   1.00
H990   H     0.71913   0.85393   0.92121   0.00000  Uiso   1.00
H991   H     0.69535   0.86007   0.52000   0.00000  Uiso   1.00
H992   H     0.91112   0.96257   0.71623   0.00000  Uiso   1.00
H993   H     0.91074   0.70463   0.71634   0.00000  Uiso   1.00
H994   H     0.75528   0.96157   0.78645   0.00000  Uiso   1.00
H995   H     0.97617   0.78674   0.68936   0.00000  Uiso   1.00
H996   H     0.72710   0.78674   0.68935   0.00000  Uiso   1.00
N997   N     0.71426   0.83334   0.75001   0.00000  Uiso   1.00
N998   N     0.95239   0.83331   0.75000   0.00000  Uiso   1.00
O999   O     0.79512   0.89442   0.75000   0.00000  Uiso   1.00
O1000  O     0.87157   0.89441   0.75000   0.00000  Uiso   1.00
O1001  O     0.77613   0.83333   0.82681   0.00000  Uiso   1.00
O1002  O     0.85258   0.83332   0.82681   0.00000  Uiso   1.00
O1003  O     0.79510   0.77226   0.74999   0.00000  Uiso   1.00
O1004  O     0.87154   0.77225   0.74999   0.00000  Uiso   1.00
O1005  O     0.81409   0.83335   0.67319   0.00000  Uiso   1.00
O1006  O     0.89053   0.83334   0.67319   0.00000  Uiso   1.00
Zn1007 Zn    0.78229   0.83334   0.75000   0.00000  Uiso   1.00
Zn1008 Zn    0.88438   0.83333   0.75000   0.00000  Uiso   1.00
loop_
_geom_bond_atom_site_label_1
_geom_bond_atom_site_label_2
_geom_bond_distance
_geom_bond_site_symmetry_2
_ccdc_geom_bond_type
C1     O48     1.282   .     A
C1     C9      1.416   .     S
C1     O47     1.282   .     A
C2     C4      1.459   .     S
C2     C22     1.411   .     A
C2     C19     1.402   .     A
C3     C9      1.395   .     A
C3     H40     1.084   .     S
C3     C173    1.370   .     S
C4     O49     1.291   .     A
C4     O50     1.292   .     A
C5     C6      1.398   .     A
C5     H41     1.084   .     S
C5     C339    1.370   1_545 S
C6     C7      1.401   .     A
C6     C15     1.419   .     S
C7     F30     1.359   .     S
C7     C344    1.371   1_545 S
C8     H42     1.084   .     S
C8     C9      1.396   .     A
C8     C175    1.371   .     S
C10    N46     1.366   .     A
C10    H43     1.082   .     S
C10    C67     1.416   .     S
C11    H44     1.082   .     S
C11    N45     1.367   .     A
C11    C122    1.416   1_455 S
C12    C22     1.406   .     A
C12    C525    1.419   .     S
C12    C527    1.414   .     S
C13    N45     1.365   .     A
C13    H34     1.082   .     S
C13    C126    1.416   1_455 S
C14    F31     1.355   .     S
C14    N46     1.368   .     A
C14    C69     1.416   .     S
C15    O51     1.282   .     A
C15    O52     1.283   .     A
C16    O54     1.290   .     A
C16    O53     1.292   .     A
C16    C18     1.453   .     S
C17    C28     1.395   .     A
C17    C528    1.406   1_554 S
C17    H537    1.083   1_554 S
C18    C28     1.403   .     A
C18    C27     1.389   .     A
C19    H38     1.083   .     S
C19    C20     1.388   .     A
C20    C525    1.392   .     S
C20    H543    1.083   .     S
C21    H35     1.079   .     S
C21    C516    1.419   1_554 S
C21    C524    1.392   1_554 S
C22    C26     1.414   .     A
C23    C27     1.389   .     A
C23    C516    1.414   1_554 S
C23    C528    1.421   1_554 S
C24    C25     1.395   .     A
C24    C521    1.406   .     S
C24    C527    1.421   .     S
C25    F32     1.358   .     S
C25    C26     1.388   .     A
C26    H36     1.082   .     S
C27    H37     1.079   .     S
C28    F29     1.357   .     S
H33    C521    1.083   .     S
H39    C524    1.083   1_554 S
N45    Zn55    2.009   .     S
N46    Zn56    2.009   .     S
O47    Zn55    1.996   .     S
O48    Zn56    1.998   .     S
O49    Zn55    1.963   .     S
O50    Zn56    1.912   .     S
O51    Zn55    1.998   .     S
O52    Zn56    1.996   .     S
O53    Zn55    1.912   .     S
O54    Zn56    1.963   .     S
C57    O104    1.282   .     A
C57    C65     1.416   .     S
C57    O103    1.282   .     A
C58    C60     1.459   .     S
C58    C78     1.411   .     A
C58    C75     1.402   .     A
C59    C65     1.395   .     A
C59    H96     1.084   .     S
C59    C229    1.370   .     S
C60    O105    1.291   .     A
C60    O106    1.292   .     A
C61    C62     1.398   .     A
C61    H97     1.084   .     S
C61    C395    1.370   1_545 S
C62    C63     1.401   .     A
C62    C71     1.419   .     S
C63    F86     1.359   .     S
C63    C400    1.371   1_545 S
C64    H98     1.084   .     S
C64    C65     1.396   .     A
C64    C231    1.371   .     S
C66    N102    1.366   .     A
C66    H99     1.082   .     S
C66    C123    1.416   .     S
C67    H100    1.082   .     S
C67    N101    1.367   .     A
C68    C78     1.406   .     A
C68    C581    1.419   .     S
C68    C583    1.414   .     S
C69    N101    1.365   .     A
C69    H90     1.082   .     S
C70    F87     1.355   .     S
C70    N102    1.368   .     A
C70    C125    1.416   .     S
C71    O107    1.282   .     A
C71    O108    1.283   .     A
C72    O110    1.290   .     A
C72    O109    1.292   .     A
C72    C74     1.453   .     S
C73    C84     1.395   .     A
C73    C584    1.406   1_554 S
C73    H593    1.083   1_554 S
C74    C84     1.403   .     A
C74    C83     1.389   .     A
C75    H94     1.083   .     S
C75    C76     1.388   .     A
C76    C581    1.392   .     S
C76    H599    1.083   .     S
C77    H91     1.079   .     S
C77    C572    1.419   1_554 S
C77    C580    1.392   1_554 S
C78    C82     1.414   .     A
C79    C83     1.389   .     A
C79    C572    1.414   1_554 S
C79    C584    1.421   1_554 S
C80    C81     1.395   .     A
C80    C577    1.406   .     S
C80    C583    1.421   .     S
C81    F88     1.358   .     S
C81    C82     1.388   .     A
C82    H92     1.082   .     S
C83    H93     1.079   .     S
C84    F85     1.357   .     S
H89    C577    1.083   .     S
H95    C580    1.083   1_554 S
N101   Zn111   2.009   .     S
N102   Zn112   2.009   .     S
O103   Zn111   1.996   .     S
O104   Zn112   1.998   .     S
O105   Zn111   1.963   .     S
O106   Zn112   1.912   .     S
O107   Zn111   1.998   .     S
O108   Zn112   1.996   .     S
O109   Zn111   1.912   .     S
O110   Zn112   1.963   .     S
C113   O160    1.282   .     A
C113   C121    1.416   .     S
C113   O159    1.282   .     A
C114   C116    1.459   .     S
C114   C134    1.411   .     A
C114   C131    1.402   .     A
C115   C121    1.395   .     A
C115   H152    1.084   .     S
C115   C285    1.370   .     S
C116   O161    1.291   .     A
C116   O162    1.292   .     A
C117   C118    1.398   .     A
C117   H153    1.084   .     S
C117   C451    1.370   1_545 S
C118   C119    1.401   .     A
C118   C127    1.419   .     S
C119   F142    1.359   .     S
C119   C456    1.371   1_545 S
C120   H154    1.084   .     S
C120   C121    1.396   .     A
C120   C287    1.371   .     S
C122   N158    1.366   .     A
C122   H155    1.082   .     S
C122   C11     1.416   1_655 S
C123   H156    1.082   .     S
C123   N157    1.367   .     A
C124   C134    1.406   .     A
C124   C637    1.419   .     S
C124   C639    1.414   .     S
C125   N157    1.365   .     A
C125   H146    1.082   .     S
C126   F143    1.355   .     S
C126   N158    1.368   .     A
C126   C13     1.416   1_655 S
C127   O163    1.282   .     A
C127   O164    1.283   .     A
C128   O166    1.290   .     A
C128   O165    1.292   .     A
C128   C130    1.453   .     S
C129   C140    1.395   .     A
C129   C640    1.406   1_554 S
C129   H649    1.083   1_554 S
C130   C140    1.403   .     A
C130   C139    1.389   .     A
C131   H150    1.083   .     S
C131   C132    1.388   .     A
C132   C637    1.392   .     S
C132   H655    1.083   .     S
C133   H147    1.079   .     S
C133   C628    1.419   1_554 S
C133   C636    1.392   1_554 S
C134   C138    1.414   .     A
C135   C139    1.389   .     A
C135   C628    1.414   1_554 S
C135   C640    1.421   1_554 S
C136   C137    1.395   .     A
C136   C633    1.406   .     S
C136   C639    1.421   .     S
C137   F144    1.358   .     S
C137   C138    1.388   .     A
C138   H148    1.082   .     S
C139   H149    1.079   .     S
C140   F141    1.357   .     S
H145   C633    1.083   .     S
H151   C636    1.083   1_554 S
N157   Zn167   2.009   .     S
N158   Zn168   2.009   .     S
O159   Zn167   1.996   .     S
O160   Zn168   1.998   .     S
O161   Zn167   1.963   .     S
O162   Zn168   1.912   .     S
O163   Zn167   1.998   .     S
O164   Zn168   1.996   .     S
O165   Zn167   1.912   .     S
O166   Zn168   1.963   .     S
C169   O216    1.282   .     A
C169   C177    1.416   .     S
C169   O215    1.282   .     A
C170   C172    1.459   .     S
C170   C190    1.411   .     A
C170   C187    1.402   .     A
C171   C177    1.395   .     A
C171   H208    1.084   .     S
C171   C341    1.370   .     S
C172   O217    1.291   .     A
C172   O218    1.292   .     A
C173   C174    1.398   .     A
C173   H209    1.084   .     S
C174   C175    1.401   .     A
C174   C183    1.419   .     S
C175   F198    1.359   .     S
C176   H210    1.084   .     S
C176   C177    1.396   .     A
C176   C343    1.371   .     S
C178   N214    1.366   .     A
C178   H211    1.082   .     S
C178   C235    1.416   .     S
C179   H212    1.082   .     S
C179   N213    1.367   .     A
C179   C290    1.416   1_455 S
C180   C190    1.406   .     A
C180   C693    1.419   .     S
C180   C695    1.414   .     S
C181   N213    1.365   .     A
C181   H202    1.082   .     S
C181   C294    1.416   1_455 S
C182   F199    1.355   .     S
C182   N214    1.368   .     A
C182   C237    1.416   .     S
C183   O219    1.282   .     A
C183   O220    1.283   .     A
C184   O222    1.290   .     A
C184   O221    1.292   .     A
C184   C186    1.453   .     S
C185   C196    1.395   .     A
C185   C696    1.406   1_554 S
C185   H705    1.083   1_554 S
C186   C196    1.403   .     A
C186   C195    1.389   .     A
C187   H206    1.083   .     S
C187   C188    1.388   .     A
C188   C693    1.392   .     S
C188   H711    1.083   .     S
C189   H203    1.079   .     S
C189   C684    1.419   1_554 S
C189   C692    1.392   1_554 S
C190   C194    1.414   .     A
C191   C195    1.389   .     A
C191   C684    1.414   1_554 S
C191   C696    1.421   1_554 S
C192   C193    1.395   .     A
C192   C689    1.406   .     S
C192   C695    1.421   .     S
C193   F200    1.358   .     S
C193   C194    1.388   .     A
C194   H204    1.082   .     S
C195   H205    1.079   .     S
C196   F197    1.357   .     S
H201   C689    1.083   .     S
H207   C692    1.083   1_554 S
N213   Zn223   2.009   .     S
N214   Zn224   2.009   .     S
O215   Zn223   1.996   .     S
O216   Zn224   1.998   .     S
O217   Zn223   1.963   .     S
O218   Zn224   1.912   .     S
O219   Zn223   1.998   .     S
O220   Zn224   1.996   .     S
O221   Zn223   1.912   .     S
O222   Zn224   1.963   .     S
C225   O272    1.282   .     A
C225   C233    1.416   .     S
C225   O271    1.282   .     A
C226   C228    1.459   .     S
C226   C246    1.411   .     A
C226   C243    1.402   .     A
C227   C233    1.395   .     A
C227   H264    1.084   .     S
C227   C397    1.370   .     S
C228   O273    1.291   .     A
C228   O274    1.292   .     A
C229   C230    1.398   .     A
C229   H265    1.084   .     S
C230   C231    1.401   .     A
C230   C239    1.419   .     S
C231   F254    1.359   .     S
C232   H266    1.084   .     S
C232   C233    1.396   .     A
C232   C399    1.371   .     S
C234   N270    1.366   .     A
C234   H267    1.082   .     S
C234   C291    1.416   .     S
C235   H268    1.082   .     S
C235   N269    1.367   .     A
C236   C246    1.406   .     A
C236   C749    1.419   .     S
C236   C751    1.414   .     S
C237   N269    1.365   .     A
C237   H258    1.082   .     S
C238   F255    1.355   .     S
C238   N270    1.368   .     A
C238   C293    1.416   .     S
C239   O275    1.282   .     A
C239   O276    1.283   .     A
C240   O278    1.290   .     A
C240   O277    1.292   .     A
C240   C242    1.453   .     S
C241   C252    1.395   .     A
C241   C752    1.406   1_554 S
C241   H761    1.083   1_554 S
C242   C252    1.403   .     A
C242   C251    1.389   .     A
C243   H262    1.083   .     S
C243   C244    1.388   .     A
C244   C749    1.392   .     S
C244   H767    1.083   .     S
C245   H259    1.079   .     S
C245   C740    1.419   1_554 S
C245   C748    1.392   1_554 S
C246   C250    1.414   .     A
C247   C251    1.389   .     A
C247   C740    1.414   1_554 S
C247   C752    1.421   1_554 S
C248   C249    1.395   .     A
C248   C745    1.406   .     S
C248   C751    1.421   .     S
C249   F256    1.358   .     S
C249   C250    1.388   .     A
C250   H260    1.082   .     S
C251   H261    1.079   .     S
C252   F253    1.357   .     S
H257   C745    1.083   .     S
H263   C748    1.083   1_554 S
N269   Zn279   2.009   .     S
N270   Zn280   2.009   .     S
O271   Zn279   1.996   .     S
O272   Zn280   1.998   .     S
O273   Zn279   1.963   .     S
O274   Zn280   1.912   .     S
O275   Zn279   1.998   .     S
O276   Zn280   1.996   .     S
O277   Zn279   1.912   .     S
O278   Zn280   1.963   .     S
C281   O328    1.282   .     A
C281   C289    1.416   .     S
C281   O327    1.282   .     A
C282   C284    1.459   .     S
C282   C302    1.411   .     A
C282   C299    1.402   .     A
C283   C289    1.395   .     A
C283   H320    1.084   .     S
C283   C453    1.370   .     S
C284   O329    1.291   .     A
C284   O330    1.292   .     A
C285   C286    1.398   .     A
C285   H321    1.084   .     S
C286   C287    1.401   .     A
C286   C295    1.419   .     S
C287   F310    1.359   .     S
C288   H322    1.084   .     S
C288   C289    1.396   .     A
C288   C455    1.371   .     S
C290   N326    1.366   .     A
C290   H323    1.082   .     S
C290   C179    1.416   1_655 S
C291   H324    1.082   .     S
C291   N325    1.367   .     A
C292   C302    1.406   .     A
C292   C805    1.419   .     S
C292   C807    1.414   .     S
C293   N325    1.365   .     A
C293   H314    1.082   .     S
C294   F311    1.355   .     S
C294   N326    1.368   .     A
C294   C181    1.416   1_655 S
C295   O331    1.282   .     A
C295   O332    1.283   .     A
C296   O334    1.290   .     A
C296   O333    1.292   .     A
C296   C298    1.453   .     S
C297   C308    1.395   .     A
C297   C808    1.406   1_554 S
C297   H817    1.083   1_554 S
C298   C308    1.403   .     A
C298   C307    1.389   .     A
C299   H318    1.083   .     S
C299   C300    1.388   .     A
C300   C805    1.392   .     S
C300   H823    1.083   .     S
C301   H315    1.079   .     S
C301   C796    1.419   1_554 S
C301   C804    1.392   1_554 S
C302   C306    1.414   .     A
C303   C307    1.389   .     A
C303   C796    1.414   1_554 S
C303   C808    1.421   1_554 S
C304   C305    1.395   .     A
C304   C801    1.406   .     S
C304   C807    1.421   .     S
C305   F312    1.358   .     S
C305   C306    1.388   .     A
C306   H316    1.082   .     S
C307   H317    1.079   .     S
C308   F309    1.357   .     S
H313   C801    1.083   .     S
H319   C804    1.083   1_554 S
N325   Zn335   2.009   .     S
N326   Zn336   2.009   .     S
O327   Zn335   1.996   .     S
O328   Zn336   1.998   .     S
O329   Zn335   1.963   .     S
O330   Zn336   1.912   .     S
O331   Zn335   1.998   .     S
O332   Zn336   1.996   .     S
O333   Zn335   1.912   .     S
O334   Zn336   1.963   .     S
C337   O384    1.282   .     A
C337   C345    1.416   .     S
C337   O383    1.282   .     A
C338   C340    1.459   .     S
C338   C358    1.411   .     A
C338   C355    1.402   .     A
C339   C345    1.395   .     A
C339   H376    1.084   .     S
C339   C5      1.370   1_565 S
C340   O385    1.291   .     A
C340   O386    1.292   .     A
C341   C342    1.398   .     A
C341   H377    1.084   .     S
C342   C343    1.401   .     A
C342   C351    1.419   .     S
C343   F366    1.359   .     S
C344   H378    1.084   .     S
C344   C345    1.396   .     A
C344   C7      1.371   1_565 S
C346   N382    1.366   .     A
C346   H379    1.082   .     S
C346   C403    1.416   .     S
C347   H380    1.082   .     S
C347   N381    1.367   .     A
C347   C458    1.416   1_455 S
C348   C358    1.406   .     A
C348   C861    1.419   .     S
C348   C863    1.414   .     S
C349   N381    1.365   .     A
C349   H370    1.082   .     S
C349   C462    1.416   1_455 S
C350   F367    1.355   .     S
C350   N382    1.368   .     A
C350   C405    1.416   .     S
C351   O387    1.282   .     A
C351   O388    1.283   .     A
C352   O390    1.290   .     A
C352   O389    1.292   .     A
C352   C354    1.453   .     S
C353   C364    1.395   .     A
C353   C864    1.406   1_554 S
C353   H873    1.083   1_554 S
C354   C364    1.403   .     A
C354   C363    1.389   .     A
C355   H374    1.083   .     S
C355   C356    1.388   .     A
C356   C861    1.392   .     S
C356   H879    1.083   .     S
C357   H371    1.079   .     S
C357   C852    1.419   1_554 S
C357   C860    1.392   1_554 S
C358   C362    1.414   .     A
C359   C363    1.389   .     A
C359   C852    1.414   1_554 S
C359   C864    1.421   1_554 S
C360   C361    1.395   .     A
C360   C857    1.406   .     S
C360   C863    1.421   .     S
C361   F368    1.358   .     S
C361   C362    1.388   .     A
C362   H372    1.082   .     S
C363   H373    1.079   .     S
C364   F365    1.357   .     S
H369   C857    1.083   .     S
H375   C860    1.083   1_554 S
N381   Zn391   2.009   .     S
N382   Zn392   2.009   .     S
O383   Zn391   1.996   .     S
O384   Zn392   1.998   .     S
O385   Zn391   1.963   .     S
O386   Zn392   1.912   .     S
O387   Zn391   1.998   .     S
O388   Zn392   1.996   .     S
O389   Zn391   1.912   .     S
O390   Zn392   1.963   .     S
C393   O440    1.282   .     A
C393   C401    1.416   .     S
C393   O439    1.282   .     A
C394   C396    1.459   .     S
C394   C414    1.411   .     A
C394   C411    1.402   .     A
C395   C401    1.395   .     A
C395   H432    1.084   .     S
C395   C61     1.370   1_565 S
C396   O441    1.291   .     A
C396   O442    1.292   .     A
C397   C398    1.398   .     A
C397   H433    1.084   .     S
C398   C399    1.401   .     A
C398   C407    1.419   .     S
C399   F422    1.359   .     S
C400   H434    1.084   .     S
C400   C401    1.396   .     A
C400   C63     1.371   1_565 S
C402   N438    1.366   .     A
C402   H435    1.082   .     S
C402   C459    1.416   .     S
C403   H436    1.082   .     S
C403   N437    1.367   .     A
C404   C414    1.406   .     A
C404   C917    1.419   .     S
C404   C919    1.414   .     S
C405   N437    1.365   .     A
C405   H426    1.082   .     S
C406   F423    1.355   .     S
C406   N438    1.368   .     A
C406   C461    1.416   .     S
C407   O443    1.282   .     A
C407   O444    1.283   .     A
C408   O446    1.290   .     A
C408   O445    1.292   .     A
C408   C410    1.453   .     S
C409   C420    1.395   .     A
C409   C920    1.406   1_554 S
C409   H929    1.083   1_554 S
C410   C420    1.403   .     A
C410   C419    1.389   .     A
C411   H430    1.083   .     S
C411   C412    1.388   .     A
C412   C917    1.392   .     S
C412   H935    1.083   .     S
C413   H427    1.079   .     S
C413   C908    1.419   1_554 S
C413   C916    1.392   1_554 S
C414   C418    1.414   .     A
C415   C419    1.389   .     A
C415   C908    1.414   1_554 S
C415   C920    1.421   1_554 S
C416   C417    1.395   .     A
C416   C913    1.406   .     S
C416   C919    1.421   .     S
C417   F424    1.358   .     S
C417   C418    1.388   .     A
C418   H428    1.082   .     S
C419   H429    1.079   .     S
C420   F421    1.357   .     S
H425   C913    1.083   .     S
H431   C916    1.083   1_554 S
N437   Zn447   2.009   .     S
N438   Zn448   2.009   .     S
O439   Zn447   1.996   .     S
O440   Zn448   1.998   .     S
O441   Zn447   1.963   .     S
O442   Zn448   1.912   .     S
O443   Zn447   1.998   .     S
O444   Zn448   1.996   .     S
O445   Zn447   1.912   .     S
O446   Zn448   1.963   .     S
C449   O496    1.282   .     A
C449   C457    1.416   .     S
C449   O495    1.282   .     A
C450   C452    1.459   .     S
C450   C470    1.411   .     A
C450   C467    1.402   .     A
C451   C457    1.395   .     A
C451   H488    1.084   .     S
C451   C117    1.370   1_565 S
C452   O497    1.291   .     A
C452   O498    1.292   .     A
C453   C454    1.398   .     A
C453   H489    1.084   .     S
C454   C455    1.401   .     A
C454   C463    1.419   .     S
C455   F478    1.359   .     S
C456   H490    1.084   .     S
C456   C457    1.396   .     A
C456   C119    1.371   1_565 S
C458   N494    1.366   .     A
C458   H491    1.082   .     S
C458   C347    1.416   1_655 S
C459   H492    1.082   .     S
C459   N493    1.367   .     A
C460   C470    1.406   .     A
C460   C973    1.419   .     S
C460   C975    1.414   .     S
C461   N493    1.365   .     A
C461   H482    1.082   .     S
C462   F479    1.355   .     S
C462   N494    1.368   .     A
C462   C349    1.416   1_655 S
C463   O499    1.282   .     A
C463   O500    1.283   .     A
C464   O502    1.290   .     A
C464   O501    1.292   .     A
C464   C466    1.453   .     S
C465   C476    1.395   .     A
C465   C976    1.406   1_554 S
C465   H985    1.083   1_554 S
C466   C476    1.403   .     A
C466   C475    1.389   .     A
C467   H486    1.083   .     S
C467   C468    1.388   .     A
C468   C973    1.392   .     S
C468   H991    1.083   .     S
C469   H483    1.079   .     S
C469   C964    1.419   1_554 S
C469   C972    1.392   1_554 S
C470   C474    1.414   .     A
C471   C475    1.389   .     A
C471   C964    1.414   1_554 S
C471   C976    1.421   1_554 S
C472   C473    1.395   .     A
C472   C969    1.406   .     S
C472   C975    1.421   .     S
C473   F480    1.358   .     S
C473   C474    1.388   .     A
C474   H484    1.082   .     S
C475   H485    1.079   .     S
C476   F477    1.357   .     S
H481   C969    1.083   .     S
H487   C972    1.083   1_554 S
N493   Zn503   2.009   .     S
N494   Zn504   2.009   .     S
O495   Zn503   1.996   .     S
O496   Zn504   1.998   .     S
O497   Zn503   1.963   .     S
O498   Zn504   1.912   .     S
O499   Zn503   1.998   .     S
O500   Zn504   1.996   .     S
O501   Zn503   1.912   .     S
O502   Zn504   1.963   .     S
C505   O552    1.282   .     A
C505   C513    1.416   .     S
C505   O551    1.282   .     A
C506   C508    1.459   .     S
C506   C526    1.411   .     A
C506   C523    1.402   .     A
C507   C513    1.395   .     A
C507   H544    1.084   .     S
C507   C677    1.370   .     S
C508   O553    1.291   .     A
C508   O554    1.292   .     A
C509   C510    1.398   .     A
C509   H545    1.084   .     S
C509   C843    1.370   1_545 S
C510   C511    1.401   .     A
C510   C519    1.419   .     S
C511   F534    1.359   .     S
C511   C848    1.371   1_545 S
C512   H546    1.084   .     S
C512   C513    1.396   .     A
C512   C679    1.371   .     S
C514   N550    1.366   .     A
C514   H547    1.082   .     S
C514   C571    1.416   .     S
C515   H548    1.082   .     S
C515   N549    1.367   .     A
C515   C626    1.416   1_455 S
C516   C526    1.406   .     A
C516   C21     1.419   1_556 S
C516   C23     1.414   1_556 S
C517   N549    1.365   .     A
C517   H538    1.082   .     S
C517   C630    1.416   1_455 S
C518   F535    1.355   .     S
C518   N550    1.368   .     A
C518   C573    1.416   .     S
C519   O555    1.282   .     A
C519   O556    1.283   .     A
C520   O558    1.290   .     A
C520   O557    1.292   .     A
C520   C522    1.453   .     S
C521   C532    1.395   .     A
C522   C532    1.403   .     A
C522   C531    1.389   .     A
C523   H542    1.083   .     S
C523   C524    1.388   .     A
C524   C21     1.392   1_556 S
C524   H39     1.083   1_556 S
C525   H539    1.079   .     S
C526   C530    1.414   .     A
C527   C531    1.389   .     A
C528   C529    1.395   .     A
C528   C17     1.406   1_556 S
C528   C23     1.421   1_556 S
C529   F536    1.358   .     S
C529   C530    1.388   .     A
C530   H540    1.082   .     S
C531   H541    1.079   .     S
C532   F533    1.357   .     S
H537   C17     1.083   1_556 S
N549   Zn559   2.009   .     S
N550   Zn560   2.009   .     S
O551   Zn559   1.996   .     S
O552   Zn560   1.998   .     S
O553   Zn559   1.963   .     S
O554   Zn560   1.912   .     S
O555   Zn559   1.998   .     S
O556   Zn560   1.996   .     S
O557   Zn559   1.912   .     S
O558   Zn560   1.963   .     S
C561   O608    1.282   .     A
C561   C569    1.416   .     S
C561   O607    1.282   .     A
C562   C564    1.459   .     S
C562   C582    1.411   .     A
C562   C579    1.402   .     A
C563   C569    1.395   .     A
C563   H600    1.084   .     S
C563   C733    1.370   .     S
C564   O609    1.291   .     A
C564   O610    1.292   .     A
C565   C566    1.398   .     A
C565   H601    1.084   .     S
C565   C899    1.370   1_545 S
C566   C567    1.401   .     A
C566   C575    1.419   .     S
C567   F590    1.359   .     S
C567   C904    1.371   1_545 S
C568   H602    1.084   .     S
C568   C569    1.396   .     A
C568   C735    1.371   .     S
C570   N606    1.366   .     A
C570   H603    1.082   .     S
C570   C627    1.416   .     S
C571   H604    1.082   .     S
C571   N605    1.367   .     A
C572   C582    1.406   .     A
C572   C77     1.419   1_556 S
C572   C79     1.414   1_556 S
C573   N605    1.365   .     A
C573   H594    1.082   .     S
C574   F591    1.355   .     S
C574   N606    1.368   .     A
C574   C629    1.416   .     S
C575   O611    1.282   .     A
C575   O612    1.283   .     A
C576   O614    1.290   .     A
C576   O613    1.292   .     A
C576   C578    1.453   .     S
C577   C588    1.395   .     A
C578   C588    1.403   .     A
C578   C587    1.389   .     A
C579   H598    1.083   .     S
C579   C580    1.388   .     A
C580   C77     1.392   1_556 S
C580   H95     1.083   1_556 S
C581   H595    1.079   .     S
C582   C586    1.414   .     A
C583   C587    1.389   .     A
C584   C585    1.395   .     A
C584   C73     1.406   1_556 S
C584   C79     1.421   1_556 S
C585   F592    1.358   .     S
C585   C586    1.388   .     A
C586   H596    1.082   .     S
C587   H597    1.079   .     S
C588   F589    1.357   .     S
H593   C73     1.083   1_556 S
N605   Zn615   2.009   .     S
N606   Zn616   2.009   .     S
O607   Zn615   1.996   .     S
O608   Zn616   1.998   .     S
O609   Zn615   1.963   .     S
O610   Zn616   1.912   .     S
O611   Zn615   1.998   .     S
O612   Zn616   1.996   .     S
O613   Zn615   1.912   .     S
O614   Zn616   1.963   .     S
C617   O664    1.282   .     A
C617   C625    1.416   .     S
C617   O663    1.282   .     A
C618   C620    1.459   .     S
C618   C638    1.411   .     A
C618   C635    1.402   .     A
C619   C625    1.395   .     A
C619   H656    1.084   .     S
C619   C789    1.370   .     S
C620   O665    1.291   .     A
C620   O666    1.292   .     A
C621   C622    1.398   .     A
C621   H657    1.084   .     S
C621   C955    1.370   1_545 S
C622   C623    1.401   .     A
C622   C631    1.419   .     S
C623   F646    1.359   .     S
C623   C960    1.371   1_545 S
C624   H658    1.084   .     S
C624   C625    1.396   .     A
C624   C791    1.371   .     S
C626   N662    1.366   .     A
C626   H659    1.082   .     S
C626   C515    1.416   1_655 S
C627   H660    1.082   .     S
C627   N661    1.367   .     A
C628   C638    1.406   .     A
C628   C133    1.419   1_556 S
C628   C135    1.414   1_556 S
C629   N661    1.365   .     A
C629   H650    1.082   .     S
C630   F647    1.355   .     S
C630   N662    1.368   .     A
C630   C517    1.416   1_655 S
C631   O667    1.282   .     A
C631   O668    1.283   .     A
C632   O670    1.290   .     A
C632   O669    1.292   .     A
C632   C634    1.453   .     S
C633   C644    1.395   .     A
C634   C644    1.403   .     A
C634   C643    1.389   .     A
C635   H654    1.083   .     S
C635   C636    1.388   .     A
C636   C133    1.392   1_556 S
C636   H151    1.083   1_556 S
C637   H651    1.079   .     S
C638   C642    1.414   .     A
C639   C643    1.389   .     A
C640   C641    1.395   .     A
C640   C129    1.406   1_556 S
C640   C135    1.421   1_556 S
C641   F648    1.358   .     S
C641   C642    1.388   .     A
C642   H652    1.082   .     S
C643   H653    1.079   .     S
C644   F645    1.357   .     S
H649   C129    1.083   1_556 S
N661   Zn671   2.009   .     S
N662   Zn672   2.009   .     S
O663   Zn671   1.996   .     S
O664   Zn672   1.998   .     S
O665   Zn671   1.963   .     S
O666   Zn672   1.912   .     S
O667   Zn671   1.998   .     S
O668   Zn672   1.996   .     S
O669   Zn671   1.912   .     S
O670   Zn672   1.963   .     S
C673   O720    1.282   .     A
C673   C681    1.416   .     S
C673   O719    1.282   .     A
C674   C676    1.459   .     S
C674   C694    1.411   .     A
C674   C691    1.402   .     A
C675   C681    1.395   .     A
C675   H712    1.084   .     S
C675   C845    1.370   .     S
C676   O721    1.291   .     A
C676   O722    1.292   .     A
C677   C678    1.398   .     A
C677   H713    1.084   .     S
C678   C679    1.401   .     A
C678   C687    1.419   .     S
C679   F702    1.359   .     S
C680   H714    1.084   .     S
C680   C681    1.396   .     A
C680   C847    1.371   .     S
C682   N718    1.366   .     A
C682   H715    1.082   .     S
C682   C739    1.416   .     S
C683   H716    1.082   .     S
C683   N717    1.367   .     A
C683   C794    1.416   1_455 S
C684   C694    1.406   .     A
C684   C189    1.419   1_556 S
C684   C191    1.414   1_556 S
C685   N717    1.365   .     A
C685   H706    1.082   .     S
C685   C798    1.416   1_455 S
C686   F703    1.355   .     S
C686   N718    1.368   .     A
C686   C741    1.416   .     S
C687   O723    1.282   .     A
C687   O724    1.283   .     A
C688   O726    1.290   .     A
C688   O725    1.292   .     A
C688   C690    1.453   .     S
C689   C700    1.395   .     A
C690   C700    1.403   .     A
C690   C699    1.389   .     A
C691   H710    1.083   .     S
C691   C692    1.388   .     A
C692   C189    1.392   1_556 S
C692   H207    1.083   1_556 S
C693   H707    1.079   .     S
C694   C698    1.414   .     A
C695   C699    1.389   .     A
C696   C697    1.395   .     A
C696   C185    1.406   1_556 S
C696   C191    1.421   1_556 S
C697   F704    1.358   .     S
C697   C698    1.388   .     A
C698   H708    1.082   .     S
C699   H709    1.079   .     S
C700   F701    1.357   .     S
H705   C185    1.083   1_556 S
N717   Zn727   2.009   .     S
N718   Zn728   2.009   .     S
O719   Zn727   1.996   .     S
O720   Zn728   1.998   .     S
O721   Zn727   1.963   .     S
O722   Zn728   1.912   .     S
O723   Zn727   1.998   .     S
O724   Zn728   1.996   .     S
O725   Zn727   1.912   .     S
O726   Zn728   1.963   .     S
C729   O776    1.282   .     A
C729   C737    1.416   .     S
C729   O775    1.282   .     A
C730   C732    1.459   .     S
C730   C750    1.411   .     A
C730   C747    1.402   .     A
C731   C737    1.395   .     A
C731   H768    1.084   .     S
C731   C901    1.370   .     S
C732   O777    1.291   .     A
C732   O778    1.292   .     A
C733   C734    1.398   .     A
C733   H769    1.084   .     S
C734   C735    1.401   .     A
C734   C743    1.419   .     S
C735   F758    1.359   .     S
C736   H770    1.084   .     S
C736   C737    1.396   .     A
C736   C903    1.371   .     S
C738   N774    1.366   .     A
C738   H771    1.082   .     S
C738   C795    1.416   .     S
C739   H772    1.082   .     S
C739   N773    1.367   .     A
C740   C750    1.406   .     A
C740   C245    1.419   1_556 S
C740   C247    1.414   1_556 S
C741   N773    1.365   .     A
C741   H762    1.082   .     S
C742   F759    1.355   .     S
C742   N774    1.368   .     A
C742   C797    1.416   .     S
C743   O779    1.282   .     A
C743   O780    1.283   .     A
C744   O782    1.290   .     A
C744   O781    1.292   .     A
C744   C746    1.453   .     S
C745   C756    1.395   .     A
C746   C756    1.403   .     A
C746   C755    1.389   .     A
C747   H766    1.083   .     S
C747   C748    1.388   .     A
C748   C245    1.392   1_556 S
C748   H263    1.083   1_556 S
C749   H763    1.079   .     S
C750   C754    1.414   .     A
C751   C755    1.389   .     A
C752   C753    1.395   .     A
C752   C241    1.406   1_556 S
C752   C247    1.421   1_556 S
C753   F760    1.358   .     S
C753   C754    1.388   .     A
C754   H764    1.082   .     S
C755   H765    1.079   .     S
C756   F757    1.357   .     S
H761   C241    1.083   1_556 S
N773   Zn783   2.009   .     S
N774   Zn784   2.009   .     S
O775   Zn783   1.996   .     S
O776   Zn784   1.998   .     S
O777   Zn783   1.963   .     S
O778   Zn784   1.912   .     S
O779   Zn783   1.998   .     S
O780   Zn784   1.996   .     S
O781   Zn783   1.912   .     S
O782   Zn784   1.963   .     S
C785   O832    1.282   .     A
C785   C793    1.416   .     S
C785   O831    1.282   .     A
C786   C788    1.459   .     S
C786   C806    1.411   .     A
C786   C803    1.402   .     A
C787   C793    1.395   .     A
C787   H824    1.084   .     S
C787   C957    1.370   .     S
C788   O833    1.291   .     A
C788   O834    1.292   .     A
C789   C790    1.398   .     A
C789   H825    1.084   .     S
C790   C791    1.401   .     A
C790   C799    1.419   .     S
C791   F814    1.359   .     S
C792   H826    1.084   .     S
C792   C793    1.396   .     A
C792   C959    1.371   .     S
C794   N830    1.366   .     A
C794   H827    1.082   .     S
C794   C683    1.416   1_655 S
C795   H828    1.082   .     S
C795   N829    1.367   .     A
C796   C806    1.406   .     A
C796   C301    1.419   1_556 S
C796   C303    1.414   1_556 S
C797   N829    1.365   .     A
C797   H818    1.082   .     S
C798   F815    1.355   .     S
C798   N830    1.368   .     A
C798   C685    1.416   1_655 S
C799   O835    1.282   .     A
C799   O836    1.283   .     A
C800   O838    1.290   .     A
C800   O837    1.292   .     A
C800   C802    1.453   .     S
C801   C812    1.395   .     A
C802   C812    1.403   .     A
C802   C811    1.389   .     A
C803   H822    1.083   .     S
C803   C804    1.388   .     A
C804   C301    1.392   1_556 S
C804   H319    1.083   1_556 S
C805   H819    1.079   .     S
C806   C810    1.414   .     A
C807   C811    1.389   .     A
C808   C809    1.395   .     A
C808   C297    1.406   1_556 S
C808   C303    1.421   1_556 S
C809   F816    1.358   .     S
C809   C810    1.388   .     A
C810   H820    1.082   .     S
C811   H821    1.079   .     S
C812   F813    1.357   .     S
H817   C297    1.083   1_556 S
N829   Zn839   2.009   .     S
N830   Zn840   2.009   .     S
O831   Zn839   1.996   .     S
O832   Zn840   1.998   .     S
O833   Zn839   1.963   .     S
O834   Zn840   1.912   .     S
O835   Zn839   1.998   .     S
O836   Zn840   1.996   .     S
O837   Zn839   1.912   .     S
O838   Zn840   1.963   .     S
C841   O888    1.282   .     A
C841   C849    1.416   .     S
C841   O887    1.282   .     A
C842   C844    1.459   .     S
C842   C862    1.411   .     A
C842   C859    1.402   .     A
C843   C849    1.395   .     A
C843   H880    1.084   .     S
C843   C509    1.370   1_565 S
C844   O889    1.291   .     A
C844   O890    1.292   .     A
C845   C846    1.398   .     A
C845   H881    1.084   .     S
C846   C847    1.401   .     A
C846   C855    1.419   .     S
C847   F870    1.359   .     S
C848   H882    1.084   .     S
C848   C849    1.396   .     A
C848   C511    1.371   1_565 S
C850   N886    1.366   .     A
C850   H883    1.082   .     S
C850   C907    1.416   .     S
C851   H884    1.082   .     S
C851   N885    1.367   .     A
C851   C962    1.416   1_455 S
C852   C862    1.406   .     A
C852   C357    1.419   1_556 S
C852   C359    1.414   1_556 S
C853   N885    1.365   .     A
C853   H874    1.082   .     S
C853   C966    1.416   1_455 S
C854   F871    1.355   .     S
C854   N886    1.368   .     A
C854   C909    1.416   .     S
C855   O891    1.282   .     A
C855   O892    1.283   .     A
C856   O894    1.290   .     A
C856   O893    1.292   .     A
C856   C858    1.453   .     S
C857   C868    1.395   .     A
C858   C868    1.403   .     A
C858   C867    1.389   .     A
C859   H878    1.083   .     S
C859   C860    1.388   .     A
C860   C357    1.392   1_556 S
C860   H375    1.083   1_556 S
C861   H875    1.079   .     S
C862   C866    1.414   .     A
C863   C867    1.389   .     A
C864   C865    1.395   .     A
C864   C353    1.406   1_556 S
C864   C359    1.421   1_556 S
C865   F872    1.358   .     S
C865   C866    1.388   .     A
C866   H876    1.082   .     S
C867   H877    1.079   .     S
C868   F869    1.357   .     S
H873   C353    1.083   1_556 S
N885   Zn895   2.009   .     S
N886   Zn896   2.009   .     S
O887   Zn895   1.996   .     S
O888   Zn896   1.998   .     S
O889   Zn895   1.963   .     S
O890   Zn896   1.912   .     S
O891   Zn895   1.998   .     S
O892   Zn896   1.996   .     S
O893   Zn895   1.912   .     S
O894   Zn896   1.963   .     S
C897   O944    1.282   .     A
C897   C905    1.416   .     S
C897   O943    1.282   .     A
C898   C900    1.459   .     S
C898   C918    1.411   .     A
C898   C915    1.402   .     A
C899   C905    1.395   .     A
C899   H936    1.084   .     S
C899   C565    1.370   1_565 S
C900   O945    1.291   .     A
C900   O946    1.292   .     A
C901   C902    1.398   .     A
C901   H937    1.084   .     S
C902   C903    1.401   .     A
C902   C911    1.419   .     S
C903   F926    1.359   .     S
C904   H938    1.084   .     S
C904   C905    1.396   .     A
C904   C567    1.371   1_565 S
C906   N942    1.366   .     A
C906   H939    1.082   .     S
C906   C963    1.416   .     S
C907   H940    1.082   .     S
C907   N941    1.367   .     A
C908   C918    1.406   .     A
C908   C413    1.419   1_556 S
C908   C415    1.414   1_556 S
C909   N941    1.365   .     A
C909   H930    1.082   .     S
C910   F927    1.355   .     S
C910   N942    1.368   .     A
C910   C965    1.416   .     S
C911   O947    1.282   .     A
C911   O948    1.283   .     A
C912   O950    1.290   .     A
C912   O949    1.292   .     A
C912   C914    1.453   .     S
C913   C924    1.395   .     A
C914   C924    1.403   .     A
C914   C923    1.389   .     A
C915   H934    1.083   .     S
C915   C916    1.388   .     A
C916   C413    1.392   1_556 S
C916   H431    1.083   1_556 S
C917   H931    1.079   .     S
C918   C922    1.414   .     A
C919   C923    1.389   .     A
C920   C921    1.395   .     A
C920   C409    1.406   1_556 S
C920   C415    1.421   1_556 S
C921   F928    1.358   .     S
C921   C922    1.388   .     A
C922   H932    1.082   .     S
C923   H933    1.079   .     S
C924   F925    1.357   .     S
H929   C409    1.083   1_556 S
N941   Zn951   2.009   .     S
N942   Zn952   2.009   .     S
O943   Zn951   1.996   .     S
O944   Zn952   1.998   .     S
O945   Zn951   1.963   .     S
O946   Zn952   1.912   .     S
O947   Zn951   1.998   .     S
O948   Zn952   1.996   .     S
O949   Zn951   1.912   .     S
O950   Zn952   1.963   .     S
C953   O1000   1.282   .     A
C953   C961    1.416   .     S
C953   O999    1.282   .     A
C954   C956    1.459   .     S
C954   C974    1.411   .     A
C954   C971    1.402   .     A
C955   C961    1.395   .     A
C955   H992    1.084   .     S
C955   C621    1.370   1_565 S
C956   O1001   1.291   .     A
C956   O1002   1.292   .     A
C957   C958    1.398   .     A
C957   H993    1.084   .     S
C958   C959    1.401   .     A
C958   C967    1.419   .     S
C959   F982    1.359   .     S
C960   H994    1.084   .     S
C960   C961    1.396   .     A
C960   C623    1.371   1_565 S
C962   N998    1.366   .     A
C962   H995    1.082   .     S
C962   C851    1.416   1_655 S
C963   H996    1.082   .     S
C963   N997    1.367   .     A
C964   C974    1.406   .     A
C964   C469    1.419   1_556 S
C964   C471    1.414   1_556 S
C965   N997    1.365   .     A
C965   H986    1.082   .     S
C966   F983    1.355   .     S
C966   N998    1.368   .     A
C966   C853    1.416   1_655 S
C967   O1003   1.282   .     A
C967   O1004   1.283   .     A
C968   O1006   1.290   .     A
C968   O1005   1.292   .     A
C968   C970    1.453   .     S
C969   C980    1.395   .     A
C970   C980    1.403   .     A
C970   C979    1.389   .     A
C971   H990    1.083   .     S
C971   C972    1.388   .     A
C972   C469    1.392   1_556 S
C972   H487    1.083   1_556 S
C973   H987    1.079   .     S
C974   C978    1.414   .     A
C975   C979    1.389   .     A
C976   C977    1.395   .     A
C976   C465    1.406   1_556 S
C976   C471    1.421   1_556 S
C977   F984    1.358   .     S
C977   C978    1.388   .     A
C978   H988    1.082   .     S
C979   H989    1.079   .     S
C980   F981    1.357   .     S
H985   C465    1.083   1_556 S
N997   Zn1007  2.009   .     S
N998   Zn1008  2.009   .     S
O999   Zn1007  1.996   .     S
O1000  Zn1008  1.998   .     S
O1001  Zn1007  1.963   .     S
O1002  Zn1008  1.912   .     S
O1003  Zn1007  1.998   .     S
O1004  Zn1008  1.996   .     S
O1005  Zn1007  1.912   .     S
O1006  Zn1008  1.963   .     S
