data_str_m3_o1_o18_pcu_sym.111
_audit_creation_date              2020-01-03
_audit_creation_method            'Materials Studio'
_symmetry_space_group_name_H-M    'P1'
_symmetry_Int_Tables_number       1
_symmetry_cell_setting            triclinic
loop_
_symmetry_equiv_pos_as_xyz
  x,y,z
_cell_length_a                    29.5674
_cell_length_b                    32.1397
_cell_length_c                    30.6137
_cell_angle_alpha                 90.0357
_cell_angle_beta                  68.6968
_cell_angle_gamma                 90.0348
loop_
_atom_site_label
_atom_site_type_symbol
_atom_site_fract_x
_atom_site_fract_y
_atom_site_fract_z
_atom_site_U_iso_or_equiv
_atom_site_adp_type
_atom_site_occupancy
O1     O     0.12846   0.22775   0.25001   0.00000  Uiso   1.00
O2     O     0.20488   0.10558   0.25000   0.00000  Uiso   1.00
O3     O     0.20490   0.22774   0.25000   0.00000  Uiso   1.00
O4     O     0.12843   0.10559   0.25000   0.00000  Uiso   1.00
C5     C     0.16668   0.24670   0.25002   0.00000  Uiso   1.00
C6     C     0.16664   0.08664   0.25000   0.00000  Uiso   1.00
O7     O     0.10661   0.16667   0.31613   0.00000  Uiso   1.00
O8     O     0.22672   0.16666   0.18388   0.00000  Uiso   1.00
O9     O     0.18305   0.16666   0.31612   0.00000  Uiso   1.00
O10    O     0.15028   0.16667   0.18388   0.00000  Uiso   1.00
C11    C     0.13650   0.16615   0.33818   0.00000  Uiso   1.00
C12    C     0.19676   0.16566   0.16175   0.00000  Uiso   1.00
Zn13   Zn    0.11562   0.16667   0.25000   0.00000  Uiso   1.00
Zn14   Zn    0.21771   0.16666   0.25000   0.00000  Uiso   1.00
C15    C     0.11757   0.16097   0.38900   0.00000  Uiso   1.00
C16    C     0.21392   0.15558   0.11174   0.00000  Uiso   1.00
C17    C     0.05166   0.16274   0.46408   0.00000  Uiso   1.00
C18    C     0.26887   0.11868   0.04436   0.00000  Uiso   1.00
C19    C     0.06847   0.16772   0.41567   0.00000  Uiso   1.00
C20    C     0.25850   0.13576   0.08897   0.00000  Uiso   1.00
C21    C     0.14904   0.14732   0.41069   0.00000  Uiso   1.00
C22    C     0.18034   0.15817   0.08960   0.00000  Uiso   1.00
C23    C     0.13212   0.13906   0.45878   0.00000  Uiso   1.00
C24    C     0.18727   0.13631   0.04827   0.00000  Uiso   1.00
C25    C     0.08347   0.14960   0.48591   0.00000  Uiso   1.00
C26    C     0.23357   0.11926   0.02359   0.00000  Uiso   1.00
C27    C     0.16384   0.12527   0.48115   0.00000  Uiso   1.00
C28    C     0.15009   0.13348   0.02961   0.00000  Uiso   1.00
C29    C     0.09995   0.13958   0.05696   0.00000  Uiso   1.00
C30    C     0.20932   0.10527   0.45723   0.00000  Uiso   1.00
C31    C     0.06743   0.14768   0.03451   0.00000  Uiso   1.00
C32    C     0.24350   0.10247   0.47905   0.00000  Uiso   1.00
H33    H     0.28441   0.13231   0.10621   0.00000  Uiso   1.00
H34    H     0.04351   0.17800   0.39932   0.00000  Uiso   1.00
H35    H     0.01416   0.17014   0.48450   0.00000  Uiso   1.00
H36    H     0.30376   0.10400   0.02675   0.00000  Uiso   1.00
C37    C     0.20249   0.31207   0.26090   0.00000  Uiso   1.00
C38    C     0.13078   0.02129   0.23922   0.00000  Uiso   1.00
H39    H     0.23018   0.29585   0.26968   0.00000  Uiso   1.00
H40    H     0.10312   0.03751   0.23042   0.00000  Uiso   1.00
C41    C     0.20247   0.02137   0.26091   0.00000  Uiso   1.00
C42    C     0.13079   0.31199   0.23925   0.00000  Uiso   1.00
C43    C     0.16663   0.04250   0.25005   0.00000  Uiso   1.00
C44    C     0.16666   0.29085   0.25006   0.00000  Uiso   1.00
C45    C     0.31427   0.13200   0.23697   0.00000  Uiso   1.00
C46    C     0.01890   0.20121   0.26344   0.00000  Uiso   1.00
C47    C     0.02880   0.13200   0.23703   0.00000  Uiso   1.00
C48    C     0.30435   0.20119   0.26346   0.00000  Uiso   1.00
H49    H     0.05079   0.10429   0.22637   0.00000  Uiso   1.00
H50    H     0.28226   0.22882   0.27437   0.00000  Uiso   1.00
N51    N     0.04759   0.16668   0.25001   0.00000  Uiso   1.00
N52    N     0.28574   0.16666   0.24999   0.00000  Uiso   1.00
H53    H     0.02966   0.15356   0.05516   0.00000  Uiso   1.00
H54    H     0.27801   0.08725   0.46111   0.00000  Uiso   1.00
H55    H     0.14783   0.17643   0.10588   0.00000  Uiso   1.00
H56    H     0.18724   0.14461   0.38992   0.00000  Uiso   1.00
N57    N     0.08057   0.13329   0.10685   0.00000  Uiso   1.00
O58    O     0.09637   0.10283   0.12542   0.00000  Uiso   1.00
O59    O     0.04281   0.15431   0.13295   0.00000  Uiso   1.00
N60    N     0.21898   0.08321   0.41387   0.00000  Uiso   1.00
O61    O     0.18473   0.06182   0.40707   0.00000  Uiso   1.00
O62    O     0.26319   0.08004   0.38373   0.00000  Uiso   1.00
H63    H     0.23013   0.03765   0.26971   0.00000  Uiso   1.00
H64    H     0.10310   0.29571   0.23049   0.00000  Uiso   1.00
H65    H     0.30033   0.10431   0.22620   0.00000  Uiso   1.00
H66    H     0.03282   0.22887   0.27431   0.00000  Uiso   1.00
O67    O     0.46179   0.22775   0.25001   0.00000  Uiso   1.00
O68    O     0.53821   0.10558   0.25000   0.00000  Uiso   1.00
O69    O     0.53823   0.22774   0.25000   0.00000  Uiso   1.00
O70    O     0.46177   0.10559   0.25000   0.00000  Uiso   1.00
C71    C     0.50001   0.24670   0.25002   0.00000  Uiso   1.00
C72    C     0.49998   0.08664   0.25000   0.00000  Uiso   1.00
O73    O     0.43994   0.16667   0.31613   0.00000  Uiso   1.00
O74    O     0.56006   0.16666   0.18388   0.00000  Uiso   1.00
O75    O     0.51639   0.16666   0.31612   0.00000  Uiso   1.00
O76    O     0.48361   0.16667   0.18388   0.00000  Uiso   1.00
C77    C     0.46983   0.16615   0.33818   0.00000  Uiso   1.00
C78    C     0.53010   0.16566   0.16175   0.00000  Uiso   1.00
Zn79   Zn    0.44896   0.16667   0.25000   0.00000  Uiso   1.00
Zn80   Zn    0.55104   0.16666   0.25000   0.00000  Uiso   1.00
C81    C     0.45090   0.16097   0.38900   0.00000  Uiso   1.00
C82    C     0.54725   0.15558   0.11174   0.00000  Uiso   1.00
C83    C     0.38499   0.16274   0.46408   0.00000  Uiso   1.00
C84    C     0.60220   0.11868   0.04436   0.00000  Uiso   1.00
C85    C     0.40180   0.16772   0.41567   0.00000  Uiso   1.00
C86    C     0.59184   0.13576   0.08897   0.00000  Uiso   1.00
C87    C     0.48238   0.14732   0.41069   0.00000  Uiso   1.00
C88    C     0.51368   0.15817   0.08960   0.00000  Uiso   1.00
C89    C     0.46546   0.13906   0.45878   0.00000  Uiso   1.00
C90    C     0.52060   0.13631   0.04827   0.00000  Uiso   1.00
C91    C     0.41680   0.14960   0.48591   0.00000  Uiso   1.00
C92    C     0.56691   0.11926   0.02359   0.00000  Uiso   1.00
C93    C     0.49718   0.12527   0.48115   0.00000  Uiso   1.00
C94    C     0.48342   0.13348   0.02961   0.00000  Uiso   1.00
C95    C     0.43329   0.13958   0.05696   0.00000  Uiso   1.00
C96    C     0.54265   0.10527   0.45723   0.00000  Uiso   1.00
C97    C     0.40076   0.14768   0.03451   0.00000  Uiso   1.00
C98    C     0.57683   0.10247   0.47905   0.00000  Uiso   1.00
H99    H     0.61774   0.13231   0.10621   0.00000  Uiso   1.00
H100   H     0.37684   0.17800   0.39932   0.00000  Uiso   1.00
H101   H     0.34749   0.17014   0.48450   0.00000  Uiso   1.00
H102   H     0.63710   0.10400   0.02675   0.00000  Uiso   1.00
C103   C     0.53583   0.31207   0.26090   0.00000  Uiso   1.00
C104   C     0.46412   0.02129   0.23922   0.00000  Uiso   1.00
H105   H     0.56351   0.29585   0.26968   0.00000  Uiso   1.00
H106   H     0.43645   0.03751   0.23042   0.00000  Uiso   1.00
C107   C     0.53580   0.02137   0.26091   0.00000  Uiso   1.00
C108   C     0.46412   0.31199   0.23925   0.00000  Uiso   1.00
C109   C     0.49996   0.04250   0.25005   0.00000  Uiso   1.00
C110   C     0.50000   0.29085   0.25006   0.00000  Uiso   1.00
C111   C     0.64761   0.13200   0.23697   0.00000  Uiso   1.00
C112   C     0.35224   0.20121   0.26344   0.00000  Uiso   1.00
C113   C     0.36214   0.13200   0.23703   0.00000  Uiso   1.00
C114   C     0.63768   0.20119   0.26346   0.00000  Uiso   1.00
H115   H     0.38412   0.10429   0.22637   0.00000  Uiso   1.00
H116   H     0.61560   0.22882   0.27437   0.00000  Uiso   1.00
N117   N     0.38093   0.16668   0.25001   0.00000  Uiso   1.00
N118   N     0.61907   0.16666   0.24999   0.00000  Uiso   1.00
H119   H     0.36299   0.15356   0.05516   0.00000  Uiso   1.00
H120   H     0.61134   0.08725   0.46111   0.00000  Uiso   1.00
H121   H     0.48117   0.17643   0.10588   0.00000  Uiso   1.00
H122   H     0.52058   0.14461   0.38992   0.00000  Uiso   1.00
N123   N     0.41390   0.13329   0.10685   0.00000  Uiso   1.00
O124   O     0.42971   0.10283   0.12542   0.00000  Uiso   1.00
O125   O     0.37615   0.15431   0.13295   0.00000  Uiso   1.00
N126   N     0.55232   0.08321   0.41387   0.00000  Uiso   1.00
O127   O     0.51806   0.06182   0.40707   0.00000  Uiso   1.00
O128   O     0.59652   0.08004   0.38373   0.00000  Uiso   1.00
H129   H     0.56346   0.03765   0.26971   0.00000  Uiso   1.00
H130   H     0.43643   0.29571   0.23049   0.00000  Uiso   1.00
H131   H     0.63366   0.10431   0.22620   0.00000  Uiso   1.00
H132   H     0.36616   0.22887   0.27431   0.00000  Uiso   1.00
O133   O     0.79512   0.22775   0.25001   0.00000  Uiso   1.00
O134   O     0.87154   0.10558   0.25000   0.00000  Uiso   1.00
O135   O     0.87157   0.22774   0.25000   0.00000  Uiso   1.00
O136   O     0.79510   0.10559   0.25000   0.00000  Uiso   1.00
C137   C     0.83335   0.24670   0.25002   0.00000  Uiso   1.00
C138   C     0.83331   0.08664   0.25000   0.00000  Uiso   1.00
O139   O     0.77328   0.16667   0.31613   0.00000  Uiso   1.00
O140   O     0.89339   0.16666   0.18388   0.00000  Uiso   1.00
O141   O     0.84972   0.16666   0.31612   0.00000  Uiso   1.00
O142   O     0.81695   0.16667   0.18388   0.00000  Uiso   1.00
C143   C     0.80317   0.16615   0.33818   0.00000  Uiso   1.00
C144   C     0.86343   0.16566   0.16175   0.00000  Uiso   1.00
Zn145  Zn    0.78229   0.16667   0.25000   0.00000  Uiso   1.00
Zn146  Zn    0.88438   0.16666   0.25000   0.00000  Uiso   1.00
C147   C     0.78423   0.16097   0.38900   0.00000  Uiso   1.00
C148   C     0.88058   0.15558   0.11174   0.00000  Uiso   1.00
C149   C     0.71832   0.16274   0.46408   0.00000  Uiso   1.00
C150   C     0.93553   0.11868   0.04436   0.00000  Uiso   1.00
C151   C     0.73514   0.16772   0.41567   0.00000  Uiso   1.00
C152   C     0.92517   0.13576   0.08897   0.00000  Uiso   1.00
C153   C     0.81571   0.14732   0.41069   0.00000  Uiso   1.00
C154   C     0.84701   0.15817   0.08960   0.00000  Uiso   1.00
C155   C     0.79879   0.13906   0.45878   0.00000  Uiso   1.00
C156   C     0.85394   0.13631   0.04827   0.00000  Uiso   1.00
C157   C     0.75014   0.14960   0.48591   0.00000  Uiso   1.00
C158   C     0.90024   0.11926   0.02359   0.00000  Uiso   1.00
C159   C     0.83051   0.12527   0.48115   0.00000  Uiso   1.00
C160   C     0.81676   0.13348   0.02961   0.00000  Uiso   1.00
C161   C     0.76662   0.13958   0.05696   0.00000  Uiso   1.00
C162   C     0.87598   0.10527   0.45723   0.00000  Uiso   1.00
C163   C     0.73409   0.14768   0.03451   0.00000  Uiso   1.00
C164   C     0.91016   0.10247   0.47905   0.00000  Uiso   1.00
H165   H     0.95108   0.13231   0.10621   0.00000  Uiso   1.00
H166   H     0.71018   0.17800   0.39932   0.00000  Uiso   1.00
H167   H     0.68082   0.17014   0.48450   0.00000  Uiso   1.00
H168   H     0.97043   0.10400   0.02675   0.00000  Uiso   1.00
C169   C     0.86916   0.31207   0.26090   0.00000  Uiso   1.00
C170   C     0.79745   0.02129   0.23922   0.00000  Uiso   1.00
H171   H     0.89684   0.29585   0.26968   0.00000  Uiso   1.00
H172   H     0.76978   0.03751   0.23042   0.00000  Uiso   1.00
C173   C     0.86914   0.02137   0.26091   0.00000  Uiso   1.00
C174   C     0.79745   0.31199   0.23925   0.00000  Uiso   1.00
C175   C     0.83329   0.04250   0.25005   0.00000  Uiso   1.00
C176   C     0.83333   0.29085   0.25006   0.00000  Uiso   1.00
C177   C     0.98094   0.13200   0.23697   0.00000  Uiso   1.00
C178   C     0.68557   0.20121   0.26344   0.00000  Uiso   1.00
C179   C     0.69547   0.13200   0.23703   0.00000  Uiso   1.00
C180   C     0.97101   0.20119   0.26346   0.00000  Uiso   1.00
H181   H     0.71745   0.10429   0.22637   0.00000  Uiso   1.00
H182   H     0.94893   0.22882   0.27437   0.00000  Uiso   1.00
N183   N     0.71426   0.16668   0.25001   0.00000  Uiso   1.00
N184   N     0.95241   0.16666   0.24999   0.00000  Uiso   1.00
H185   H     0.69632   0.15356   0.05516   0.00000  Uiso   1.00
H186   H     0.94467   0.08725   0.46111   0.00000  Uiso   1.00
H187   H     0.81450   0.17643   0.10588   0.00000  Uiso   1.00
H188   H     0.85391   0.14461   0.38992   0.00000  Uiso   1.00
N189   N     0.74723   0.13329   0.10685   0.00000  Uiso   1.00
O190   O     0.76304   0.10283   0.12542   0.00000  Uiso   1.00
O191   O     0.70948   0.15431   0.13295   0.00000  Uiso   1.00
N192   N     0.88565   0.08321   0.41387   0.00000  Uiso   1.00
O193   O     0.85139   0.06182   0.40707   0.00000  Uiso   1.00
O194   O     0.92986   0.08004   0.38373   0.00000  Uiso   1.00
H195   H     0.89680   0.03765   0.26971   0.00000  Uiso   1.00
H196   H     0.76977   0.29571   0.23049   0.00000  Uiso   1.00
H197   H     0.96699   0.10431   0.22620   0.00000  Uiso   1.00
H198   H     0.69949   0.22887   0.27431   0.00000  Uiso   1.00
O199   O     0.12846   0.56108   0.25001   0.00000  Uiso   1.00
O200   O     0.20488   0.43892   0.25000   0.00000  Uiso   1.00
O201   O     0.20490   0.56107   0.25000   0.00000  Uiso   1.00
O202   O     0.12843   0.43893   0.25000   0.00000  Uiso   1.00
C203   C     0.16668   0.58003   0.25002   0.00000  Uiso   1.00
C204   C     0.16664   0.41998   0.25000   0.00000  Uiso   1.00
O205   O     0.10661   0.50001   0.31613   0.00000  Uiso   1.00
O206   O     0.22672   0.49999   0.18388   0.00000  Uiso   1.00
O207   O     0.18305   0.50000   0.31612   0.00000  Uiso   1.00
O208   O     0.15028   0.50000   0.18388   0.00000  Uiso   1.00
C209   C     0.13650   0.49948   0.33818   0.00000  Uiso   1.00
C210   C     0.19676   0.49899   0.16175   0.00000  Uiso   1.00
Zn211  Zn    0.11562   0.50001   0.25000   0.00000  Uiso   1.00
Zn212  Zn    0.21771   0.49999   0.25000   0.00000  Uiso   1.00
C213   C     0.11757   0.49430   0.38900   0.00000  Uiso   1.00
C214   C     0.21392   0.48891   0.11174   0.00000  Uiso   1.00
C215   C     0.05166   0.49608   0.46408   0.00000  Uiso   1.00
C216   C     0.26887   0.45201   0.04436   0.00000  Uiso   1.00
C217   C     0.06847   0.50106   0.41567   0.00000  Uiso   1.00
C218   C     0.25850   0.46909   0.08897   0.00000  Uiso   1.00
C219   C     0.14904   0.48066   0.41069   0.00000  Uiso   1.00
C220   C     0.18034   0.49150   0.08960   0.00000  Uiso   1.00
C221   C     0.13212   0.47239   0.45878   0.00000  Uiso   1.00
C222   C     0.18727   0.46964   0.04827   0.00000  Uiso   1.00
C223   C     0.08347   0.48294   0.48591   0.00000  Uiso   1.00
C224   C     0.23357   0.45260   0.02359   0.00000  Uiso   1.00
C225   C     0.16384   0.45860   0.48115   0.00000  Uiso   1.00
C226   C     0.15009   0.46682   0.02961   0.00000  Uiso   1.00
C227   C     0.09995   0.47292   0.05696   0.00000  Uiso   1.00
C228   C     0.20932   0.43861   0.45723   0.00000  Uiso   1.00
C229   C     0.06743   0.48101   0.03451   0.00000  Uiso   1.00
C230   C     0.24350   0.43581   0.47905   0.00000  Uiso   1.00
H231   H     0.28441   0.46564   0.10621   0.00000  Uiso   1.00
H232   H     0.04351   0.51134   0.39932   0.00000  Uiso   1.00
H233   H     0.01416   0.50348   0.48450   0.00000  Uiso   1.00
H234   H     0.30376   0.43734   0.02675   0.00000  Uiso   1.00
C235   C     0.20249   0.64540   0.26090   0.00000  Uiso   1.00
C236   C     0.13078   0.35462   0.23922   0.00000  Uiso   1.00
H237   H     0.23018   0.62918   0.26968   0.00000  Uiso   1.00
H238   H     0.10312   0.37084   0.23042   0.00000  Uiso   1.00
C239   C     0.20247   0.35470   0.26091   0.00000  Uiso   1.00
C240   C     0.13079   0.64532   0.23925   0.00000  Uiso   1.00
C241   C     0.16663   0.37583   0.25005   0.00000  Uiso   1.00
C242   C     0.16666   0.62419   0.25006   0.00000  Uiso   1.00
C243   C     0.31427   0.46533   0.23697   0.00000  Uiso   1.00
C244   C     0.01890   0.53454   0.26344   0.00000  Uiso   1.00
C245   C     0.02880   0.46533   0.23703   0.00000  Uiso   1.00
C246   C     0.30435   0.53452   0.26346   0.00000  Uiso   1.00
H247   H     0.05079   0.43763   0.22637   0.00000  Uiso   1.00
H248   H     0.28226   0.56215   0.27437   0.00000  Uiso   1.00
N249   N     0.04759   0.50001   0.25001   0.00000  Uiso   1.00
N250   N     0.28574   0.49999   0.24999   0.00000  Uiso   1.00
H251   H     0.02966   0.48689   0.05516   0.00000  Uiso   1.00
H252   H     0.27801   0.42059   0.46111   0.00000  Uiso   1.00
H253   H     0.14783   0.50976   0.10588   0.00000  Uiso   1.00
H254   H     0.18724   0.47794   0.38992   0.00000  Uiso   1.00
N255   N     0.08057   0.46662   0.10685   0.00000  Uiso   1.00
O256   O     0.09637   0.43617   0.12542   0.00000  Uiso   1.00
O257   O     0.04281   0.48764   0.13295   0.00000  Uiso   1.00
N258   N     0.21898   0.41654   0.41387   0.00000  Uiso   1.00
O259   O     0.18473   0.39515   0.40707   0.00000  Uiso   1.00
O260   O     0.26319   0.41337   0.38373   0.00000  Uiso   1.00
H261   H     0.23013   0.37099   0.26971   0.00000  Uiso   1.00
H262   H     0.10310   0.62904   0.23049   0.00000  Uiso   1.00
H263   H     0.30033   0.43764   0.22620   0.00000  Uiso   1.00
H264   H     0.03282   0.56220   0.27431   0.00000  Uiso   1.00
O265   O     0.46179   0.56108   0.25001   0.00000  Uiso   1.00
O266   O     0.53821   0.43892   0.25000   0.00000  Uiso   1.00
O267   O     0.53823   0.56107   0.25000   0.00000  Uiso   1.00
O268   O     0.46177   0.43893   0.25000   0.00000  Uiso   1.00
C269   C     0.50001   0.58003   0.25002   0.00000  Uiso   1.00
C270   C     0.49998   0.41998   0.25000   0.00000  Uiso   1.00
O271   O     0.43994   0.50001   0.31613   0.00000  Uiso   1.00
O272   O     0.56006   0.49999   0.18388   0.00000  Uiso   1.00
O273   O     0.51639   0.50000   0.31612   0.00000  Uiso   1.00
O274   O     0.48361   0.50000   0.18388   0.00000  Uiso   1.00
C275   C     0.46983   0.49948   0.33818   0.00000  Uiso   1.00
C276   C     0.53010   0.49899   0.16175   0.00000  Uiso   1.00
Zn277  Zn    0.44896   0.50001   0.25000   0.00000  Uiso   1.00
Zn278  Zn    0.55104   0.49999   0.25000   0.00000  Uiso   1.00
C279   C     0.45090   0.49430   0.38900   0.00000  Uiso   1.00
C280   C     0.54725   0.48891   0.11174   0.00000  Uiso   1.00
C281   C     0.38499   0.49608   0.46408   0.00000  Uiso   1.00
C282   C     0.60220   0.45201   0.04436   0.00000  Uiso   1.00
C283   C     0.40180   0.50106   0.41567   0.00000  Uiso   1.00
C284   C     0.59184   0.46909   0.08897   0.00000  Uiso   1.00
C285   C     0.48238   0.48066   0.41069   0.00000  Uiso   1.00
C286   C     0.51368   0.49150   0.08960   0.00000  Uiso   1.00
C287   C     0.46546   0.47239   0.45878   0.00000  Uiso   1.00
C288   C     0.52060   0.46964   0.04827   0.00000  Uiso   1.00
C289   C     0.41680   0.48294   0.48591   0.00000  Uiso   1.00
C290   C     0.56691   0.45260   0.02359   0.00000  Uiso   1.00
C291   C     0.49718   0.45860   0.48115   0.00000  Uiso   1.00
C292   C     0.48342   0.46682   0.02961   0.00000  Uiso   1.00
C293   C     0.43329   0.47292   0.05696   0.00000  Uiso   1.00
C294   C     0.54265   0.43861   0.45723   0.00000  Uiso   1.00
C295   C     0.40076   0.48101   0.03451   0.00000  Uiso   1.00
C296   C     0.57683   0.43581   0.47905   0.00000  Uiso   1.00
H297   H     0.61774   0.46564   0.10621   0.00000  Uiso   1.00
H298   H     0.37684   0.51134   0.39932   0.00000  Uiso   1.00
H299   H     0.34749   0.50348   0.48450   0.00000  Uiso   1.00
H300   H     0.63710   0.43734   0.02675   0.00000  Uiso   1.00
C301   C     0.53583   0.64540   0.26090   0.00000  Uiso   1.00
C302   C     0.46412   0.35462   0.23922   0.00000  Uiso   1.00
H303   H     0.56351   0.62918   0.26968   0.00000  Uiso   1.00
H304   H     0.43645   0.37084   0.23042   0.00000  Uiso   1.00
C305   C     0.53580   0.35470   0.26091   0.00000  Uiso   1.00
C306   C     0.46412   0.64532   0.23925   0.00000  Uiso   1.00
C307   C     0.49996   0.37583   0.25005   0.00000  Uiso   1.00
C308   C     0.50000   0.62419   0.25006   0.00000  Uiso   1.00
C309   C     0.64761   0.46533   0.23697   0.00000  Uiso   1.00
C310   C     0.35224   0.53454   0.26344   0.00000  Uiso   1.00
C311   C     0.36214   0.46533   0.23703   0.00000  Uiso   1.00
C312   C     0.63768   0.53452   0.26346   0.00000  Uiso   1.00
H313   H     0.38412   0.43763   0.22637   0.00000  Uiso   1.00
H314   H     0.61560   0.56215   0.27437   0.00000  Uiso   1.00
N315   N     0.38093   0.50001   0.25001   0.00000  Uiso   1.00
N316   N     0.61907   0.49999   0.24999   0.00000  Uiso   1.00
H317   H     0.36299   0.48689   0.05516   0.00000  Uiso   1.00
H318   H     0.61134   0.42059   0.46111   0.00000  Uiso   1.00
H319   H     0.48117   0.50976   0.10588   0.00000  Uiso   1.00
H320   H     0.52058   0.47794   0.38992   0.00000  Uiso   1.00
N321   N     0.41390   0.46662   0.10685   0.00000  Uiso   1.00
O322   O     0.42971   0.43617   0.12542   0.00000  Uiso   1.00
O323   O     0.37615   0.48764   0.13295   0.00000  Uiso   1.00
N324   N     0.55232   0.41654   0.41387   0.00000  Uiso   1.00
O325   O     0.51806   0.39515   0.40707   0.00000  Uiso   1.00
O326   O     0.59652   0.41337   0.38373   0.00000  Uiso   1.00
H327   H     0.56346   0.37099   0.26971   0.00000  Uiso   1.00
H328   H     0.43643   0.62904   0.23049   0.00000  Uiso   1.00
H329   H     0.63366   0.43764   0.22620   0.00000  Uiso   1.00
H330   H     0.36616   0.56220   0.27431   0.00000  Uiso   1.00
O331   O     0.79512   0.56108   0.25001   0.00000  Uiso   1.00
O332   O     0.87154   0.43892   0.25000   0.00000  Uiso   1.00
O333   O     0.87157   0.56107   0.25000   0.00000  Uiso   1.00
O334   O     0.79510   0.43893   0.25000   0.00000  Uiso   1.00
C335   C     0.83335   0.58003   0.25002   0.00000  Uiso   1.00
C336   C     0.83331   0.41998   0.25000   0.00000  Uiso   1.00
O337   O     0.77328   0.50001   0.31613   0.00000  Uiso   1.00
O338   O     0.89339   0.49999   0.18388   0.00000  Uiso   1.00
O339   O     0.84972   0.50000   0.31612   0.00000  Uiso   1.00
O340   O     0.81695   0.50000   0.18388   0.00000  Uiso   1.00
C341   C     0.80317   0.49948   0.33818   0.00000  Uiso   1.00
C342   C     0.86343   0.49899   0.16175   0.00000  Uiso   1.00
Zn343  Zn    0.78229   0.50001   0.25000   0.00000  Uiso   1.00
Zn344  Zn    0.88438   0.49999   0.25000   0.00000  Uiso   1.00
C345   C     0.78423   0.49430   0.38900   0.00000  Uiso   1.00
C346   C     0.88058   0.48891   0.11174   0.00000  Uiso   1.00
C347   C     0.71832   0.49608   0.46408   0.00000  Uiso   1.00
C348   C     0.93553   0.45201   0.04436   0.00000  Uiso   1.00
C349   C     0.73514   0.50106   0.41567   0.00000  Uiso   1.00
C350   C     0.92517   0.46909   0.08897   0.00000  Uiso   1.00
C351   C     0.81571   0.48066   0.41069   0.00000  Uiso   1.00
C352   C     0.84701   0.49150   0.08960   0.00000  Uiso   1.00
C353   C     0.79879   0.47239   0.45878   0.00000  Uiso   1.00
C354   C     0.85394   0.46964   0.04827   0.00000  Uiso   1.00
C355   C     0.75014   0.48294   0.48591   0.00000  Uiso   1.00
C356   C     0.90024   0.45260   0.02359   0.00000  Uiso   1.00
C357   C     0.83051   0.45860   0.48115   0.00000  Uiso   1.00
C358   C     0.81676   0.46682   0.02961   0.00000  Uiso   1.00
C359   C     0.76662   0.47292   0.05696   0.00000  Uiso   1.00
C360   C     0.87598   0.43861   0.45723   0.00000  Uiso   1.00
C361   C     0.73409   0.48101   0.03451   0.00000  Uiso   1.00
C362   C     0.91016   0.43581   0.47905   0.00000  Uiso   1.00
H363   H     0.95108   0.46564   0.10621   0.00000  Uiso   1.00
H364   H     0.71018   0.51134   0.39932   0.00000  Uiso   1.00
H365   H     0.68082   0.50348   0.48450   0.00000  Uiso   1.00
H366   H     0.97043   0.43734   0.02675   0.00000  Uiso   1.00
C367   C     0.86916   0.64540   0.26090   0.00000  Uiso   1.00
C368   C     0.79745   0.35462   0.23922   0.00000  Uiso   1.00
H369   H     0.89684   0.62918   0.26968   0.00000  Uiso   1.00
H370   H     0.76978   0.37084   0.23042   0.00000  Uiso   1.00
C371   C     0.86914   0.35470   0.26091   0.00000  Uiso   1.00
C372   C     0.79745   0.64532   0.23925   0.00000  Uiso   1.00
C373   C     0.83329   0.37583   0.25005   0.00000  Uiso   1.00
C374   C     0.83333   0.62419   0.25006   0.00000  Uiso   1.00
C375   C     0.98094   0.46533   0.23697   0.00000  Uiso   1.00
C376   C     0.68557   0.53454   0.26344   0.00000  Uiso   1.00
C377   C     0.69547   0.46533   0.23703   0.00000  Uiso   1.00
C378   C     0.97101   0.53452   0.26346   0.00000  Uiso   1.00
H379   H     0.71745   0.43763   0.22637   0.00000  Uiso   1.00
H380   H     0.94893   0.56215   0.27437   0.00000  Uiso   1.00
N381   N     0.71426   0.50001   0.25001   0.00000  Uiso   1.00
N382   N     0.95241   0.49999   0.24999   0.00000  Uiso   1.00
H383   H     0.69632   0.48689   0.05516   0.00000  Uiso   1.00
H384   H     0.94467   0.42059   0.46111   0.00000  Uiso   1.00
H385   H     0.81450   0.50976   0.10588   0.00000  Uiso   1.00
H386   H     0.85391   0.47794   0.38992   0.00000  Uiso   1.00
N387   N     0.74723   0.46662   0.10685   0.00000  Uiso   1.00
O388   O     0.76304   0.43617   0.12542   0.00000  Uiso   1.00
O389   O     0.70948   0.48764   0.13295   0.00000  Uiso   1.00
N390   N     0.88565   0.41654   0.41387   0.00000  Uiso   1.00
O391   O     0.85139   0.39515   0.40707   0.00000  Uiso   1.00
O392   O     0.92986   0.41337   0.38373   0.00000  Uiso   1.00
H393   H     0.89680   0.37099   0.26971   0.00000  Uiso   1.00
H394   H     0.76977   0.62904   0.23049   0.00000  Uiso   1.00
H395   H     0.96699   0.43764   0.22620   0.00000  Uiso   1.00
H396   H     0.69949   0.56220   0.27431   0.00000  Uiso   1.00
O397   O     0.12846   0.89442   0.25001   0.00000  Uiso   1.00
O398   O     0.20488   0.77225   0.25000   0.00000  Uiso   1.00
O399   O     0.20490   0.89441   0.25000   0.00000  Uiso   1.00
O400   O     0.12843   0.77226   0.25000   0.00000  Uiso   1.00
C401   C     0.16668   0.91336   0.25002   0.00000  Uiso   1.00
C402   C     0.16664   0.75331   0.25000   0.00000  Uiso   1.00
O403   O     0.10661   0.83334   0.31613   0.00000  Uiso   1.00
O404   O     0.22672   0.83333   0.18388   0.00000  Uiso   1.00
O405   O     0.18305   0.83333   0.31612   0.00000  Uiso   1.00
O406   O     0.15028   0.83334   0.18388   0.00000  Uiso   1.00
C407   C     0.13650   0.83282   0.33818   0.00000  Uiso   1.00
C408   C     0.19676   0.83232   0.16175   0.00000  Uiso   1.00
Zn409  Zn    0.11562   0.83334   0.25000   0.00000  Uiso   1.00
Zn410  Zn    0.21771   0.83333   0.25000   0.00000  Uiso   1.00
C411   C     0.11757   0.82764   0.38900   0.00000  Uiso   1.00
C412   C     0.21392   0.82224   0.11174   0.00000  Uiso   1.00
C413   C     0.05166   0.82941   0.46408   0.00000  Uiso   1.00
C414   C     0.26887   0.78535   0.04436   0.00000  Uiso   1.00
C415   C     0.06847   0.83439   0.41567   0.00000  Uiso   1.00
C416   C     0.25850   0.80242   0.08897   0.00000  Uiso   1.00
C417   C     0.14904   0.81399   0.41069   0.00000  Uiso   1.00
C418   C     0.18034   0.82483   0.08960   0.00000  Uiso   1.00
C419   C     0.13212   0.80572   0.45878   0.00000  Uiso   1.00
C420   C     0.18727   0.80297   0.04827   0.00000  Uiso   1.00
C421   C     0.08347   0.81627   0.48591   0.00000  Uiso   1.00
C422   C     0.23357   0.78593   0.02359   0.00000  Uiso   1.00
C423   C     0.16384   0.79194   0.48115   0.00000  Uiso   1.00
C424   C     0.15009   0.80015   0.02961   0.00000  Uiso   1.00
C425   C     0.09995   0.80625   0.05696   0.00000  Uiso   1.00
C426   C     0.20932   0.77194   0.45723   0.00000  Uiso   1.00
C427   C     0.06743   0.81435   0.03451   0.00000  Uiso   1.00
C428   C     0.24350   0.76914   0.47905   0.00000  Uiso   1.00
H429   H     0.28441   0.79897   0.10621   0.00000  Uiso   1.00
H430   H     0.04351   0.84467   0.39932   0.00000  Uiso   1.00
H431   H     0.01416   0.83681   0.48450   0.00000  Uiso   1.00
H432   H     0.30376   0.77067   0.02675   0.00000  Uiso   1.00
C433   C     0.20249   0.97873   0.26090   0.00000  Uiso   1.00
C434   C     0.13078   0.68795   0.23922   0.00000  Uiso   1.00
H435   H     0.23018   0.96251   0.26968   0.00000  Uiso   1.00
H436   H     0.10312   0.70417   0.23042   0.00000  Uiso   1.00
C437   C     0.20247   0.68803   0.26091   0.00000  Uiso   1.00
C438   C     0.13079   0.97866   0.23925   0.00000  Uiso   1.00
C439   C     0.16663   0.70916   0.25005   0.00000  Uiso   1.00
C440   C     0.16666   0.95752   0.25006   0.00000  Uiso   1.00
C441   C     0.31427   0.79867   0.23697   0.00000  Uiso   1.00
C442   C     0.01890   0.86787   0.26344   0.00000  Uiso   1.00
C443   C     0.02880   0.79867   0.23703   0.00000  Uiso   1.00
C444   C     0.30435   0.86785   0.26346   0.00000  Uiso   1.00
H445   H     0.05079   0.77096   0.22637   0.00000  Uiso   1.00
H446   H     0.28226   0.89549   0.27437   0.00000  Uiso   1.00
N447   N     0.04759   0.83334   0.25001   0.00000  Uiso   1.00
N448   N     0.28574   0.83332   0.24999   0.00000  Uiso   1.00
H449   H     0.02966   0.82023   0.05516   0.00000  Uiso   1.00
H450   H     0.27801   0.75392   0.46111   0.00000  Uiso   1.00
H451   H     0.14783   0.84309   0.10588   0.00000  Uiso   1.00
H452   H     0.18724   0.81128   0.38992   0.00000  Uiso   1.00
N453   N     0.08057   0.79996   0.10685   0.00000  Uiso   1.00
O454   O     0.09637   0.76950   0.12542   0.00000  Uiso   1.00
O455   O     0.04281   0.82098   0.13295   0.00000  Uiso   1.00
N456   N     0.21898   0.74988   0.41387   0.00000  Uiso   1.00
O457   O     0.18473   0.72848   0.40707   0.00000  Uiso   1.00
O458   O     0.26319   0.74671   0.38373   0.00000  Uiso   1.00
H459   H     0.23013   0.70432   0.26971   0.00000  Uiso   1.00
H460   H     0.10310   0.96238   0.23049   0.00000  Uiso   1.00
H461   H     0.30033   0.77097   0.22620   0.00000  Uiso   1.00
H462   H     0.03282   0.89553   0.27431   0.00000  Uiso   1.00
O463   O     0.46179   0.89442   0.25001   0.00000  Uiso   1.00
O464   O     0.53821   0.77225   0.25000   0.00000  Uiso   1.00
O465   O     0.53823   0.89441   0.25000   0.00000  Uiso   1.00
O466   O     0.46177   0.77226   0.25000   0.00000  Uiso   1.00
C467   C     0.50001   0.91336   0.25002   0.00000  Uiso   1.00
C468   C     0.49998   0.75331   0.25000   0.00000  Uiso   1.00
O469   O     0.43994   0.83334   0.31613   0.00000  Uiso   1.00
O470   O     0.56006   0.83333   0.18388   0.00000  Uiso   1.00
O471   O     0.51639   0.83333   0.31612   0.00000  Uiso   1.00
O472   O     0.48361   0.83334   0.18388   0.00000  Uiso   1.00
C473   C     0.46983   0.83282   0.33818   0.00000  Uiso   1.00
C474   C     0.53010   0.83232   0.16175   0.00000  Uiso   1.00
Zn475  Zn    0.44896   0.83334   0.25000   0.00000  Uiso   1.00
Zn476  Zn    0.55104   0.83333   0.25000   0.00000  Uiso   1.00
C477   C     0.45090   0.82764   0.38900   0.00000  Uiso   1.00
C478   C     0.54725   0.82224   0.11174   0.00000  Uiso   1.00
C479   C     0.38499   0.82941   0.46408   0.00000  Uiso   1.00
C480   C     0.60220   0.78535   0.04436   0.00000  Uiso   1.00
C481   C     0.40180   0.83439   0.41567   0.00000  Uiso   1.00
C482   C     0.59184   0.80242   0.08897   0.00000  Uiso   1.00
C483   C     0.48238   0.81399   0.41069   0.00000  Uiso   1.00
C484   C     0.51368   0.82483   0.08960   0.00000  Uiso   1.00
C485   C     0.46546   0.80572   0.45878   0.00000  Uiso   1.00
C486   C     0.52060   0.80297   0.04827   0.00000  Uiso   1.00
C487   C     0.41680   0.81627   0.48591   0.00000  Uiso   1.00
C488   C     0.56691   0.78593   0.02359   0.00000  Uiso   1.00
C489   C     0.49718   0.79194   0.48115   0.00000  Uiso   1.00
C490   C     0.48342   0.80015   0.02961   0.00000  Uiso   1.00
C491   C     0.43329   0.80625   0.05696   0.00000  Uiso   1.00
C492   C     0.54265   0.77194   0.45723   0.00000  Uiso   1.00
C493   C     0.40076   0.81435   0.03451   0.00000  Uiso   1.00
C494   C     0.57683   0.76914   0.47905   0.00000  Uiso   1.00
H495   H     0.61774   0.79897   0.10621   0.00000  Uiso   1.00
H496   H     0.37684   0.84467   0.39932   0.00000  Uiso   1.00
H497   H     0.34749   0.83681   0.48450   0.00000  Uiso   1.00
H498   H     0.63710   0.77067   0.02675   0.00000  Uiso   1.00
C499   C     0.53583   0.97873   0.26090   0.00000  Uiso   1.00
C500   C     0.46412   0.68795   0.23922   0.00000  Uiso   1.00
H501   H     0.56351   0.96251   0.26968   0.00000  Uiso   1.00
H502   H     0.43645   0.70417   0.23042   0.00000  Uiso   1.00
C503   C     0.53580   0.68803   0.26091   0.00000  Uiso   1.00
C504   C     0.46412   0.97866   0.23925   0.00000  Uiso   1.00
C505   C     0.49996   0.70916   0.25005   0.00000  Uiso   1.00
C506   C     0.50000   0.95752   0.25006   0.00000  Uiso   1.00
C507   C     0.64761   0.79867   0.23697   0.00000  Uiso   1.00
C508   C     0.35224   0.86787   0.26344   0.00000  Uiso   1.00
C509   C     0.36214   0.79867   0.23703   0.00000  Uiso   1.00
C510   C     0.63768   0.86785   0.26346   0.00000  Uiso   1.00
H511   H     0.38412   0.77096   0.22637   0.00000  Uiso   1.00
H512   H     0.61560   0.89549   0.27437   0.00000  Uiso   1.00
N513   N     0.38093   0.83334   0.25001   0.00000  Uiso   1.00
N514   N     0.61907   0.83332   0.24999   0.00000  Uiso   1.00
H515   H     0.36299   0.82023   0.05516   0.00000  Uiso   1.00
H516   H     0.61134   0.75392   0.46111   0.00000  Uiso   1.00
H517   H     0.48117   0.84309   0.10588   0.00000  Uiso   1.00
H518   H     0.52058   0.81128   0.38992   0.00000  Uiso   1.00
N519   N     0.41390   0.79996   0.10685   0.00000  Uiso   1.00
O520   O     0.42971   0.76950   0.12542   0.00000  Uiso   1.00
O521   O     0.37615   0.82098   0.13295   0.00000  Uiso   1.00
N522   N     0.55232   0.74988   0.41387   0.00000  Uiso   1.00
O523   O     0.51806   0.72848   0.40707   0.00000  Uiso   1.00
O524   O     0.59652   0.74671   0.38373   0.00000  Uiso   1.00
H525   H     0.56346   0.70432   0.26971   0.00000  Uiso   1.00
H526   H     0.43643   0.96238   0.23049   0.00000  Uiso   1.00
H527   H     0.63366   0.77097   0.22620   0.00000  Uiso   1.00
H528   H     0.36616   0.89553   0.27431   0.00000  Uiso   1.00
O529   O     0.79512   0.89442   0.25001   0.00000  Uiso   1.00
O530   O     0.87154   0.77225   0.25000   0.00000  Uiso   1.00
O531   O     0.87157   0.89441   0.25000   0.00000  Uiso   1.00
O532   O     0.79510   0.77226   0.25000   0.00000  Uiso   1.00
C533   C     0.83335   0.91336   0.25002   0.00000  Uiso   1.00
C534   C     0.83331   0.75331   0.25000   0.00000  Uiso   1.00
O535   O     0.77328   0.83334   0.31613   0.00000  Uiso   1.00
O536   O     0.89339   0.83333   0.18388   0.00000  Uiso   1.00
O537   O     0.84972   0.83333   0.31612   0.00000  Uiso   1.00
O538   O     0.81695   0.83334   0.18388   0.00000  Uiso   1.00
C539   C     0.80317   0.83282   0.33818   0.00000  Uiso   1.00
C540   C     0.86343   0.83232   0.16175   0.00000  Uiso   1.00
Zn541  Zn    0.78229   0.83334   0.25000   0.00000  Uiso   1.00
Zn542  Zn    0.88438   0.83333   0.25000   0.00000  Uiso   1.00
C543   C     0.78423   0.82764   0.38900   0.00000  Uiso   1.00
C544   C     0.88058   0.82224   0.11174   0.00000  Uiso   1.00
C545   C     0.71832   0.82941   0.46408   0.00000  Uiso   1.00
C546   C     0.93553   0.78535   0.04436   0.00000  Uiso   1.00
C547   C     0.73514   0.83439   0.41567   0.00000  Uiso   1.00
C548   C     0.92517   0.80242   0.08897   0.00000  Uiso   1.00
C549   C     0.81571   0.81399   0.41069   0.00000  Uiso   1.00
C550   C     0.84701   0.82483   0.08960   0.00000  Uiso   1.00
C551   C     0.79879   0.80572   0.45878   0.00000  Uiso   1.00
C552   C     0.85394   0.80297   0.04827   0.00000  Uiso   1.00
C553   C     0.75014   0.81627   0.48591   0.00000  Uiso   1.00
C554   C     0.90024   0.78593   0.02359   0.00000  Uiso   1.00
C555   C     0.83051   0.79194   0.48115   0.00000  Uiso   1.00
C556   C     0.81676   0.80015   0.02961   0.00000  Uiso   1.00
C557   C     0.76662   0.80625   0.05696   0.00000  Uiso   1.00
C558   C     0.87598   0.77194   0.45723   0.00000  Uiso   1.00
C559   C     0.73409   0.81435   0.03451   0.00000  Uiso   1.00
C560   C     0.91016   0.76914   0.47905   0.00000  Uiso   1.00
H561   H     0.95108   0.79897   0.10621   0.00000  Uiso   1.00
H562   H     0.71018   0.84467   0.39932   0.00000  Uiso   1.00
H563   H     0.68082   0.83681   0.48450   0.00000  Uiso   1.00
H564   H     0.97043   0.77067   0.02675   0.00000  Uiso   1.00
C565   C     0.86916   0.97873   0.26090   0.00000  Uiso   1.00
C566   C     0.79745   0.68795   0.23922   0.00000  Uiso   1.00
H567   H     0.89684   0.96251   0.26968   0.00000  Uiso   1.00
H568   H     0.76978   0.70417   0.23042   0.00000  Uiso   1.00
C569   C     0.86914   0.68803   0.26091   0.00000  Uiso   1.00
C570   C     0.79745   0.97866   0.23925   0.00000  Uiso   1.00
C571   C     0.83329   0.70916   0.25005   0.00000  Uiso   1.00
C572   C     0.83333   0.95752   0.25006   0.00000  Uiso   1.00
C573   C     0.98094   0.79867   0.23697   0.00000  Uiso   1.00
C574   C     0.68557   0.86787   0.26344   0.00000  Uiso   1.00
C575   C     0.69547   0.79867   0.23703   0.00000  Uiso   1.00
C576   C     0.97101   0.86785   0.26346   0.00000  Uiso   1.00
H577   H     0.71745   0.77096   0.22637   0.00000  Uiso   1.00
H578   H     0.94893   0.89549   0.27437   0.00000  Uiso   1.00
N579   N     0.71426   0.83334   0.25001   0.00000  Uiso   1.00
N580   N     0.95241   0.83332   0.24999   0.00000  Uiso   1.00
H581   H     0.69632   0.82023   0.05516   0.00000  Uiso   1.00
H582   H     0.94467   0.75392   0.46111   0.00000  Uiso   1.00
H583   H     0.81450   0.84309   0.10588   0.00000  Uiso   1.00
H584   H     0.85391   0.81128   0.38992   0.00000  Uiso   1.00
N585   N     0.74723   0.79996   0.10685   0.00000  Uiso   1.00
O586   O     0.76304   0.76950   0.12542   0.00000  Uiso   1.00
O587   O     0.70948   0.82098   0.13295   0.00000  Uiso   1.00
N588   N     0.88565   0.74988   0.41387   0.00000  Uiso   1.00
O589   O     0.85139   0.72848   0.40707   0.00000  Uiso   1.00
O590   O     0.92986   0.74671   0.38373   0.00000  Uiso   1.00
H591   H     0.89680   0.70432   0.26971   0.00000  Uiso   1.00
H592   H     0.76977   0.96238   0.23049   0.00000  Uiso   1.00
H593   H     0.96699   0.77097   0.22620   0.00000  Uiso   1.00
H594   H     0.69949   0.89553   0.27431   0.00000  Uiso   1.00
O595   O     0.12846   0.22775   0.75001   0.00000  Uiso   1.00
O596   O     0.20488   0.10558   0.75000   0.00000  Uiso   1.00
O597   O     0.20490   0.22774   0.75000   0.00000  Uiso   1.00
O598   O     0.12843   0.10559   0.75000   0.00000  Uiso   1.00
C599   C     0.16668   0.24670   0.75002   0.00000  Uiso   1.00
C600   C     0.16664   0.08664   0.75000   0.00000  Uiso   1.00
O601   O     0.10661   0.16667   0.81613   0.00000  Uiso   1.00
O602   O     0.22672   0.16666   0.68388   0.00000  Uiso   1.00
O603   O     0.18305   0.16666   0.81612   0.00000  Uiso   1.00
O604   O     0.15028   0.16667   0.68388   0.00000  Uiso   1.00
C605   C     0.13650   0.16615   0.83818   0.00000  Uiso   1.00
C606   C     0.19676   0.16566   0.66175   0.00000  Uiso   1.00
Zn607  Zn    0.11562   0.16667   0.75000   0.00000  Uiso   1.00
Zn608  Zn    0.21771   0.16666   0.75000   0.00000  Uiso   1.00
C609   C     0.11757   0.16097   0.88900   0.00000  Uiso   1.00
C610   C     0.21392   0.15558   0.61174   0.00000  Uiso   1.00
C611   C     0.05166   0.16274   0.96408   0.00000  Uiso   1.00
C612   C     0.26887   0.11868   0.54436   0.00000  Uiso   1.00
C613   C     0.06847   0.16772   0.91567   0.00000  Uiso   1.00
C614   C     0.25850   0.13576   0.58897   0.00000  Uiso   1.00
C615   C     0.14904   0.14732   0.91069   0.00000  Uiso   1.00
C616   C     0.18034   0.15817   0.58960   0.00000  Uiso   1.00
C617   C     0.13212   0.13906   0.95878   0.00000  Uiso   1.00
C618   C     0.18727   0.13631   0.54827   0.00000  Uiso   1.00
C619   C     0.08347   0.14960   0.98591   0.00000  Uiso   1.00
C620   C     0.23357   0.11926   0.52359   0.00000  Uiso   1.00
C621   C     0.16384   0.12527   0.98115   0.00000  Uiso   1.00
C622   C     0.15009   0.13348   0.52961   0.00000  Uiso   1.00
C623   C     0.09995   0.13958   0.55696   0.00000  Uiso   1.00
C624   C     0.20932   0.10527   0.95723   0.00000  Uiso   1.00
C625   C     0.06743   0.14768   0.53451   0.00000  Uiso   1.00
C626   C     0.24350   0.10247   0.97905   0.00000  Uiso   1.00
H627   H     0.28441   0.13231   0.60621   0.00000  Uiso   1.00
H628   H     0.04351   0.17800   0.89932   0.00000  Uiso   1.00
H629   H     0.01416   0.17014   0.98450   0.00000  Uiso   1.00
H630   H     0.30376   0.10400   0.52675   0.00000  Uiso   1.00
C631   C     0.20249   0.31207   0.76090   0.00000  Uiso   1.00
C632   C     0.13078   0.02129   0.73922   0.00000  Uiso   1.00
H633   H     0.23018   0.29585   0.76968   0.00000  Uiso   1.00
H634   H     0.10312   0.03751   0.73042   0.00000  Uiso   1.00
C635   C     0.20247   0.02137   0.76091   0.00000  Uiso   1.00
C636   C     0.13079   0.31199   0.73925   0.00000  Uiso   1.00
C637   C     0.16663   0.04250   0.75005   0.00000  Uiso   1.00
C638   C     0.16666   0.29085   0.75006   0.00000  Uiso   1.00
C639   C     0.31427   0.13200   0.73697   0.00000  Uiso   1.00
C640   C     0.01890   0.20121   0.76344   0.00000  Uiso   1.00
C641   C     0.02880   0.13200   0.73703   0.00000  Uiso   1.00
C642   C     0.30435   0.20119   0.76346   0.00000  Uiso   1.00
H643   H     0.05079   0.10429   0.72637   0.00000  Uiso   1.00
H644   H     0.28226   0.22882   0.77437   0.00000  Uiso   1.00
N645   N     0.04759   0.16668   0.75001   0.00000  Uiso   1.00
N646   N     0.28574   0.16666   0.74999   0.00000  Uiso   1.00
H647   H     0.02966   0.15356   0.55516   0.00000  Uiso   1.00
H648   H     0.27801   0.08725   0.96111   0.00000  Uiso   1.00
H649   H     0.14783   0.17643   0.60588   0.00000  Uiso   1.00
H650   H     0.18724   0.14461   0.88992   0.00000  Uiso   1.00
N651   N     0.08057   0.13329   0.60685   0.00000  Uiso   1.00
O652   O     0.09637   0.10283   0.62542   0.00000  Uiso   1.00
O653   O     0.04281   0.15431   0.63295   0.00000  Uiso   1.00
N654   N     0.21898   0.08321   0.91387   0.00000  Uiso   1.00
O655   O     0.18473   0.06182   0.90707   0.00000  Uiso   1.00
O656   O     0.26319   0.08004   0.88373   0.00000  Uiso   1.00
H657   H     0.23013   0.03765   0.76971   0.00000  Uiso   1.00
H658   H     0.10310   0.29571   0.73049   0.00000  Uiso   1.00
H659   H     0.30033   0.10431   0.72620   0.00000  Uiso   1.00
H660   H     0.03282   0.22887   0.77431   0.00000  Uiso   1.00
O661   O     0.46179   0.22775   0.75001   0.00000  Uiso   1.00
O662   O     0.53821   0.10558   0.75000   0.00000  Uiso   1.00
O663   O     0.53823   0.22774   0.75000   0.00000  Uiso   1.00
O664   O     0.46177   0.10559   0.75000   0.00000  Uiso   1.00
C665   C     0.50001   0.24670   0.75002   0.00000  Uiso   1.00
C666   C     0.49998   0.08664   0.75000   0.00000  Uiso   1.00
O667   O     0.43994   0.16667   0.81613   0.00000  Uiso   1.00
O668   O     0.56006   0.16666   0.68388   0.00000  Uiso   1.00
O669   O     0.51639   0.16666   0.81612   0.00000  Uiso   1.00
O670   O     0.48361   0.16667   0.68388   0.00000  Uiso   1.00
C671   C     0.46983   0.16615   0.83818   0.00000  Uiso   1.00
C672   C     0.53010   0.16566   0.66175   0.00000  Uiso   1.00
Zn673  Zn    0.44896   0.16667   0.75000   0.00000  Uiso   1.00
Zn674  Zn    0.55104   0.16666   0.75000   0.00000  Uiso   1.00
C675   C     0.45090   0.16097   0.88900   0.00000  Uiso   1.00
C676   C     0.54725   0.15558   0.61174   0.00000  Uiso   1.00
C677   C     0.38499   0.16274   0.96408   0.00000  Uiso   1.00
C678   C     0.60220   0.11868   0.54436   0.00000  Uiso   1.00
C679   C     0.40180   0.16772   0.91567   0.00000  Uiso   1.00
C680   C     0.59184   0.13576   0.58897   0.00000  Uiso   1.00
C681   C     0.48238   0.14732   0.91069   0.00000  Uiso   1.00
C682   C     0.51368   0.15817   0.58960   0.00000  Uiso   1.00
C683   C     0.46546   0.13906   0.95878   0.00000  Uiso   1.00
C684   C     0.52060   0.13631   0.54827   0.00000  Uiso   1.00
C685   C     0.41680   0.14960   0.98591   0.00000  Uiso   1.00
C686   C     0.56691   0.11926   0.52359   0.00000  Uiso   1.00
C687   C     0.49718   0.12527   0.98115   0.00000  Uiso   1.00
C688   C     0.48342   0.13348   0.52961   0.00000  Uiso   1.00
C689   C     0.43329   0.13958   0.55696   0.00000  Uiso   1.00
C690   C     0.54265   0.10527   0.95723   0.00000  Uiso   1.00
C691   C     0.40076   0.14768   0.53451   0.00000  Uiso   1.00
C692   C     0.57683   0.10247   0.97905   0.00000  Uiso   1.00
H693   H     0.61774   0.13231   0.60621   0.00000  Uiso   1.00
H694   H     0.37684   0.17800   0.89932   0.00000  Uiso   1.00
H695   H     0.34749   0.17014   0.98450   0.00000  Uiso   1.00
H696   H     0.63710   0.10400   0.52675   0.00000  Uiso   1.00
C697   C     0.53583   0.31207   0.76090   0.00000  Uiso   1.00
C698   C     0.46412   0.02129   0.73922   0.00000  Uiso   1.00
H699   H     0.56351   0.29585   0.76968   0.00000  Uiso   1.00
H700   H     0.43645   0.03751   0.73042   0.00000  Uiso   1.00
C701   C     0.53580   0.02137   0.76091   0.00000  Uiso   1.00
C702   C     0.46412   0.31199   0.73925   0.00000  Uiso   1.00
C703   C     0.49996   0.04250   0.75005   0.00000  Uiso   1.00
C704   C     0.50000   0.29085   0.75006   0.00000  Uiso   1.00
C705   C     0.64761   0.13200   0.73697   0.00000  Uiso   1.00
C706   C     0.35224   0.20121   0.76344   0.00000  Uiso   1.00
C707   C     0.36214   0.13200   0.73703   0.00000  Uiso   1.00
C708   C     0.63768   0.20119   0.76346   0.00000  Uiso   1.00
H709   H     0.38412   0.10429   0.72637   0.00000  Uiso   1.00
H710   H     0.61560   0.22882   0.77437   0.00000  Uiso   1.00
N711   N     0.38093   0.16668   0.75001   0.00000  Uiso   1.00
N712   N     0.61907   0.16666   0.74999   0.00000  Uiso   1.00
H713   H     0.36299   0.15356   0.55516   0.00000  Uiso   1.00
H714   H     0.61134   0.08725   0.96111   0.00000  Uiso   1.00
H715   H     0.48117   0.17643   0.60588   0.00000  Uiso   1.00
H716   H     0.52058   0.14461   0.88992   0.00000  Uiso   1.00
N717   N     0.41390   0.13329   0.60685   0.00000  Uiso   1.00
O718   O     0.42971   0.10283   0.62542   0.00000  Uiso   1.00
O719   O     0.37615   0.15431   0.63295   0.00000  Uiso   1.00
N720   N     0.55232   0.08321   0.91387   0.00000  Uiso   1.00
O721   O     0.51806   0.06182   0.90707   0.00000  Uiso   1.00
O722   O     0.59652   0.08004   0.88373   0.00000  Uiso   1.00
H723   H     0.56346   0.03765   0.76971   0.00000  Uiso   1.00
H724   H     0.43643   0.29571   0.73049   0.00000  Uiso   1.00
H725   H     0.63366   0.10431   0.72620   0.00000  Uiso   1.00
H726   H     0.36616   0.22887   0.77431   0.00000  Uiso   1.00
O727   O     0.79512   0.22775   0.75001   0.00000  Uiso   1.00
O728   O     0.87154   0.10558   0.75000   0.00000  Uiso   1.00
O729   O     0.87157   0.22774   0.75000   0.00000  Uiso   1.00
O730   O     0.79510   0.10559   0.75000   0.00000  Uiso   1.00
C731   C     0.83335   0.24670   0.75002   0.00000  Uiso   1.00
C732   C     0.83331   0.08664   0.75000   0.00000  Uiso   1.00
O733   O     0.77328   0.16667   0.81613   0.00000  Uiso   1.00
O734   O     0.89339   0.16666   0.68388   0.00000  Uiso   1.00
O735   O     0.84972   0.16666   0.81612   0.00000  Uiso   1.00
O736   O     0.81695   0.16667   0.68388   0.00000  Uiso   1.00
C737   C     0.80317   0.16615   0.83818   0.00000  Uiso   1.00
C738   C     0.86343   0.16566   0.66175   0.00000  Uiso   1.00
Zn739  Zn    0.78229   0.16667   0.75000   0.00000  Uiso   1.00
Zn740  Zn    0.88438   0.16666   0.75000   0.00000  Uiso   1.00
C741   C     0.78423   0.16097   0.88900   0.00000  Uiso   1.00
C742   C     0.88058   0.15558   0.61174   0.00000  Uiso   1.00
C743   C     0.71832   0.16274   0.96408   0.00000  Uiso   1.00
C744   C     0.93553   0.11868   0.54436   0.00000  Uiso   1.00
C745   C     0.73514   0.16772   0.91567   0.00000  Uiso   1.00
C746   C     0.92517   0.13576   0.58897   0.00000  Uiso   1.00
C747   C     0.81571   0.14732   0.91069   0.00000  Uiso   1.00
C748   C     0.84701   0.15817   0.58960   0.00000  Uiso   1.00
C749   C     0.79879   0.13906   0.95878   0.00000  Uiso   1.00
C750   C     0.85394   0.13631   0.54827   0.00000  Uiso   1.00
C751   C     0.75014   0.14960   0.98591   0.00000  Uiso   1.00
C752   C     0.90024   0.11926   0.52359   0.00000  Uiso   1.00
C753   C     0.83051   0.12527   0.98115   0.00000  Uiso   1.00
C754   C     0.81676   0.13348   0.52961   0.00000  Uiso   1.00
C755   C     0.76662   0.13958   0.55696   0.00000  Uiso   1.00
C756   C     0.87598   0.10527   0.95723   0.00000  Uiso   1.00
C757   C     0.73409   0.14768   0.53451   0.00000  Uiso   1.00
C758   C     0.91016   0.10247   0.97905   0.00000  Uiso   1.00
H759   H     0.95108   0.13231   0.60621   0.00000  Uiso   1.00
H760   H     0.71018   0.17800   0.89932   0.00000  Uiso   1.00
H761   H     0.68082   0.17014   0.98450   0.00000  Uiso   1.00
H762   H     0.97043   0.10400   0.52675   0.00000  Uiso   1.00
C763   C     0.86916   0.31207   0.76090   0.00000  Uiso   1.00
C764   C     0.79745   0.02129   0.73922   0.00000  Uiso   1.00
H765   H     0.89684   0.29585   0.76968   0.00000  Uiso   1.00
H766   H     0.76978   0.03751   0.73042   0.00000  Uiso   1.00
C767   C     0.86914   0.02137   0.76091   0.00000  Uiso   1.00
C768   C     0.79745   0.31199   0.73925   0.00000  Uiso   1.00
C769   C     0.83329   0.04250   0.75005   0.00000  Uiso   1.00
C770   C     0.83333   0.29085   0.75006   0.00000  Uiso   1.00
C771   C     0.98094   0.13200   0.73697   0.00000  Uiso   1.00
C772   C     0.68557   0.20121   0.76344   0.00000  Uiso   1.00
C773   C     0.69547   0.13200   0.73703   0.00000  Uiso   1.00
C774   C     0.97101   0.20119   0.76346   0.00000  Uiso   1.00
H775   H     0.71745   0.10429   0.72637   0.00000  Uiso   1.00
H776   H     0.94893   0.22882   0.77437   0.00000  Uiso   1.00
N777   N     0.71426   0.16668   0.75001   0.00000  Uiso   1.00
N778   N     0.95241   0.16666   0.74999   0.00000  Uiso   1.00
H779   H     0.69632   0.15356   0.55516   0.00000  Uiso   1.00
H780   H     0.94467   0.08725   0.96111   0.00000  Uiso   1.00
H781   H     0.81450   0.17643   0.60588   0.00000  Uiso   1.00
H782   H     0.85391   0.14461   0.88992   0.00000  Uiso   1.00
N783   N     0.74723   0.13329   0.60685   0.00000  Uiso   1.00
O784   O     0.76304   0.10283   0.62542   0.00000  Uiso   1.00
O785   O     0.70948   0.15431   0.63295   0.00000  Uiso   1.00
N786   N     0.88565   0.08321   0.91387   0.00000  Uiso   1.00
O787   O     0.85139   0.06182   0.90707   0.00000  Uiso   1.00
O788   O     0.92986   0.08004   0.88373   0.00000  Uiso   1.00
H789   H     0.89680   0.03765   0.76971   0.00000  Uiso   1.00
H790   H     0.76977   0.29571   0.73049   0.00000  Uiso   1.00
H791   H     0.96699   0.10431   0.72620   0.00000  Uiso   1.00
H792   H     0.69949   0.22887   0.77431   0.00000  Uiso   1.00
O793   O     0.12846   0.56108   0.75001   0.00000  Uiso   1.00
O794   O     0.20488   0.43892   0.75000   0.00000  Uiso   1.00
O795   O     0.20490   0.56107   0.75000   0.00000  Uiso   1.00
O796   O     0.12843   0.43893   0.75000   0.00000  Uiso   1.00
C797   C     0.16668   0.58003   0.75002   0.00000  Uiso   1.00
C798   C     0.16664   0.41998   0.75000   0.00000  Uiso   1.00
O799   O     0.10661   0.50001   0.81613   0.00000  Uiso   1.00
O800   O     0.22672   0.49999   0.68388   0.00000  Uiso   1.00
O801   O     0.18305   0.50000   0.81612   0.00000  Uiso   1.00
O802   O     0.15028   0.50000   0.68388   0.00000  Uiso   1.00
C803   C     0.13650   0.49948   0.83818   0.00000  Uiso   1.00
C804   C     0.19676   0.49899   0.66175   0.00000  Uiso   1.00
Zn805  Zn    0.11562   0.50001   0.75000   0.00000  Uiso   1.00
Zn806  Zn    0.21771   0.49999   0.75000   0.00000  Uiso   1.00
C807   C     0.11757   0.49430   0.88900   0.00000  Uiso   1.00
C808   C     0.21392   0.48891   0.61174   0.00000  Uiso   1.00
C809   C     0.05166   0.49608   0.96408   0.00000  Uiso   1.00
C810   C     0.26887   0.45201   0.54436   0.00000  Uiso   1.00
C811   C     0.06847   0.50106   0.91567   0.00000  Uiso   1.00
C812   C     0.25850   0.46909   0.58897   0.00000  Uiso   1.00
C813   C     0.14904   0.48066   0.91069   0.00000  Uiso   1.00
C814   C     0.18034   0.49150   0.58960   0.00000  Uiso   1.00
C815   C     0.13212   0.47239   0.95878   0.00000  Uiso   1.00
C816   C     0.18727   0.46964   0.54827   0.00000  Uiso   1.00
C817   C     0.08347   0.48294   0.98591   0.00000  Uiso   1.00
C818   C     0.23357   0.45260   0.52359   0.00000  Uiso   1.00
C819   C     0.16384   0.45860   0.98115   0.00000  Uiso   1.00
C820   C     0.15009   0.46682   0.52961   0.00000  Uiso   1.00
C821   C     0.09995   0.47292   0.55696   0.00000  Uiso   1.00
C822   C     0.20932   0.43861   0.95723   0.00000  Uiso   1.00
C823   C     0.06743   0.48101   0.53451   0.00000  Uiso   1.00
C824   C     0.24350   0.43581   0.97905   0.00000  Uiso   1.00
H825   H     0.28441   0.46564   0.60621   0.00000  Uiso   1.00
H826   H     0.04351   0.51134   0.89932   0.00000  Uiso   1.00
H827   H     0.01416   0.50348   0.98450   0.00000  Uiso   1.00
H828   H     0.30376   0.43734   0.52675   0.00000  Uiso   1.00
C829   C     0.20249   0.64540   0.76090   0.00000  Uiso   1.00
C830   C     0.13078   0.35462   0.73922   0.00000  Uiso   1.00
H831   H     0.23018   0.62918   0.76968   0.00000  Uiso   1.00
H832   H     0.10312   0.37084   0.73042   0.00000  Uiso   1.00
C833   C     0.20247   0.35470   0.76091   0.00000  Uiso   1.00
C834   C     0.13079   0.64532   0.73925   0.00000  Uiso   1.00
C835   C     0.16663   0.37583   0.75005   0.00000  Uiso   1.00
C836   C     0.16666   0.62419   0.75006   0.00000  Uiso   1.00
C837   C     0.31427   0.46533   0.73697   0.00000  Uiso   1.00
C838   C     0.01890   0.53454   0.76344   0.00000  Uiso   1.00
C839   C     0.02880   0.46533   0.73703   0.00000  Uiso   1.00
C840   C     0.30435   0.53452   0.76346   0.00000  Uiso   1.00
H841   H     0.05079   0.43763   0.72637   0.00000  Uiso   1.00
H842   H     0.28226   0.56215   0.77437   0.00000  Uiso   1.00
N843   N     0.04759   0.50001   0.75001   0.00000  Uiso   1.00
N844   N     0.28574   0.49999   0.74999   0.00000  Uiso   1.00
H845   H     0.02966   0.48689   0.55516   0.00000  Uiso   1.00
H846   H     0.27801   0.42059   0.96111   0.00000  Uiso   1.00
H847   H     0.14783   0.50976   0.60588   0.00000  Uiso   1.00
H848   H     0.18724   0.47794   0.88992   0.00000  Uiso   1.00
N849   N     0.08057   0.46662   0.60685   0.00000  Uiso   1.00
O850   O     0.09637   0.43617   0.62542   0.00000  Uiso   1.00
O851   O     0.04281   0.48764   0.63295   0.00000  Uiso   1.00
N852   N     0.21898   0.41654   0.91387   0.00000  Uiso   1.00
O853   O     0.18473   0.39515   0.90707   0.00000  Uiso   1.00
O854   O     0.26319   0.41337   0.88373   0.00000  Uiso   1.00
H855   H     0.23013   0.37099   0.76971   0.00000  Uiso   1.00
H856   H     0.10310   0.62904   0.73049   0.00000  Uiso   1.00
H857   H     0.30033   0.43764   0.72620   0.00000  Uiso   1.00
H858   H     0.03282   0.56220   0.77431   0.00000  Uiso   1.00
O859   O     0.46179   0.56108   0.75001   0.00000  Uiso   1.00
O860   O     0.53821   0.43892   0.75000   0.00000  Uiso   1.00
O861   O     0.53823   0.56107   0.75000   0.00000  Uiso   1.00
O862   O     0.46177   0.43893   0.75000   0.00000  Uiso   1.00
C863   C     0.50001   0.58003   0.75002   0.00000  Uiso   1.00
C864   C     0.49998   0.41998   0.75000   0.00000  Uiso   1.00
O865   O     0.43994   0.50001   0.81613   0.00000  Uiso   1.00
O866   O     0.56006   0.49999   0.68388   0.00000  Uiso   1.00
O867   O     0.51639   0.50000   0.81612   0.00000  Uiso   1.00
O868   O     0.48361   0.50000   0.68388   0.00000  Uiso   1.00
C869   C     0.46983   0.49948   0.83818   0.00000  Uiso   1.00
C870   C     0.53010   0.49899   0.66175   0.00000  Uiso   1.00
Zn871  Zn    0.44896   0.50001   0.75000   0.00000  Uiso   1.00
Zn872  Zn    0.55104   0.49999   0.75000   0.00000  Uiso   1.00
C873   C     0.45090   0.49430   0.88900   0.00000  Uiso   1.00
C874   C     0.54725   0.48891   0.61174   0.00000  Uiso   1.00
C875   C     0.38499   0.49608   0.96408   0.00000  Uiso   1.00
C876   C     0.60220   0.45201   0.54436   0.00000  Uiso   1.00
C877   C     0.40180   0.50106   0.91567   0.00000  Uiso   1.00
C878   C     0.59184   0.46909   0.58897   0.00000  Uiso   1.00
C879   C     0.48238   0.48066   0.91069   0.00000  Uiso   1.00
C880   C     0.51368   0.49150   0.58960   0.00000  Uiso   1.00
C881   C     0.46546   0.47239   0.95878   0.00000  Uiso   1.00
C882   C     0.52060   0.46964   0.54827   0.00000  Uiso   1.00
C883   C     0.41680   0.48294   0.98591   0.00000  Uiso   1.00
C884   C     0.56691   0.45260   0.52359   0.00000  Uiso   1.00
C885   C     0.49718   0.45860   0.98115   0.00000  Uiso   1.00
C886   C     0.48342   0.46682   0.52961   0.00000  Uiso   1.00
C887   C     0.43329   0.47292   0.55696   0.00000  Uiso   1.00
C888   C     0.54265   0.43861   0.95723   0.00000  Uiso   1.00
C889   C     0.40076   0.48101   0.53451   0.00000  Uiso   1.00
C890   C     0.57683   0.43581   0.97905   0.00000  Uiso   1.00
H891   H     0.61774   0.46564   0.60621   0.00000  Uiso   1.00
H892   H     0.37684   0.51134   0.89932   0.00000  Uiso   1.00
H893   H     0.34749   0.50348   0.98450   0.00000  Uiso   1.00
H894   H     0.63710   0.43734   0.52675   0.00000  Uiso   1.00
C895   C     0.53583   0.64540   0.76090   0.00000  Uiso   1.00
C896   C     0.46412   0.35462   0.73922   0.00000  Uiso   1.00
H897   H     0.56351   0.62918   0.76968   0.00000  Uiso   1.00
H898   H     0.43645   0.37084   0.73042   0.00000  Uiso   1.00
C899   C     0.53580   0.35470   0.76091   0.00000  Uiso   1.00
C900   C     0.46412   0.64532   0.73925   0.00000  Uiso   1.00
C901   C     0.49996   0.37583   0.75005   0.00000  Uiso   1.00
C902   C     0.50000   0.62419   0.75006   0.00000  Uiso   1.00
C903   C     0.64761   0.46533   0.73697   0.00000  Uiso   1.00
C904   C     0.35224   0.53454   0.76344   0.00000  Uiso   1.00
C905   C     0.36214   0.46533   0.73703   0.00000  Uiso   1.00
C906   C     0.63768   0.53452   0.76346   0.00000  Uiso   1.00
H907   H     0.38412   0.43763   0.72637   0.00000  Uiso   1.00
H908   H     0.61560   0.56215   0.77437   0.00000  Uiso   1.00
N909   N     0.38093   0.50001   0.75001   0.00000  Uiso   1.00
N910   N     0.61907   0.49999   0.74999   0.00000  Uiso   1.00
H911   H     0.36299   0.48689   0.55516   0.00000  Uiso   1.00
H912   H     0.61134   0.42059   0.96111   0.00000  Uiso   1.00
H913   H     0.48117   0.50976   0.60588   0.00000  Uiso   1.00
H914   H     0.52058   0.47794   0.88992   0.00000  Uiso   1.00
N915   N     0.41390   0.46662   0.60685   0.00000  Uiso   1.00
O916   O     0.42971   0.43617   0.62542   0.00000  Uiso   1.00
O917   O     0.37615   0.48764   0.63295   0.00000  Uiso   1.00
N918   N     0.55232   0.41654   0.91387   0.00000  Uiso   1.00
O919   O     0.51806   0.39515   0.90707   0.00000  Uiso   1.00
O920   O     0.59652   0.41337   0.88373   0.00000  Uiso   1.00
H921   H     0.56346   0.37099   0.76971   0.00000  Uiso   1.00
H922   H     0.43643   0.62904   0.73049   0.00000  Uiso   1.00
H923   H     0.63366   0.43764   0.72620   0.00000  Uiso   1.00
H924   H     0.36616   0.56220   0.77431   0.00000  Uiso   1.00
O925   O     0.79512   0.56108   0.75001   0.00000  Uiso   1.00
O926   O     0.87154   0.43892   0.75000   0.00000  Uiso   1.00
O927   O     0.87157   0.56107   0.75000   0.00000  Uiso   1.00
O928   O     0.79510   0.43893   0.75000   0.00000  Uiso   1.00
C929   C     0.83335   0.58003   0.75002   0.00000  Uiso   1.00
C930   C     0.83331   0.41998   0.75000   0.00000  Uiso   1.00
O931   O     0.77328   0.50001   0.81613   0.00000  Uiso   1.00
O932   O     0.89339   0.49999   0.68388   0.00000  Uiso   1.00
O933   O     0.84972   0.50000   0.81612   0.00000  Uiso   1.00
O934   O     0.81695   0.50000   0.68388   0.00000  Uiso   1.00
C935   C     0.80317   0.49948   0.83818   0.00000  Uiso   1.00
C936   C     0.86343   0.49899   0.66175   0.00000  Uiso   1.00
Zn937  Zn    0.78229   0.50001   0.75000   0.00000  Uiso   1.00
Zn938  Zn    0.88438   0.49999   0.75000   0.00000  Uiso   1.00
C939   C     0.78423   0.49430   0.88900   0.00000  Uiso   1.00
C940   C     0.88058   0.48891   0.61174   0.00000  Uiso   1.00
C941   C     0.71832   0.49608   0.96408   0.00000  Uiso   1.00
C942   C     0.93553   0.45201   0.54436   0.00000  Uiso   1.00
C943   C     0.73514   0.50106   0.91567   0.00000  Uiso   1.00
C944   C     0.92517   0.46909   0.58897   0.00000  Uiso   1.00
C945   C     0.81571   0.48066   0.91069   0.00000  Uiso   1.00
C946   C     0.84701   0.49150   0.58960   0.00000  Uiso   1.00
C947   C     0.79879   0.47239   0.95878   0.00000  Uiso   1.00
C948   C     0.85394   0.46964   0.54827   0.00000  Uiso   1.00
C949   C     0.75014   0.48294   0.98591   0.00000  Uiso   1.00
C950   C     0.90024   0.45260   0.52359   0.00000  Uiso   1.00
C951   C     0.83051   0.45860   0.98115   0.00000  Uiso   1.00
C952   C     0.81676   0.46682   0.52961   0.00000  Uiso   1.00
C953   C     0.76662   0.47292   0.55696   0.00000  Uiso   1.00
C954   C     0.87598   0.43861   0.95723   0.00000  Uiso   1.00
C955   C     0.73409   0.48101   0.53451   0.00000  Uiso   1.00
C956   C     0.91016   0.43581   0.97905   0.00000  Uiso   1.00
H957   H     0.95108   0.46564   0.60621   0.00000  Uiso   1.00
H958   H     0.71018   0.51134   0.89932   0.00000  Uiso   1.00
H959   H     0.68082   0.50348   0.98450   0.00000  Uiso   1.00
H960   H     0.97043   0.43734   0.52675   0.00000  Uiso   1.00
C961   C     0.86916   0.64540   0.76090   0.00000  Uiso   1.00
C962   C     0.79745   0.35462   0.73922   0.00000  Uiso   1.00
H963   H     0.89684   0.62918   0.76968   0.00000  Uiso   1.00
H964   H     0.76978   0.37084   0.73042   0.00000  Uiso   1.00
C965   C     0.86914   0.35470   0.76091   0.00000  Uiso   1.00
C966   C     0.79745   0.64532   0.73925   0.00000  Uiso   1.00
C967   C     0.83329   0.37583   0.75005   0.00000  Uiso   1.00
C968   C     0.83333   0.62419   0.75006   0.00000  Uiso   1.00
C969   C     0.98094   0.46533   0.73697   0.00000  Uiso   1.00
C970   C     0.68557   0.53454   0.76344   0.00000  Uiso   1.00
C971   C     0.69547   0.46533   0.73703   0.00000  Uiso   1.00
C972   C     0.97101   0.53452   0.76346   0.00000  Uiso   1.00
H973   H     0.71745   0.43763   0.72637   0.00000  Uiso   1.00
H974   H     0.94893   0.56215   0.77437   0.00000  Uiso   1.00
N975   N     0.71426   0.50001   0.75001   0.00000  Uiso   1.00
N976   N     0.95241   0.49999   0.74999   0.00000  Uiso   1.00
H977   H     0.69632   0.48689   0.55516   0.00000  Uiso   1.00
H978   H     0.94467   0.42059   0.96111   0.00000  Uiso   1.00
H979   H     0.81450   0.50976   0.60588   0.00000  Uiso   1.00
H980   H     0.85391   0.47794   0.88992   0.00000  Uiso   1.00
N981   N     0.74723   0.46662   0.60685   0.00000  Uiso   1.00
O982   O     0.76304   0.43617   0.62542   0.00000  Uiso   1.00
O983   O     0.70948   0.48764   0.63295   0.00000  Uiso   1.00
N984   N     0.88565   0.41654   0.91387   0.00000  Uiso   1.00
O985   O     0.85139   0.39515   0.90707   0.00000  Uiso   1.00
O986   O     0.92986   0.41337   0.88373   0.00000  Uiso   1.00
H987   H     0.89680   0.37099   0.76971   0.00000  Uiso   1.00
H988   H     0.76977   0.62904   0.73049   0.00000  Uiso   1.00
H989   H     0.96699   0.43764   0.72620   0.00000  Uiso   1.00
H990   H     0.69949   0.56220   0.77431   0.00000  Uiso   1.00
O991   O     0.12846   0.89442   0.75001   0.00000  Uiso   1.00
O992   O     0.20488   0.77225   0.75000   0.00000  Uiso   1.00
O993   O     0.20490   0.89441   0.75000   0.00000  Uiso   1.00
O994   O     0.12843   0.77226   0.75000   0.00000  Uiso   1.00
C995   C     0.16668   0.91336   0.75002   0.00000  Uiso   1.00
C996   C     0.16664   0.75331   0.75000   0.00000  Uiso   1.00
O997   O     0.10661   0.83334   0.81613   0.00000  Uiso   1.00
O998   O     0.22672   0.83333   0.68388   0.00000  Uiso   1.00
O999   O     0.18305   0.83333   0.81612   0.00000  Uiso   1.00
O1000  O     0.15028   0.83334   0.68388   0.00000  Uiso   1.00
C1001  C     0.13650   0.83282   0.83818   0.00000  Uiso   1.00
C1002  C     0.19676   0.83232   0.66175   0.00000  Uiso   1.00
Zn1003 Zn    0.11562   0.83334   0.75000   0.00000  Uiso   1.00
Zn1004 Zn    0.21771   0.83333   0.75000   0.00000  Uiso   1.00
C1005  C     0.11757   0.82764   0.88900   0.00000  Uiso   1.00
C1006  C     0.21392   0.82224   0.61174   0.00000  Uiso   1.00
C1007  C     0.05166   0.82941   0.96408   0.00000  Uiso   1.00
C1008  C     0.26887   0.78535   0.54436   0.00000  Uiso   1.00
C1009  C     0.06847   0.83439   0.91567   0.00000  Uiso   1.00
C1010  C     0.25850   0.80242   0.58897   0.00000  Uiso   1.00
C1011  C     0.14904   0.81399   0.91069   0.00000  Uiso   1.00
C1012  C     0.18034   0.82483   0.58960   0.00000  Uiso   1.00
C1013  C     0.13212   0.80572   0.95878   0.00000  Uiso   1.00
C1014  C     0.18727   0.80297   0.54827   0.00000  Uiso   1.00
C1015  C     0.08347   0.81627   0.98591   0.00000  Uiso   1.00
C1016  C     0.23357   0.78593   0.52359   0.00000  Uiso   1.00
C1017  C     0.16384   0.79194   0.98115   0.00000  Uiso   1.00
C1018  C     0.15009   0.80015   0.52961   0.00000  Uiso   1.00
C1019  C     0.09995   0.80625   0.55696   0.00000  Uiso   1.00
C1020  C     0.20932   0.77194   0.95723   0.00000  Uiso   1.00
C1021  C     0.06743   0.81435   0.53451   0.00000  Uiso   1.00
C1022  C     0.24350   0.76914   0.97905   0.00000  Uiso   1.00
H1023  H     0.28441   0.79897   0.60621   0.00000  Uiso   1.00
H1024  H     0.04351   0.84467   0.89932   0.00000  Uiso   1.00
H1025  H     0.01416   0.83681   0.98450   0.00000  Uiso   1.00
H1026  H     0.30376   0.77067   0.52675   0.00000  Uiso   1.00
C1027  C     0.20249   0.97873   0.76090   0.00000  Uiso   1.00
C1028  C     0.13078   0.68795   0.73922   0.00000  Uiso   1.00
H1029  H     0.23018   0.96251   0.76968   0.00000  Uiso   1.00
H1030  H     0.10312   0.70417   0.73042   0.00000  Uiso   1.00
C1031  C     0.20247   0.68803   0.76091   0.00000  Uiso   1.00
C1032  C     0.13079   0.97866   0.73925   0.00000  Uiso   1.00
C1033  C     0.16663   0.70916   0.75005   0.00000  Uiso   1.00
C1034  C     0.16666   0.95752   0.75006   0.00000  Uiso   1.00
C1035  C     0.31427   0.79867   0.73697   0.00000  Uiso   1.00
C1036  C     0.01890   0.86787   0.76344   0.00000  Uiso   1.00
C1037  C     0.02880   0.79867   0.73703   0.00000  Uiso   1.00
C1038  C     0.30435   0.86785   0.76346   0.00000  Uiso   1.00
H1039  H     0.05079   0.77096   0.72637   0.00000  Uiso   1.00
H1040  H     0.28226   0.89549   0.77437   0.00000  Uiso   1.00
N1041  N     0.04759   0.83334   0.75001   0.00000  Uiso   1.00
N1042  N     0.28574   0.83332   0.74999   0.00000  Uiso   1.00
H1043  H     0.02966   0.82023   0.55516   0.00000  Uiso   1.00
H1044  H     0.27801   0.75392   0.96111   0.00000  Uiso   1.00
H1045  H     0.14783   0.84309   0.60588   0.00000  Uiso   1.00
H1046  H     0.18724   0.81128   0.88992   0.00000  Uiso   1.00
N1047  N     0.08057   0.79996   0.60685   0.00000  Uiso   1.00
O1048  O     0.09637   0.76950   0.62542   0.00000  Uiso   1.00
O1049  O     0.04281   0.82098   0.63295   0.00000  Uiso   1.00
N1050  N     0.21898   0.74988   0.91387   0.00000  Uiso   1.00
O1051  O     0.18473   0.72848   0.90707   0.00000  Uiso   1.00
O1052  O     0.26319   0.74671   0.88373   0.00000  Uiso   1.00
H1053  H     0.23013   0.70432   0.76971   0.00000  Uiso   1.00
H1054  H     0.10310   0.96238   0.73049   0.00000  Uiso   1.00
H1055  H     0.30033   0.77097   0.72620   0.00000  Uiso   1.00
H1056  H     0.03282   0.89553   0.77431   0.00000  Uiso   1.00
O1057  O     0.46179   0.89442   0.75001   0.00000  Uiso   1.00
O1058  O     0.53821   0.77225   0.75000   0.00000  Uiso   1.00
O1059  O     0.53823   0.89441   0.75000   0.00000  Uiso   1.00
O1060  O     0.46177   0.77226   0.75000   0.00000  Uiso   1.00
C1061  C     0.50001   0.91336   0.75002   0.00000  Uiso   1.00
C1062  C     0.49998   0.75331   0.75000   0.00000  Uiso   1.00
O1063  O     0.43994   0.83334   0.81613   0.00000  Uiso   1.00
O1064  O     0.56006   0.83333   0.68388   0.00000  Uiso   1.00
O1065  O     0.51639   0.83333   0.81612   0.00000  Uiso   1.00
O1066  O     0.48361   0.83334   0.68388   0.00000  Uiso   1.00
C1067  C     0.46983   0.83282   0.83818   0.00000  Uiso   1.00
C1068  C     0.53010   0.83232   0.66175   0.00000  Uiso   1.00
Zn1069 Zn    0.44896   0.83334   0.75000   0.00000  Uiso   1.00
Zn1070 Zn    0.55104   0.83333   0.75000   0.00000  Uiso   1.00
C1071  C     0.45090   0.82764   0.88900   0.00000  Uiso   1.00
C1072  C     0.54725   0.82224   0.61174   0.00000  Uiso   1.00
C1073  C     0.38499   0.82941   0.96408   0.00000  Uiso   1.00
C1074  C     0.60220   0.78535   0.54436   0.00000  Uiso   1.00
C1075  C     0.40180   0.83439   0.91567   0.00000  Uiso   1.00
C1076  C     0.59184   0.80242   0.58897   0.00000  Uiso   1.00
C1077  C     0.48238   0.81399   0.91069   0.00000  Uiso   1.00
C1078  C     0.51368   0.82483   0.58960   0.00000  Uiso   1.00
C1079  C     0.46546   0.80572   0.95878   0.00000  Uiso   1.00
C1080  C     0.52060   0.80297   0.54827   0.00000  Uiso   1.00
C1081  C     0.41680   0.81627   0.98591   0.00000  Uiso   1.00
C1082  C     0.56691   0.78593   0.52359   0.00000  Uiso   1.00
C1083  C     0.49718   0.79194   0.98115   0.00000  Uiso   1.00
C1084  C     0.48342   0.80015   0.52961   0.00000  Uiso   1.00
C1085  C     0.43329   0.80625   0.55696   0.00000  Uiso   1.00
C1086  C     0.54265   0.77194   0.95723   0.00000  Uiso   1.00
C1087  C     0.40076   0.81435   0.53451   0.00000  Uiso   1.00
C1088  C     0.57683   0.76914   0.97905   0.00000  Uiso   1.00
H1089  H     0.61774   0.79897   0.60621   0.00000  Uiso   1.00
H1090  H     0.37684   0.84467   0.89932   0.00000  Uiso   1.00
H1091  H     0.34749   0.83681   0.98450   0.00000  Uiso   1.00
H1092  H     0.63710   0.77067   0.52675   0.00000  Uiso   1.00
C1093  C     0.53583   0.97873   0.76090   0.00000  Uiso   1.00
C1094  C     0.46412   0.68795   0.73922   0.00000  Uiso   1.00
H1095  H     0.56351   0.96251   0.76968   0.00000  Uiso   1.00
H1096  H     0.43645   0.70417   0.73042   0.00000  Uiso   1.00
C1097  C     0.53580   0.68803   0.76091   0.00000  Uiso   1.00
C1098  C     0.46412   0.97866   0.73925   0.00000  Uiso   1.00
C1099  C     0.49996   0.70916   0.75005   0.00000  Uiso   1.00
C1100  C     0.50000   0.95752   0.75006   0.00000  Uiso   1.00
C1101  C     0.64761   0.79867   0.73697   0.00000  Uiso   1.00
C1102  C     0.35224   0.86787   0.76344   0.00000  Uiso   1.00
C1103  C     0.36214   0.79867   0.73703   0.00000  Uiso   1.00
C1104  C     0.63768   0.86785   0.76346   0.00000  Uiso   1.00
H1105  H     0.38412   0.77096   0.72637   0.00000  Uiso   1.00
H1106  H     0.61560   0.89549   0.77437   0.00000  Uiso   1.00
N1107  N     0.38093   0.83334   0.75001   0.00000  Uiso   1.00
N1108  N     0.61907   0.83332   0.74999   0.00000  Uiso   1.00
H1109  H     0.36299   0.82023   0.55516   0.00000  Uiso   1.00
H1110  H     0.61134   0.75392   0.96111   0.00000  Uiso   1.00
H1111  H     0.48117   0.84309   0.60588   0.00000  Uiso   1.00
H1112  H     0.52058   0.81128   0.88992   0.00000  Uiso   1.00
N1113  N     0.41390   0.79996   0.60685   0.00000  Uiso   1.00
O1114  O     0.42971   0.76950   0.62542   0.00000  Uiso   1.00
O1115  O     0.37615   0.82098   0.63295   0.00000  Uiso   1.00
N1116  N     0.55232   0.74988   0.91387   0.00000  Uiso   1.00
O1117  O     0.51806   0.72848   0.90707   0.00000  Uiso   1.00
O1118  O     0.59652   0.74671   0.88373   0.00000  Uiso   1.00
H1119  H     0.56346   0.70432   0.76971   0.00000  Uiso   1.00
H1120  H     0.43643   0.96238   0.73049   0.00000  Uiso   1.00
H1121  H     0.63366   0.77097   0.72620   0.00000  Uiso   1.00
H1122  H     0.36616   0.89553   0.77431   0.00000  Uiso   1.00
O1123  O     0.79512   0.89442   0.75001   0.00000  Uiso   1.00
O1124  O     0.87154   0.77225   0.75000   0.00000  Uiso   1.00
O1125  O     0.87157   0.89441   0.75000   0.00000  Uiso   1.00
O1126  O     0.79510   0.77226   0.75000   0.00000  Uiso   1.00
C1127  C     0.83335   0.91336   0.75002   0.00000  Uiso   1.00
C1128  C     0.83331   0.75331   0.75000   0.00000  Uiso   1.00
O1129  O     0.77328   0.83334   0.81613   0.00000  Uiso   1.00
O1130  O     0.89339   0.83333   0.68388   0.00000  Uiso   1.00
O1131  O     0.84972   0.83333   0.81612   0.00000  Uiso   1.00
O1132  O     0.81695   0.83334   0.68388   0.00000  Uiso   1.00
C1133  C     0.80317   0.83282   0.83818   0.00000  Uiso   1.00
C1134  C     0.86343   0.83232   0.66175   0.00000  Uiso   1.00
Zn1135 Zn    0.78229   0.83334   0.75000   0.00000  Uiso   1.00
Zn1136 Zn    0.88438   0.83333   0.75000   0.00000  Uiso   1.00
C1137  C     0.78423   0.82764   0.88900   0.00000  Uiso   1.00
C1138  C     0.88058   0.82224   0.61174   0.00000  Uiso   1.00
C1139  C     0.71832   0.82941   0.96408   0.00000  Uiso   1.00
C1140  C     0.93553   0.78535   0.54436   0.00000  Uiso   1.00
C1141  C     0.73514   0.83439   0.91567   0.00000  Uiso   1.00
C1142  C     0.92517   0.80242   0.58897   0.00000  Uiso   1.00
C1143  C     0.81571   0.81399   0.91069   0.00000  Uiso   1.00
C1144  C     0.84701   0.82483   0.58960   0.00000  Uiso   1.00
C1145  C     0.79879   0.80572   0.95878   0.00000  Uiso   1.00
C1146  C     0.85394   0.80297   0.54827   0.00000  Uiso   1.00
C1147  C     0.75014   0.81627   0.98591   0.00000  Uiso   1.00
C1148  C     0.90024   0.78593   0.52359   0.00000  Uiso   1.00
C1149  C     0.83051   0.79194   0.98115   0.00000  Uiso   1.00
C1150  C     0.81676   0.80015   0.52961   0.00000  Uiso   1.00
C1151  C     0.76662   0.80625   0.55696   0.00000  Uiso   1.00
C1152  C     0.87598   0.77194   0.95723   0.00000  Uiso   1.00
C1153  C     0.73409   0.81435   0.53451   0.00000  Uiso   1.00
C1154  C     0.91016   0.76914   0.97905   0.00000  Uiso   1.00
H1155  H     0.95108   0.79897   0.60621   0.00000  Uiso   1.00
H1156  H     0.71018   0.84467   0.89932   0.00000  Uiso   1.00
H1157  H     0.68082   0.83681   0.98450   0.00000  Uiso   1.00
H1158  H     0.97043   0.77067   0.52675   0.00000  Uiso   1.00
C1159  C     0.86916   0.97873   0.76090   0.00000  Uiso   1.00
C1160  C     0.79745   0.68795   0.73922   0.00000  Uiso   1.00
H1161  H     0.89684   0.96251   0.76968   0.00000  Uiso   1.00
H1162  H     0.76978   0.70417   0.73042   0.00000  Uiso   1.00
C1163  C     0.86914   0.68803   0.76091   0.00000  Uiso   1.00
C1164  C     0.79745   0.97866   0.73925   0.00000  Uiso   1.00
C1165  C     0.83329   0.70916   0.75005   0.00000  Uiso   1.00
C1166  C     0.83333   0.95752   0.75006   0.00000  Uiso   1.00
C1167  C     0.98094   0.79867   0.73697   0.00000  Uiso   1.00
C1168  C     0.68557   0.86787   0.76344   0.00000  Uiso   1.00
C1169  C     0.69547   0.79867   0.73703   0.00000  Uiso   1.00
C1170  C     0.97101   0.86785   0.76346   0.00000  Uiso   1.00
H1171  H     0.71745   0.77096   0.72637   0.00000  Uiso   1.00
H1172  H     0.94893   0.89549   0.77437   0.00000  Uiso   1.00
N1173  N     0.71426   0.83334   0.75001   0.00000  Uiso   1.00
N1174  N     0.95241   0.83332   0.74999   0.00000  Uiso   1.00
H1175  H     0.69632   0.82023   0.55516   0.00000  Uiso   1.00
H1176  H     0.94467   0.75392   0.96111   0.00000  Uiso   1.00
H1177  H     0.81450   0.84309   0.60588   0.00000  Uiso   1.00
H1178  H     0.85391   0.81128   0.88992   0.00000  Uiso   1.00
N1179  N     0.74723   0.79996   0.60685   0.00000  Uiso   1.00
O1180  O     0.76304   0.76950   0.62542   0.00000  Uiso   1.00
O1181  O     0.70948   0.82098   0.63295   0.00000  Uiso   1.00
N1182  N     0.88565   0.74988   0.91387   0.00000  Uiso   1.00
O1183  O     0.85139   0.72848   0.90707   0.00000  Uiso   1.00
O1184  O     0.92986   0.74671   0.88373   0.00000  Uiso   1.00
H1185  H     0.89680   0.70432   0.76971   0.00000  Uiso   1.00
H1186  H     0.76977   0.96238   0.73049   0.00000  Uiso   1.00
H1187  H     0.96699   0.77097   0.72620   0.00000  Uiso   1.00
H1188  H     0.69949   0.89553   0.77431   0.00000  Uiso   1.00
loop_
_geom_bond_atom_site_label_1
_geom_bond_atom_site_label_2
_geom_bond_distance
_geom_bond_site_symmetry_2
_ccdc_geom_bond_type
O1     C5      1.284   .     A
O1     Zn13    1.999   .     S
O2     C6      1.284   .     A
O2     Zn14    1.999   .     S
O3     Zn14    2.000   .     S
O3     C5      1.284   .     A
O4     C6      1.284   .     A
O4     Zn13    2.000   .     S
C5     C44     1.419   .     S
C6     C43     1.419   .     S
O7     C11     1.293   .     A
O7     Zn13    1.943   .     S
O8     C12     1.296   .     A
O8     Zn14    1.943   .     S
O9     Zn14    1.908   .     S
O9     C11     1.294   .     A
O10    C12     1.293   .     A
O10    Zn13    1.908   .     S
C11    C15     1.459   .     S
C12    C16     1.463   .     S
Zn13   N51     2.011   .     S
Zn14   N52     2.011   .     S
C15    C21     1.396   .     A
C15    C19     1.400   .     A
C16    C20     1.401   .     A
C16    C22     1.393   .     A
C17    C25     1.402   .     A
C17    C19     1.391   .     A
C17    H35     1.083   .     S
C18    C26     1.406   .     A
C18    C20     1.398   .     A
C18    H36     1.083   .     S
C19    H34     1.083   .     S
C20    H33     1.082   .     S
C21    H56     1.080   .     S
C21    C23     1.398   .     A
C22    H55     1.081   .     S
C22    C24     1.395   .     A
C23    C27     1.419   .     A
C23    C25     1.416   .     A
C24    C26     1.412   .     A
C24    C28     1.414   .     A
C25    C625    1.389   .     S
C26    C626    1.394   1_554 S
C27    C30     1.429   .     A
C27    C622    1.413   .     S
C28    C29     1.427   .     A
C28    C621    1.413   1_554 S
C29    C31     1.395   .     A
C29    N57     1.437   .     S
C30    C32     1.402   .     A
C30    N60     1.439   .     S
C31    H53     1.081   .     S
C31    C619    1.389   1_554 S
C32    H54     1.084   .     S
C32    C620    1.394   .     S
C37    C44     1.397   .     A
C37    H39     1.084   .     S
C37    C239    1.370   .     S
C38    C43     1.397   .     A
C38    H40     1.084   .     S
C38    C438    1.370   1_545 S
C41    C43     1.397   .     A
C41    H63     1.084   .     S
C41    C433    1.370   1_545 S
C42    C44     1.397   .     A
C42    H64     1.084   .     S
C42    C236    1.370   .     S
C45    N52     1.367   .     A
C45    H65     1.081   .     S
C45    C113    1.416   .     S
C46    H66     1.081   .     S
C46    N51     1.367   .     A
C46    C180    1.416   1_455 S
C47    H49     1.081   .     S
C47    N51     1.367   .     A
C47    C177    1.416   1_455 S
C48    H50     1.081   .     S
C48    N52     1.367   .     A
C48    C112    1.416   .     S
N57    O58     1.302   .     A
N57    O59     1.301   .     A
N60    O62     1.302   .     A
N60    O61     1.302   .     A
O67    C71     1.284   .     A
O67    Zn79    1.999   .     S
O68    C72     1.284   .     A
O68    Zn80    1.999   .     S
O69    Zn80    2.000   .     S
O69    C71     1.284   .     A
O70    C72     1.284   .     A
O70    Zn79    2.000   .     S
C71    C110    1.419   .     S
C72    C109    1.419   .     S
O73    C77     1.293   .     A
O73    Zn79    1.943   .     S
O74    C78     1.296   .     A
O74    Zn80    1.943   .     S
O75    Zn80    1.908   .     S
O75    C77     1.294   .     A
O76    C78     1.293   .     A
O76    Zn79    1.908   .     S
C77    C81     1.459   .     S
C78    C82     1.463   .     S
Zn79   N117    2.011   .     S
Zn80   N118    2.011   .     S
C81    C87     1.396   .     A
C81    C85     1.400   .     A
C82    C86     1.401   .     A
C82    C88     1.393   .     A
C83    C91     1.402   .     A
C83    C85     1.391   .     A
C83    H101    1.083   .     S
C84    C92     1.406   .     A
C84    C86     1.398   .     A
C84    H102    1.083   .     S
C85    H100    1.083   .     S
C86    H99     1.082   .     S
C87    H122    1.080   .     S
C87    C89     1.398   .     A
C88    H121    1.081   .     S
C88    C90     1.395   .     A
C89    C93     1.419   .     A
C89    C91     1.416   .     A
C90    C92     1.412   .     A
C90    C94     1.414   .     A
C91    C691    1.389   .     S
C92    C692    1.394   1_554 S
C93    C96     1.429   .     A
C93    C688    1.413   .     S
C94    C95     1.427   .     A
C94    C687    1.413   1_554 S
C95    C97     1.395   .     A
C95    N123    1.437   .     S
C96    C98     1.402   .     A
C96    N126    1.439   .     S
C97    H119    1.081   .     S
C97    C685    1.389   1_554 S
C98    H120    1.084   .     S
C98    C686    1.394   .     S
C103   C110    1.397   .     A
C103   H105    1.084   .     S
C103   C305    1.370   .     S
C104   C109    1.397   .     A
C104   H106    1.084   .     S
C104   C504    1.370   1_545 S
C107   C109    1.397   .     A
C107   H129    1.084   .     S
C107   C499    1.370   1_545 S
C108   C110    1.397   .     A
C108   H130    1.084   .     S
C108   C302    1.370   .     S
C111   N118    1.367   .     A
C111   H131    1.081   .     S
C111   C179    1.416   .     S
C112   H132    1.081   .     S
C112   N117    1.367   .     A
C113   H115    1.081   .     S
C113   N117    1.367   .     A
C114   H116    1.081   .     S
C114   N118    1.367   .     A
C114   C178    1.416   .     S
N123   O124    1.302   .     A
N123   O125    1.301   .     A
N126   O128    1.302   .     A
N126   O127    1.302   .     A
O133   C137    1.284   .     A
O133   Zn145   1.999   .     S
O134   C138    1.284   .     A
O134   Zn146   1.999   .     S
O135   Zn146   2.000   .     S
O135   C137    1.284   .     A
O136   C138    1.284   .     A
O136   Zn145   2.000   .     S
C137   C176    1.419   .     S
C138   C175    1.419   .     S
O139   C143    1.293   .     A
O139   Zn145   1.943   .     S
O140   C144    1.296   .     A
O140   Zn146   1.943   .     S
O141   Zn146   1.908   .     S
O141   C143    1.294   .     A
O142   C144    1.293   .     A
O142   Zn145   1.908   .     S
C143   C147    1.459   .     S
C144   C148    1.463   .     S
Zn145  N183    2.011   .     S
Zn146  N184    2.011   .     S
C147   C153    1.396   .     A
C147   C151    1.400   .     A
C148   C152    1.401   .     A
C148   C154    1.393   .     A
C149   C157    1.402   .     A
C149   C151    1.391   .     A
C149   H167    1.083   .     S
C150   C158    1.406   .     A
C150   C152    1.398   .     A
C150   H168    1.083   .     S
C151   H166    1.083   .     S
C152   H165    1.082   .     S
C153   H188    1.080   .     S
C153   C155    1.398   .     A
C154   H187    1.081   .     S
C154   C156    1.395   .     A
C155   C159    1.419   .     A
C155   C157    1.416   .     A
C156   C158    1.412   .     A
C156   C160    1.414   .     A
C157   C757    1.389   .     S
C158   C758    1.394   1_554 S
C159   C162    1.429   .     A
C159   C754    1.413   .     S
C160   C161    1.427   .     A
C160   C753    1.413   1_554 S
C161   C163    1.395   .     A
C161   N189    1.437   .     S
C162   C164    1.402   .     A
C162   N192    1.439   .     S
C163   H185    1.081   .     S
C163   C751    1.389   1_554 S
C164   H186    1.084   .     S
C164   C752    1.394   .     S
C169   C176    1.397   .     A
C169   H171    1.084   .     S
C169   C371    1.370   .     S
C170   C175    1.397   .     A
C170   H172    1.084   .     S
C170   C570    1.370   1_545 S
C173   C175    1.397   .     A
C173   H195    1.084   .     S
C173   C565    1.370   1_545 S
C174   C176    1.397   .     A
C174   H196    1.084   .     S
C174   C368    1.370   .     S
C177   N184    1.367   .     A
C177   H197    1.081   .     S
C177   C47     1.416   1_655 S
C178   H198    1.081   .     S
C178   N183    1.367   .     A
C179   H181    1.081   .     S
C179   N183    1.367   .     A
C180   H182    1.081   .     S
C180   N184    1.367   .     A
C180   C46     1.416   1_655 S
N189   O190    1.302   .     A
N189   O191    1.301   .     A
N192   O194    1.302   .     A
N192   O193    1.302   .     A
O199   C203    1.284   .     A
O199   Zn211   1.999   .     S
O200   C204    1.284   .     A
O200   Zn212   1.999   .     S
O201   Zn212   2.000   .     S
O201   C203    1.284   .     A
O202   C204    1.284   .     A
O202   Zn211   2.000   .     S
C203   C242    1.419   .     S
C204   C241    1.419   .     S
O205   C209    1.293   .     A
O205   Zn211   1.943   .     S
O206   C210    1.296   .     A
O206   Zn212   1.943   .     S
O207   Zn212   1.908   .     S
O207   C209    1.294   .     A
O208   C210    1.293   .     A
O208   Zn211   1.908   .     S
C209   C213    1.459   .     S
C210   C214    1.463   .     S
Zn211  N249    2.011   .     S
Zn212  N250    2.011   .     S
C213   C219    1.396   .     A
C213   C217    1.400   .     A
C214   C218    1.401   .     A
C214   C220    1.393   .     A
C215   C223    1.402   .     A
C215   C217    1.391   .     A
C215   H233    1.083   .     S
C216   C224    1.406   .     A
C216   C218    1.398   .     A
C216   H234    1.083   .     S
C217   H232    1.083   .     S
C218   H231    1.082   .     S
C219   H254    1.080   .     S
C219   C221    1.398   .     A
C220   H253    1.081   .     S
C220   C222    1.395   .     A
C221   C225    1.419   .     A
C221   C223    1.416   .     A
C222   C224    1.412   .     A
C222   C226    1.414   .     A
C223   C823    1.389   .     S
C224   C824    1.394   1_554 S
C225   C228    1.429   .     A
C225   C820    1.413   .     S
C226   C227    1.427   .     A
C226   C819    1.413   1_554 S
C227   C229    1.395   .     A
C227   N255    1.437   .     S
C228   C230    1.402   .     A
C228   N258    1.439   .     S
C229   H251    1.081   .     S
C229   C817    1.389   1_554 S
C230   H252    1.084   .     S
C230   C818    1.394   .     S
C235   C242    1.397   .     A
C235   H237    1.084   .     S
C235   C437    1.370   .     S
C236   C241    1.397   .     A
C236   H238    1.084   .     S
C239   C241    1.397   .     A
C239   H261    1.084   .     S
C240   C242    1.397   .     A
C240   H262    1.084   .     S
C240   C434    1.370   .     S
C243   N250    1.367   .     A
C243   H263    1.081   .     S
C243   C311    1.416   .     S
C244   H264    1.081   .     S
C244   N249    1.367   .     A
C244   C378    1.416   1_455 S
C245   H247    1.081   .     S
C245   N249    1.367   .     A
C245   C375    1.416   1_455 S
C246   H248    1.081   .     S
C246   N250    1.367   .     A
C246   C310    1.416   .     S
N255   O256    1.302   .     A
N255   O257    1.301   .     A
N258   O260    1.302   .     A
N258   O259    1.302   .     A
O265   C269    1.284   .     A
O265   Zn277   1.999   .     S
O266   C270    1.284   .     A
O266   Zn278   1.999   .     S
O267   Zn278   2.000   .     S
O267   C269    1.284   .     A
O268   C270    1.284   .     A
O268   Zn277   2.000   .     S
C269   C308    1.419   .     S
C270   C307    1.419   .     S
O271   C275    1.293   .     A
O271   Zn277   1.943   .     S
O272   C276    1.296   .     A
O272   Zn278   1.943   .     S
O273   Zn278   1.908   .     S
O273   C275    1.294   .     A
O274   C276    1.293   .     A
O274   Zn277   1.908   .     S
C275   C279    1.459   .     S
C276   C280    1.463   .     S
Zn277  N315    2.011   .     S
Zn278  N316    2.011   .     S
C279   C285    1.396   .     A
C279   C283    1.400   .     A
C280   C284    1.401   .     A
C280   C286    1.393   .     A
C281   C289    1.402   .     A
C281   C283    1.391   .     A
C281   H299    1.083   .     S
C282   C290    1.406   .     A
C282   C284    1.398   .     A
C282   H300    1.083   .     S
C283   H298    1.083   .     S
C284   H297    1.082   .     S
C285   H320    1.080   .     S
C285   C287    1.398   .     A
C286   H319    1.081   .     S
C286   C288    1.395   .     A
C287   C291    1.419   .     A
C287   C289    1.416   .     A
C288   C290    1.412   .     A
C288   C292    1.414   .     A
C289   C889    1.389   .     S
C290   C890    1.394   1_554 S
C291   C294    1.429   .     A
C291   C886    1.413   .     S
C292   C293    1.427   .     A
C292   C885    1.413   1_554 S
C293   C295    1.395   .     A
C293   N321    1.437   .     S
C294   C296    1.402   .     A
C294   N324    1.439   .     S
C295   H317    1.081   .     S
C295   C883    1.389   1_554 S
C296   H318    1.084   .     S
C296   C884    1.394   .     S
C301   C308    1.397   .     A
C301   H303    1.084   .     S
C301   C503    1.370   .     S
C302   C307    1.397   .     A
C302   H304    1.084   .     S
C305   C307    1.397   .     A
C305   H327    1.084   .     S
C306   C308    1.397   .     A
C306   H328    1.084   .     S
C306   C500    1.370   .     S
C309   N316    1.367   .     A
C309   H329    1.081   .     S
C309   C377    1.416   .     S
C310   H330    1.081   .     S
C310   N315    1.367   .     A
C311   H313    1.081   .     S
C311   N315    1.367   .     A
C312   H314    1.081   .     S
C312   N316    1.367   .     A
C312   C376    1.416   .     S
N321   O322    1.302   .     A
N321   O323    1.301   .     A
N324   O326    1.302   .     A
N324   O325    1.302   .     A
O331   C335    1.284   .     A
O331   Zn343   1.999   .     S
O332   C336    1.284   .     A
O332   Zn344   1.999   .     S
O333   Zn344   2.000   .     S
O333   C335    1.284   .     A
O334   C336    1.284   .     A
O334   Zn343   2.000   .     S
C335   C374    1.419   .     S
C336   C373    1.419   .     S
O337   C341    1.293   .     A
O337   Zn343   1.943   .     S
O338   C342    1.296   .     A
O338   Zn344   1.943   .     S
O339   Zn344   1.908   .     S
O339   C341    1.294   .     A
O340   C342    1.293   .     A
O340   Zn343   1.908   .     S
C341   C345    1.459   .     S
C342   C346    1.463   .     S
Zn343  N381    2.011   .     S
Zn344  N382    2.011   .     S
C345   C351    1.396   .     A
C345   C349    1.400   .     A
C346   C350    1.401   .     A
C346   C352    1.393   .     A
C347   C355    1.402   .     A
C347   C349    1.391   .     A
C347   H365    1.083   .     S
C348   C356    1.406   .     A
C348   C350    1.398   .     A
C348   H366    1.083   .     S
C349   H364    1.083   .     S
C350   H363    1.082   .     S
C351   H386    1.080   .     S
C351   C353    1.398   .     A
C352   H385    1.081   .     S
C352   C354    1.395   .     A
C353   C357    1.419   .     A
C353   C355    1.416   .     A
C354   C356    1.412   .     A
C354   C358    1.414   .     A
C355   C955    1.389   .     S
C356   C956    1.394   1_554 S
C357   C360    1.429   .     A
C357   C952    1.413   .     S
C358   C359    1.427   .     A
C358   C951    1.413   1_554 S
C359   C361    1.395   .     A
C359   N387    1.437   .     S
C360   C362    1.402   .     A
C360   N390    1.439   .     S
C361   H383    1.081   .     S
C361   C949    1.389   1_554 S
C362   H384    1.084   .     S
C362   C950    1.394   .     S
C367   C374    1.397   .     A
C367   H369    1.084   .     S
C367   C569    1.370   .     S
C368   C373    1.397   .     A
C368   H370    1.084   .     S
C371   C373    1.397   .     A
C371   H393    1.084   .     S
C372   C374    1.397   .     A
C372   H394    1.084   .     S
C372   C566    1.370   .     S
C375   N382    1.367   .     A
C375   H395    1.081   .     S
C375   C245    1.416   1_655 S
C376   H396    1.081   .     S
C376   N381    1.367   .     A
C377   H379    1.081   .     S
C377   N381    1.367   .     A
C378   H380    1.081   .     S
C378   N382    1.367   .     A
C378   C244    1.416   1_655 S
N387   O388    1.302   .     A
N387   O389    1.301   .     A
N390   O392    1.302   .     A
N390   O391    1.302   .     A
O397   C401    1.284   .     A
O397   Zn409   1.999   .     S
O398   C402    1.284   .     A
O398   Zn410   1.999   .     S
O399   Zn410   2.000   .     S
O399   C401    1.284   .     A
O400   C402    1.284   .     A
O400   Zn409   2.000   .     S
C401   C440    1.419   .     S
C402   C439    1.419   .     S
O403   C407    1.293   .     A
O403   Zn409   1.943   .     S
O404   C408    1.296   .     A
O404   Zn410   1.943   .     S
O405   Zn410   1.908   .     S
O405   C407    1.294   .     A
O406   C408    1.293   .     A
O406   Zn409   1.908   .     S
C407   C411    1.459   .     S
C408   C412    1.463   .     S
Zn409  N447    2.011   .     S
Zn410  N448    2.011   .     S
C411   C417    1.396   .     A
C411   C415    1.400   .     A
C412   C416    1.401   .     A
C412   C418    1.393   .     A
C413   C421    1.402   .     A
C413   C415    1.391   .     A
C413   H431    1.083   .     S
C414   C422    1.406   .     A
C414   C416    1.398   .     A
C414   H432    1.083   .     S
C415   H430    1.083   .     S
C416   H429    1.082   .     S
C417   H452    1.080   .     S
C417   C419    1.398   .     A
C418   H451    1.081   .     S
C418   C420    1.395   .     A
C419   C423    1.419   .     A
C419   C421    1.416   .     A
C420   C422    1.412   .     A
C420   C424    1.414   .     A
C421   C1021   1.389   .     S
C422   C1022   1.394   1_554 S
C423   C426    1.429   .     A
C423   C1018   1.413   .     S
C424   C425    1.427   .     A
C424   C1017   1.413   1_554 S
C425   C427    1.395   .     A
C425   N453    1.437   .     S
C426   C428    1.402   .     A
C426   N456    1.439   .     S
C427   H449    1.081   .     S
C427   C1015   1.389   1_554 S
C428   H450    1.084   .     S
C428   C1016   1.394   .     S
C433   C440    1.397   .     A
C433   H435    1.084   .     S
C433   C41     1.370   1_565 S
C434   C439    1.397   .     A
C434   H436    1.084   .     S
C437   C439    1.397   .     A
C437   H459    1.084   .     S
C438   C440    1.397   .     A
C438   H460    1.084   .     S
C438   C38     1.370   1_565 S
C441   N448    1.367   .     A
C441   H461    1.081   .     S
C441   C509    1.416   .     S
C442   H462    1.081   .     S
C442   N447    1.367   .     A
C442   C576    1.416   1_455 S
C443   H445    1.081   .     S
C443   N447    1.367   .     A
C443   C573    1.416   1_455 S
C444   H446    1.081   .     S
C444   N448    1.367   .     A
C444   C508    1.416   .     S
N453   O454    1.302   .     A
N453   O455    1.301   .     A
N456   O458    1.302   .     A
N456   O457    1.302   .     A
O463   C467    1.284   .     A
O463   Zn475   1.999   .     S
O464   C468    1.284   .     A
O464   Zn476   1.999   .     S
O465   Zn476   2.000   .     S
O465   C467    1.284   .     A
O466   C468    1.284   .     A
O466   Zn475   2.000   .     S
C467   C506    1.419   .     S
C468   C505    1.419   .     S
O469   C473    1.293   .     A
O469   Zn475   1.943   .     S
O470   C474    1.296   .     A
O470   Zn476   1.943   .     S
O471   Zn476   1.908   .     S
O471   C473    1.294   .     A
O472   C474    1.293   .     A
O472   Zn475   1.908   .     S
C473   C477    1.459   .     S
C474   C478    1.463   .     S
Zn475  N513    2.011   .     S
Zn476  N514    2.011   .     S
C477   C483    1.396   .     A
C477   C481    1.400   .     A
C478   C482    1.401   .     A
C478   C484    1.393   .     A
C479   C487    1.402   .     A
C479   C481    1.391   .     A
C479   H497    1.083   .     S
C480   C488    1.406   .     A
C480   C482    1.398   .     A
C480   H498    1.083   .     S
C481   H496    1.083   .     S
C482   H495    1.082   .     S
C483   H518    1.080   .     S
C483   C485    1.398   .     A
C484   H517    1.081   .     S
C484   C486    1.395   .     A
C485   C489    1.419   .     A
C485   C487    1.416   .     A
C486   C488    1.412   .     A
C486   C490    1.414   .     A
C487   C1087   1.389   .     S
C488   C1088   1.394   1_554 S
C489   C492    1.429   .     A
C489   C1084   1.413   .     S
C490   C491    1.427   .     A
C490   C1083   1.413   1_554 S
C491   C493    1.395   .     A
C491   N519    1.437   .     S
C492   C494    1.402   .     A
C492   N522    1.439   .     S
C493   H515    1.081   .     S
C493   C1081   1.389   1_554 S
C494   H516    1.084   .     S
C494   C1082   1.394   .     S
C499   C506    1.397   .     A
C499   H501    1.084   .     S
C499   C107    1.370   1_565 S
C500   C505    1.397   .     A
C500   H502    1.084   .     S
C503   C505    1.397   .     A
C503   H525    1.084   .     S
C504   C506    1.397   .     A
C504   H526    1.084   .     S
C504   C104    1.370   1_565 S
C507   N514    1.367   .     A
C507   H527    1.081   .     S
C507   C575    1.416   .     S
C508   H528    1.081   .     S
C508   N513    1.367   .     A
C509   H511    1.081   .     S
C509   N513    1.367   .     A
C510   H512    1.081   .     S
C510   N514    1.367   .     A
C510   C574    1.416   .     S
N519   O520    1.302   .     A
N519   O521    1.301   .     A
N522   O524    1.302   .     A
N522   O523    1.302   .     A
O529   C533    1.284   .     A
O529   Zn541   1.999   .     S
O530   C534    1.284   .     A
O530   Zn542   1.999   .     S
O531   Zn542   2.000   .     S
O531   C533    1.284   .     A
O532   C534    1.284   .     A
O532   Zn541   2.000   .     S
C533   C572    1.419   .     S
C534   C571    1.419   .     S
O535   C539    1.293   .     A
O535   Zn541   1.943   .     S
O536   C540    1.296   .     A
O536   Zn542   1.943   .     S
O537   Zn542   1.908   .     S
O537   C539    1.294   .     A
O538   C540    1.293   .     A
O538   Zn541   1.908   .     S
C539   C543    1.459   .     S
C540   C544    1.463   .     S
Zn541  N579    2.011   .     S
Zn542  N580    2.011   .     S
C543   C549    1.396   .     A
C543   C547    1.400   .     A
C544   C548    1.401   .     A
C544   C550    1.393   .     A
C545   C553    1.402   .     A
C545   C547    1.391   .     A
C545   H563    1.083   .     S
C546   C554    1.406   .     A
C546   C548    1.398   .     A
C546   H564    1.083   .     S
C547   H562    1.083   .     S
C548   H561    1.082   .     S
C549   H584    1.080   .     S
C549   C551    1.398   .     A
C550   H583    1.081   .     S
C550   C552    1.395   .     A
C551   C555    1.419   .     A
C551   C553    1.416   .     A
C552   C554    1.412   .     A
C552   C556    1.414   .     A
C553   C1153   1.389   .     S
C554   C1154   1.394   1_554 S
C555   C558    1.429   .     A
C555   C1150   1.413   .     S
C556   C557    1.427   .     A
C556   C1149   1.413   1_554 S
C557   C559    1.395   .     A
C557   N585    1.437   .     S
C558   C560    1.402   .     A
C558   N588    1.439   .     S
C559   H581    1.081   .     S
C559   C1147   1.389   1_554 S
C560   H582    1.084   .     S
C560   C1148   1.394   .     S
C565   C572    1.397   .     A
C565   H567    1.084   .     S
C565   C173    1.370   1_565 S
C566   C571    1.397   .     A
C566   H568    1.084   .     S
C569   C571    1.397   .     A
C569   H591    1.084   .     S
C570   C572    1.397   .     A
C570   H592    1.084   .     S
C570   C170    1.370   1_565 S
C573   N580    1.367   .     A
C573   H593    1.081   .     S
C573   C443    1.416   1_655 S
C574   H594    1.081   .     S
C574   N579    1.367   .     A
C575   H577    1.081   .     S
C575   N579    1.367   .     A
C576   H578    1.081   .     S
C576   N580    1.367   .     A
C576   C442    1.416   1_655 S
N585   O586    1.302   .     A
N585   O587    1.301   .     A
N588   O590    1.302   .     A
N588   O589    1.302   .     A
O595   C599    1.284   .     A
O595   Zn607   1.999   .     S
O596   C600    1.284   .     A
O596   Zn608   1.999   .     S
O597   Zn608   2.000   .     S
O597   C599    1.284   .     A
O598   C600    1.284   .     A
O598   Zn607   2.000   .     S
C599   C638    1.419   .     S
C600   C637    1.419   .     S
O601   C605    1.293   .     A
O601   Zn607   1.943   .     S
O602   C606    1.296   .     A
O602   Zn608   1.943   .     S
O603   Zn608   1.908   .     S
O603   C605    1.294   .     A
O604   C606    1.293   .     A
O604   Zn607   1.908   .     S
C605   C609    1.459   .     S
C606   C610    1.463   .     S
Zn607  N645    2.011   .     S
Zn608  N646    2.011   .     S
C609   C615    1.396   .     A
C609   C613    1.400   .     A
C610   C614    1.401   .     A
C610   C616    1.393   .     A
C611   C619    1.402   .     A
C611   C613    1.391   .     A
C611   H629    1.083   .     S
C612   C620    1.406   .     A
C612   C614    1.398   .     A
C612   H630    1.083   .     S
C613   H628    1.083   .     S
C614   H627    1.082   .     S
C615   H650    1.080   .     S
C615   C617    1.398   .     A
C616   H649    1.081   .     S
C616   C618    1.395   .     A
C617   C621    1.419   .     A
C617   C619    1.416   .     A
C618   C620    1.412   .     A
C618   C622    1.414   .     A
C619   C31     1.389   1_556 S
C621   C624    1.429   .     A
C621   C28     1.413   1_556 S
C622   C623    1.427   .     A
C623   C625    1.395   .     A
C623   N651    1.437   .     S
C624   C626    1.402   .     A
C624   N654    1.439   .     S
C625   H647    1.081   .     S
C626   H648    1.084   .     S
C626   C26     1.394   1_556 S
C631   C638    1.397   .     A
C631   H633    1.084   .     S
C631   C833    1.370   .     S
C632   C637    1.397   .     A
C632   H634    1.084   .     S
C632   C1032   1.370   1_545 S
C635   C637    1.397   .     A
C635   H657    1.084   .     S
C635   C1027   1.370   1_545 S
C636   C638    1.397   .     A
C636   H658    1.084   .     S
C636   C830    1.370   .     S
C639   N646    1.367   .     A
C639   H659    1.081   .     S
C639   C707    1.416   .     S
C640   H660    1.081   .     S
C640   N645    1.367   .     A
C640   C774    1.416   1_455 S
C641   H643    1.081   .     S
C641   N645    1.367   .     A
C641   C771    1.416   1_455 S
C642   H644    1.081   .     S
C642   N646    1.367   .     A
C642   C706    1.416   .     S
N651   O652    1.302   .     A
N651   O653    1.301   .     A
N654   O656    1.302   .     A
N654   O655    1.302   .     A
O661   C665    1.284   .     A
O661   Zn673   1.999   .     S
O662   C666    1.284   .     A
O662   Zn674   1.999   .     S
O663   Zn674   2.000   .     S
O663   C665    1.284   .     A
O664   C666    1.284   .     A
O664   Zn673   2.000   .     S
C665   C704    1.419   .     S
C666   C703    1.419   .     S
O667   C671    1.293   .     A
O667   Zn673   1.943   .     S
O668   C672    1.296   .     A
O668   Zn674   1.943   .     S
O669   Zn674   1.908   .     S
O669   C671    1.294   .     A
O670   C672    1.293   .     A
O670   Zn673   1.908   .     S
C671   C675    1.459   .     S
C672   C676    1.463   .     S
Zn673  N711    2.011   .     S
Zn674  N712    2.011   .     S
C675   C681    1.396   .     A
C675   C679    1.400   .     A
C676   C680    1.401   .     A
C676   C682    1.393   .     A
C677   C685    1.402   .     A
C677   C679    1.391   .     A
C677   H695    1.083   .     S
C678   C686    1.406   .     A
C678   C680    1.398   .     A
C678   H696    1.083   .     S
C679   H694    1.083   .     S
C680   H693    1.082   .     S
C681   H716    1.080   .     S
C681   C683    1.398   .     A
C682   H715    1.081   .     S
C682   C684    1.395   .     A
C683   C687    1.419   .     A
C683   C685    1.416   .     A
C684   C686    1.412   .     A
C684   C688    1.414   .     A
C685   C97     1.389   1_556 S
C687   C690    1.429   .     A
C687   C94     1.413   1_556 S
C688   C689    1.427   .     A
C689   C691    1.395   .     A
C689   N717    1.437   .     S
C690   C692    1.402   .     A
C690   N720    1.439   .     S
C691   H713    1.081   .     S
C692   H714    1.084   .     S
C692   C92     1.394   1_556 S
C697   C704    1.397   .     A
C697   H699    1.084   .     S
C697   C899    1.370   .     S
C698   C703    1.397   .     A
C698   H700    1.084   .     S
C698   C1098   1.370   1_545 S
C701   C703    1.397   .     A
C701   H723    1.084   .     S
C701   C1093   1.370   1_545 S
C702   C704    1.397   .     A
C702   H724    1.084   .     S
C702   C896    1.370   .     S
C705   N712    1.367   .     A
C705   H725    1.081   .     S
C705   C773    1.416   .     S
C706   H726    1.081   .     S
C706   N711    1.367   .     A
C707   H709    1.081   .     S
C707   N711    1.367   .     A
C708   H710    1.081   .     S
C708   N712    1.367   .     A
C708   C772    1.416   .     S
N717   O718    1.302   .     A
N717   O719    1.301   .     A
N720   O722    1.302   .     A
N720   O721    1.302   .     A
O727   C731    1.284   .     A
O727   Zn739   1.999   .     S
O728   C732    1.284   .     A
O728   Zn740   1.999   .     S
O729   Zn740   2.000   .     S
O729   C731    1.284   .     A
O730   C732    1.284   .     A
O730   Zn739   2.000   .     S
C731   C770    1.419   .     S
C732   C769    1.419   .     S
O733   C737    1.293   .     A
O733   Zn739   1.943   .     S
O734   C738    1.296   .     A
O734   Zn740   1.943   .     S
O735   Zn740   1.908   .     S
O735   C737    1.294   .     A
O736   C738    1.293   .     A
O736   Zn739   1.908   .     S
C737   C741    1.459   .     S
C738   C742    1.463   .     S
Zn739  N777    2.011   .     S
Zn740  N778    2.011   .     S
C741   C747    1.396   .     A
C741   C745    1.400   .     A
C742   C746    1.401   .     A
C742   C748    1.393   .     A
C743   C751    1.402   .     A
C743   C745    1.391   .     A
C743   H761    1.083   .     S
C744   C752    1.406   .     A
C744   C746    1.398   .     A
C744   H762    1.083   .     S
C745   H760    1.083   .     S
C746   H759    1.082   .     S
C747   H782    1.080   .     S
C747   C749    1.398   .     A
C748   H781    1.081   .     S
C748   C750    1.395   .     A
C749   C753    1.419   .     A
C749   C751    1.416   .     A
C750   C752    1.412   .     A
C750   C754    1.414   .     A
C751   C163    1.389   1_556 S
C753   C756    1.429   .     A
C753   C160    1.413   1_556 S
C754   C755    1.427   .     A
C755   C757    1.395   .     A
C755   N783    1.437   .     S
C756   C758    1.402   .     A
C756   N786    1.439   .     S
C757   H779    1.081   .     S
C758   H780    1.084   .     S
C758   C158    1.394   1_556 S
C763   C770    1.397   .     A
C763   H765    1.084   .     S
C763   C965    1.370   .     S
C764   C769    1.397   .     A
C764   H766    1.084   .     S
C764   C1164   1.370   1_545 S
C767   C769    1.397   .     A
C767   H789    1.084   .     S
C767   C1159   1.370   1_545 S
C768   C770    1.397   .     A
C768   H790    1.084   .     S
C768   C962    1.370   .     S
C771   N778    1.367   .     A
C771   H791    1.081   .     S
C771   C641    1.416   1_655 S
C772   H792    1.081   .     S
C772   N777    1.367   .     A
C773   H775    1.081   .     S
C773   N777    1.367   .     A
C774   H776    1.081   .     S
C774   N778    1.367   .     A
C774   C640    1.416   1_655 S
N783   O784    1.302   .     A
N783   O785    1.301   .     A
N786   O788    1.302   .     A
N786   O787    1.302   .     A
O793   C797    1.284   .     A
O793   Zn805   1.999   .     S
O794   C798    1.284   .     A
O794   Zn806   1.999   .     S
O795   Zn806   2.000   .     S
O795   C797    1.284   .     A
O796   C798    1.284   .     A
O796   Zn805   2.000   .     S
C797   C836    1.419   .     S
C798   C835    1.419   .     S
O799   C803    1.293   .     A
O799   Zn805   1.943   .     S
O800   C804    1.296   .     A
O800   Zn806   1.943   .     S
O801   Zn806   1.908   .     S
O801   C803    1.294   .     A
O802   C804    1.293   .     A
O802   Zn805   1.908   .     S
C803   C807    1.459   .     S
C804   C808    1.463   .     S
Zn805  N843    2.011   .     S
Zn806  N844    2.011   .     S
C807   C813    1.396   .     A
C807   C811    1.400   .     A
C808   C812    1.401   .     A
C808   C814    1.393   .     A
C809   C817    1.402   .     A
C809   C811    1.391   .     A
C809   H827    1.083   .     S
C810   C818    1.406   .     A
C810   C812    1.398   .     A
C810   H828    1.083   .     S
C811   H826    1.083   .     S
C812   H825    1.082   .     S
C813   H848    1.080   .     S
C813   C815    1.398   .     A
C814   H847    1.081   .     S
C814   C816    1.395   .     A
C815   C819    1.419   .     A
C815   C817    1.416   .     A
C816   C818    1.412   .     A
C816   C820    1.414   .     A
C817   C229    1.389   1_556 S
C819   C822    1.429   .     A
C819   C226    1.413   1_556 S
C820   C821    1.427   .     A
C821   C823    1.395   .     A
C821   N849    1.437   .     S
C822   C824    1.402   .     A
C822   N852    1.439   .     S
C823   H845    1.081   .     S
C824   H846    1.084   .     S
C824   C224    1.394   1_556 S
C829   C836    1.397   .     A
C829   H831    1.084   .     S
C829   C1031   1.370   .     S
C830   C835    1.397   .     A
C830   H832    1.084   .     S
C833   C835    1.397   .     A
C833   H855    1.084   .     S
C834   C836    1.397   .     A
C834   H856    1.084   .     S
C834   C1028   1.370   .     S
C837   N844    1.367   .     A
C837   H857    1.081   .     S
C837   C905    1.416   .     S
C838   H858    1.081   .     S
C838   N843    1.367   .     A
C838   C972    1.416   1_455 S
C839   H841    1.081   .     S
C839   N843    1.367   .     A
C839   C969    1.416   1_455 S
C840   H842    1.081   .     S
C840   N844    1.367   .     A
C840   C904    1.416   .     S
N849   O850    1.302   .     A
N849   O851    1.301   .     A
N852   O854    1.302   .     A
N852   O853    1.302   .     A
O859   C863    1.284   .     A
O859   Zn871   1.999   .     S
O860   C864    1.284   .     A
O860   Zn872   1.999   .     S
O861   Zn872   2.000   .     S
O861   C863    1.284   .     A
O862   C864    1.284   .     A
O862   Zn871   2.000   .     S
C863   C902    1.419   .     S
C864   C901    1.419   .     S
O865   C869    1.293   .     A
O865   Zn871   1.943   .     S
O866   C870    1.296   .     A
O866   Zn872   1.943   .     S
O867   Zn872   1.908   .     S
O867   C869    1.294   .     A
O868   C870    1.293   .     A
O868   Zn871   1.908   .     S
C869   C873    1.459   .     S
C870   C874    1.463   .     S
Zn871  N909    2.011   .     S
Zn872  N910    2.011   .     S
C873   C879    1.396   .     A
C873   C877    1.400   .     A
C874   C878    1.401   .     A
C874   C880    1.393   .     A
C875   C883    1.402   .     A
C875   C877    1.391   .     A
C875   H893    1.083   .     S
C876   C884    1.406   .     A
C876   C878    1.398   .     A
C876   H894    1.083   .     S
C877   H892    1.083   .     S
C878   H891    1.082   .     S
C879   H914    1.080   .     S
C879   C881    1.398   .     A
C880   H913    1.081   .     S
C880   C882    1.395   .     A
C881   C885    1.419   .     A
C881   C883    1.416   .     A
C882   C884    1.412   .     A
C882   C886    1.414   .     A
C883   C295    1.389   1_556 S
C885   C888    1.429   .     A
C885   C292    1.413   1_556 S
C886   C887    1.427   .     A
C887   C889    1.395   .     A
C887   N915    1.437   .     S
C888   C890    1.402   .     A
C888   N918    1.439   .     S
C889   H911    1.081   .     S
C890   H912    1.084   .     S
C890   C290    1.394   1_556 S
C895   C902    1.397   .     A
C895   H897    1.084   .     S
C895   C1097   1.370   .     S
C896   C901    1.397   .     A
C896   H898    1.084   .     S
C899   C901    1.397   .     A
C899   H921    1.084   .     S
C900   C902    1.397   .     A
C900   H922    1.084   .     S
C900   C1094   1.370   .     S
C903   N910    1.367   .     A
C903   H923    1.081   .     S
C903   C971    1.416   .     S
C904   H924    1.081   .     S
C904   N909    1.367   .     A
C905   H907    1.081   .     S
C905   N909    1.367   .     A
C906   H908    1.081   .     S
C906   N910    1.367   .     A
C906   C970    1.416   .     S
N915   O916    1.302   .     A
N915   O917    1.301   .     A
N918   O920    1.302   .     A
N918   O919    1.302   .     A
O925   C929    1.284   .     A
O925   Zn937   1.999   .     S
O926   C930    1.284   .     A
O926   Zn938   1.999   .     S
O927   Zn938   2.000   .     S
O927   C929    1.284   .     A
O928   C930    1.284   .     A
O928   Zn937   2.000   .     S
C929   C968    1.419   .     S
C930   C967    1.419   .     S
O931   C935    1.293   .     A
O931   Zn937   1.943   .     S
O932   C936    1.296   .     A
O932   Zn938   1.943   .     S
O933   Zn938   1.908   .     S
O933   C935    1.294   .     A
O934   C936    1.293   .     A
O934   Zn937   1.908   .     S
C935   C939    1.459   .     S
C936   C940    1.463   .     S
Zn937  N975    2.011   .     S
Zn938  N976    2.011   .     S
C939   C945    1.396   .     A
C939   C943    1.400   .     A
C940   C944    1.401   .     A
C940   C946    1.393   .     A
C941   C949    1.402   .     A
C941   C943    1.391   .     A
C941   H959    1.083   .     S
C942   C950    1.406   .     A
C942   C944    1.398   .     A
C942   H960    1.083   .     S
C943   H958    1.083   .     S
C944   H957    1.082   .     S
C945   H980    1.080   .     S
C945   C947    1.398   .     A
C946   H979    1.081   .     S
C946   C948    1.395   .     A
C947   C951    1.419   .     A
C947   C949    1.416   .     A
C948   C950    1.412   .     A
C948   C952    1.414   .     A
C949   C361    1.389   1_556 S
C951   C954    1.429   .     A
C951   C358    1.413   1_556 S
C952   C953    1.427   .     A
C953   C955    1.395   .     A
C953   N981    1.437   .     S
C954   C956    1.402   .     A
C954   N984    1.439   .     S
C955   H977    1.081   .     S
C956   H978    1.084   .     S
C956   C356    1.394   1_556 S
C961   C968    1.397   .     A
C961   H963    1.084   .     S
C961   C1163   1.370   .     S
C962   C967    1.397   .     A
C962   H964    1.084   .     S
C965   C967    1.397   .     A
C965   H987    1.084   .     S
C966   C968    1.397   .     A
C966   H988    1.084   .     S
C966   C1160   1.370   .     S
C969   N976    1.367   .     A
C969   H989    1.081   .     S
C969   C839    1.416   1_655 S
C970   H990    1.081   .     S
C970   N975    1.367   .     A
C971   H973    1.081   .     S
C971   N975    1.367   .     A
C972   H974    1.081   .     S
C972   N976    1.367   .     A
C972   C838    1.416   1_655 S
N981   O982    1.302   .     A
N981   O983    1.301   .     A
N984   O986    1.302   .     A
N984   O985    1.302   .     A
O991   C995    1.284   .     A
O991   Zn1003  1.999   .     S
O992   C996    1.284   .     A
O992   Zn1004  1.999   .     S
O993   Zn1004  2.000   .     S
O993   C995    1.284   .     A
O994   C996    1.284   .     A
O994   Zn1003  2.000   .     S
C995   C1034   1.419   .     S
C996   C1033   1.419   .     S
O997   C1001   1.293   .     A
O997   Zn1003  1.943   .     S
O998   C1002   1.296   .     A
O998   Zn1004  1.943   .     S
O999   Zn1004  1.908   .     S
O999   C1001   1.294   .     A
O1000  C1002   1.293   .     A
O1000  Zn1003  1.908   .     S
C1001  C1005   1.459   .     S
C1002  C1006   1.463   .     S
Zn1003 N1041   2.011   .     S
Zn1004 N1042   2.011   .     S
C1005  C1011   1.396   .     A
C1005  C1009   1.400   .     A
C1006  C1010   1.401   .     A
C1006  C1012   1.393   .     A
C1007  C1015   1.402   .     A
C1007  C1009   1.391   .     A
C1007  H1025   1.083   .     S
C1008  C1016   1.406   .     A
C1008  C1010   1.398   .     A
C1008  H1026   1.083   .     S
C1009  H1024   1.083   .     S
C1010  H1023   1.082   .     S
C1011  H1046   1.080   .     S
C1011  C1013   1.398   .     A
C1012  H1045   1.081   .     S
C1012  C1014   1.395   .     A
C1013  C1017   1.419   .     A
C1013  C1015   1.416   .     A
C1014  C1016   1.412   .     A
C1014  C1018   1.414   .     A
C1015  C427    1.389   1_556 S
C1017  C1020   1.429   .     A
C1017  C424    1.413   1_556 S
C1018  C1019   1.427   .     A
C1019  C1021   1.395   .     A
C1019  N1047   1.437   .     S
C1020  C1022   1.402   .     A
C1020  N1050   1.439   .     S
C1021  H1043   1.081   .     S
C1022  H1044   1.084   .     S
C1022  C422    1.394   1_556 S
C1027  C1034   1.397   .     A
C1027  H1029   1.084   .     S
C1027  C635    1.370   1_565 S
C1028  C1033   1.397   .     A
C1028  H1030   1.084   .     S
C1031  C1033   1.397   .     A
C1031  H1053   1.084   .     S
C1032  C1034   1.397   .     A
C1032  H1054   1.084   .     S
C1032  C632    1.370   1_565 S
C1035  N1042   1.367   .     A
C1035  H1055   1.081   .     S
C1035  C1103   1.416   .     S
C1036  H1056   1.081   .     S
C1036  N1041   1.367   .     A
C1036  C1170   1.416   1_455 S
C1037  H1039   1.081   .     S
C1037  N1041   1.367   .     A
C1037  C1167   1.416   1_455 S
C1038  H1040   1.081   .     S
C1038  N1042   1.367   .     A
C1038  C1102   1.416   .     S
N1047  O1048   1.302   .     A
N1047  O1049   1.301   .     A
N1050  O1052   1.302   .     A
N1050  O1051   1.302   .     A
O1057  C1061   1.284   .     A
O1057  Zn1069  1.999   .     S
O1058  C1062   1.284   .     A
O1058  Zn1070  1.999   .     S
O1059  Zn1070  2.000   .     S
O1059  C1061   1.284   .     A
O1060  C1062   1.284   .     A
O1060  Zn1069  2.000   .     S
C1061  C1100   1.419   .     S
C1062  C1099   1.419   .     S
O1063  C1067   1.293   .     A
O1063  Zn1069  1.943   .     S
O1064  C1068   1.296   .     A
O1064  Zn1070  1.943   .     S
O1065  Zn1070  1.908   .     S
O1065  C1067   1.294   .     A
O1066  C1068   1.293   .     A
O1066  Zn1069  1.908   .     S
C1067  C1071   1.459   .     S
C1068  C1072   1.463   .     S
Zn1069 N1107   2.011   .     S
Zn1070 N1108   2.011   .     S
C1071  C1077   1.396   .     A
C1071  C1075   1.400   .     A
C1072  C1076   1.401   .     A
C1072  C1078   1.393   .     A
C1073  C1081   1.402   .     A
C1073  C1075   1.391   .     A
C1073  H1091   1.083   .     S
C1074  C1082   1.406   .     A
C1074  C1076   1.398   .     A
C1074  H1092   1.083   .     S
C1075  H1090   1.083   .     S
C1076  H1089   1.082   .     S
C1077  H1112   1.080   .     S
C1077  C1079   1.398   .     A
C1078  H1111   1.081   .     S
C1078  C1080   1.395   .     A
C1079  C1083   1.419   .     A
C1079  C1081   1.416   .     A
C1080  C1082   1.412   .     A
C1080  C1084   1.414   .     A
C1081  C493    1.389   1_556 S
C1083  C1086   1.429   .     A
C1083  C490    1.413   1_556 S
C1084  C1085   1.427   .     A
C1085  C1087   1.395   .     A
C1085  N1113   1.437   .     S
C1086  C1088   1.402   .     A
C1086  N1116   1.439   .     S
C1087  H1109   1.081   .     S
C1088  H1110   1.084   .     S
C1088  C488    1.394   1_556 S
C1093  C1100   1.397   .     A
C1093  H1095   1.084   .     S
C1093  C701    1.370   1_565 S
C1094  C1099   1.397   .     A
C1094  H1096   1.084   .     S
C1097  C1099   1.397   .     A
C1097  H1119   1.084   .     S
C1098  C1100   1.397   .     A
C1098  H1120   1.084   .     S
C1098  C698    1.370   1_565 S
C1101  N1108   1.367   .     A
C1101  H1121   1.081   .     S
C1101  C1169   1.416   .     S
C1102  H1122   1.081   .     S
C1102  N1107   1.367   .     A
C1103  H1105   1.081   .     S
C1103  N1107   1.367   .     A
C1104  H1106   1.081   .     S
C1104  N1108   1.367   .     A
C1104  C1168   1.416   .     S
N1113  O1114   1.302   .     A
N1113  O1115   1.301   .     A
N1116  O1118   1.302   .     A
N1116  O1117   1.302   .     A
O1123  C1127   1.284   .     A
O1123  Zn1135  1.999   .     S
O1124  C1128   1.284   .     A
O1124  Zn1136  1.999   .     S
O1125  Zn1136  2.000   .     S
O1125  C1127   1.284   .     A
O1126  C1128   1.284   .     A
O1126  Zn1135  2.000   .     S
C1127  C1166   1.419   .     S
C1128  C1165   1.419   .     S
O1129  C1133   1.293   .     A
O1129  Zn1135  1.943   .     S
O1130  C1134   1.296   .     A
O1130  Zn1136  1.943   .     S
O1131  Zn1136  1.908   .     S
O1131  C1133   1.294   .     A
O1132  C1134   1.293   .     A
O1132  Zn1135  1.908   .     S
C1133  C1137   1.459   .     S
C1134  C1138   1.463   .     S
Zn1135 N1173   2.011   .     S
Zn1136 N1174   2.011   .     S
C1137  C1143   1.396   .     A
C1137  C1141   1.400   .     A
C1138  C1142   1.401   .     A
C1138  C1144   1.393   .     A
C1139  C1147   1.402   .     A
C1139  C1141   1.391   .     A
C1139  H1157   1.083   .     S
C1140  C1148   1.406   .     A
C1140  C1142   1.398   .     A
C1140  H1158   1.083   .     S
C1141  H1156   1.083   .     S
C1142  H1155   1.082   .     S
C1143  H1178   1.080   .     S
C1143  C1145   1.398   .     A
C1144  H1177   1.081   .     S
C1144  C1146   1.395   .     A
C1145  C1149   1.419   .     A
C1145  C1147   1.416   .     A
C1146  C1148   1.412   .     A
C1146  C1150   1.414   .     A
C1147  C559    1.389   1_556 S
C1149  C1152   1.429   .     A
C1149  C556    1.413   1_556 S
C1150  C1151   1.427   .     A
C1151  C1153   1.395   .     A
C1151  N1179   1.437   .     S
C1152  C1154   1.402   .     A
C1152  N1182   1.439   .     S
C1153  H1175   1.081   .     S
C1154  H1176   1.084   .     S
C1154  C554    1.394   1_556 S
C1159  C1166   1.397   .     A
C1159  H1161   1.084   .     S
C1159  C767    1.370   1_565 S
C1160  C1165   1.397   .     A
C1160  H1162   1.084   .     S
C1163  C1165   1.397   .     A
C1163  H1185   1.084   .     S
C1164  C1166   1.397   .     A
C1164  H1186   1.084   .     S
C1164  C764    1.370   1_565 S
C1167  N1174   1.367   .     A
C1167  H1187   1.081   .     S
C1167  C1037   1.416   1_655 S
C1168  H1188   1.081   .     S
C1168  N1173   1.367   .     A
C1169  H1171   1.081   .     S
C1169  N1173   1.367   .     A
C1170  H1172   1.081   .     S
C1170  N1174   1.367   .     A
C1170  C1036   1.416   1_655 S
N1179  O1180   1.302   .     A
N1179  O1181   1.301   .     A
N1182  O1184   1.302   .     A
N1182  O1183   1.302   .     A
