data_str_m3_o1_o10_pcu_sym.116
_audit_creation_date              2020-01-03
_audit_creation_method            'Materials Studio'
_symmetry_space_group_name_H-M    'P1'
_symmetry_Int_Tables_number       1
_symmetry_cell_setting            triclinic
loop_
_symmetry_equiv_pos_as_xyz
  x,y,z
_cell_length_a                    25.8599
_cell_length_b                    32.2882
_cell_length_c                    29.9088
_cell_angle_alpha                 90.2062
_cell_angle_beta                  98.0678
_cell_angle_gamma                 92.7849
loop_
_atom_site_label
_atom_site_type_symbol
_atom_site_fract_x
_atom_site_fract_y
_atom_site_fract_z
_atom_site_U_iso_or_equiv
_atom_site_adp_type
_atom_site_occupancy
O1     O     0.16666   0.10558   0.20487   0.00000  Uiso   1.00
O2     O     0.16667   0.22775   0.12846   0.00000  Uiso   1.00
O3     O     0.16666   0.10559   0.12843   0.00000  Uiso   1.00
O4     O     0.16667   0.22774   0.20490   0.00000  Uiso   1.00
C5     C     0.16841   0.08684   0.16659   0.00000  Uiso   1.00
C6     C     0.16492   0.24649   0.16674   0.00000  Uiso   1.00
O7     O     0.09058   0.16666   0.19595   0.00000  Uiso   1.00
O8     O     0.24275   0.16667   0.13739   0.00000  Uiso   1.00
O9     O     0.09058   0.16667   0.11950   0.00000  Uiso   1.00
O10    O     0.24275   0.16666   0.21383   0.00000  Uiso   1.00
C11    C     0.06733   0.16619   0.15509   0.00000  Uiso   1.00
C12    C     0.26600   0.16714   0.17824   0.00000  Uiso   1.00
Zn13   Zn    0.16667   0.16666   0.21771   0.00000  Uiso   1.00
Zn14   Zn    0.16667   0.16667   0.11563   0.00000  Uiso   1.00
N15    N     0.16665   0.16666   0.28573   0.00000  Uiso   1.00
N16    N     0.16668   0.16668   0.04760   0.00000  Uiso   1.00
C17    C     0.01267   0.15910   0.15049   0.00000  Uiso   1.00
C18    C     0.32066   0.17423   0.18284   0.00000  Uiso   1.00
C19    C     0.18447   0.02068   0.12983   0.00000  Uiso   1.00
C20    C     0.14886   0.31265   0.20350   0.00000  Uiso   1.00
C21    C     0.18090   0.31156   0.13059   0.00000  Uiso   1.00
C22    C     0.15243   0.02177   0.20275   0.00000  Uiso   1.00
H23    H     0.19229   0.29496   0.10247   0.00000  Uiso   1.00
H24    H     0.14104   0.03837   0.23086   0.00000  Uiso   1.00
C25    C     0.16406   0.29069   0.16714   0.00000  Uiso   1.00
C26    C     0.16928   0.04265   0.16619   0.00000  Uiso   1.00
C27    C     0.20072   0.19264   0.02808   0.00000  Uiso   1.00
C28    C     0.13261   0.14069   0.30525   0.00000  Uiso   1.00
C29    C     0.20040   0.19284   0.31364   0.00000  Uiso   1.00
C30    C     0.13293   0.14049   0.01970   0.00000  Uiso   1.00
N31    N     0.32295   0.12723   0.11935   0.00000  Uiso   1.00
O32    O     0.30752   0.13627   0.07741   0.00000  Uiso   1.00
O33    O     0.32557   0.08862   0.13129   0.00000  Uiso   1.00
N34    N     0.01038   0.20610   0.21398   0.00000  Uiso   1.00
O35    O     0.02582   0.19707   0.25592   0.00000  Uiso   1.00
O36    O     0.00777   0.24471   0.20204   0.00000  Uiso   1.00
I37    I     0.21648   0.04606   0.07322   0.00000  Uiso   1.00
I38    I     0.11686   0.28727   0.26012   0.00000  Uiso   1.00
I39    I     0.25631   0.23289   0.06906   0.00000  Uiso   1.00
I40    I     0.07703   0.10044   0.26427   0.00000  Uiso   1.00
I41    I     0.25253   0.23556   0.28582   0.00000  Uiso   1.00
I42    I     0.08081   0.09777   0.04752   0.00000  Uiso   1.00
O43    O     0.50000   0.10558   0.20487   0.00000  Uiso   1.00
O44    O     0.50000   0.22775   0.12846   0.00000  Uiso   1.00
O45    O     0.50000   0.10559   0.12843   0.00000  Uiso   1.00
O46    O     0.50000   0.22774   0.20490   0.00000  Uiso   1.00
C47    C     0.50175   0.08684   0.16659   0.00000  Uiso   1.00
C48    C     0.49825   0.24649   0.16674   0.00000  Uiso   1.00
O49    O     0.42392   0.16666   0.19595   0.00000  Uiso   1.00
O50    O     0.57608   0.16667   0.13739   0.00000  Uiso   1.00
O51    O     0.42392   0.16667   0.11950   0.00000  Uiso   1.00
O52    O     0.57608   0.16666   0.21383   0.00000  Uiso   1.00
C53    C     0.40066   0.16619   0.15509   0.00000  Uiso   1.00
C54    C     0.59934   0.16714   0.17824   0.00000  Uiso   1.00
Zn55   Zn    0.50000   0.16666   0.21771   0.00000  Uiso   1.00
Zn56   Zn    0.50000   0.16667   0.11563   0.00000  Uiso   1.00
N57    N     0.49999   0.16666   0.28573   0.00000  Uiso   1.00
N58    N     0.50001   0.16668   0.04760   0.00000  Uiso   1.00
C59    C     0.34601   0.15910   0.15049   0.00000  Uiso   1.00
C60    C     0.65399   0.17423   0.18284   0.00000  Uiso   1.00
C61    C     0.51781   0.02068   0.12983   0.00000  Uiso   1.00
C62    C     0.48219   0.31265   0.20350   0.00000  Uiso   1.00
C63    C     0.51423   0.31156   0.13059   0.00000  Uiso   1.00
C64    C     0.48577   0.02177   0.20275   0.00000  Uiso   1.00
H65    H     0.52562   0.29496   0.10247   0.00000  Uiso   1.00
H66    H     0.47438   0.03837   0.23086   0.00000  Uiso   1.00
C67    C     0.49739   0.29069   0.16714   0.00000  Uiso   1.00
C68    C     0.50261   0.04265   0.16619   0.00000  Uiso   1.00
C69    C     0.53406   0.19264   0.02808   0.00000  Uiso   1.00
C70    C     0.46594   0.14069   0.30525   0.00000  Uiso   1.00
C71    C     0.53374   0.19284   0.31364   0.00000  Uiso   1.00
C72    C     0.46627   0.14049   0.01970   0.00000  Uiso   1.00
N73    N     0.65629   0.12723   0.11935   0.00000  Uiso   1.00
O74    O     0.64085   0.13627   0.07741   0.00000  Uiso   1.00
O75    O     0.65890   0.08862   0.13129   0.00000  Uiso   1.00
N76    N     0.34372   0.20610   0.21398   0.00000  Uiso   1.00
O77    O     0.35915   0.19707   0.25592   0.00000  Uiso   1.00
O78    O     0.34110   0.24471   0.20204   0.00000  Uiso   1.00
I79    I     0.54981   0.04606   0.07322   0.00000  Uiso   1.00
I80    I     0.45019   0.28727   0.26012   0.00000  Uiso   1.00
I81    I     0.58964   0.23289   0.06906   0.00000  Uiso   1.00
I82    I     0.41036   0.10044   0.26427   0.00000  Uiso   1.00
I83    I     0.58586   0.23556   0.28582   0.00000  Uiso   1.00
I84    I     0.41414   0.09777   0.04752   0.00000  Uiso   1.00
O85    O     0.83333   0.10558   0.20487   0.00000  Uiso   1.00
O86    O     0.83334   0.22775   0.12846   0.00000  Uiso   1.00
O87    O     0.83333   0.10559   0.12843   0.00000  Uiso   1.00
O88    O     0.83334   0.22774   0.20490   0.00000  Uiso   1.00
C89    C     0.83508   0.08684   0.16659   0.00000  Uiso   1.00
C90    C     0.83159   0.24649   0.16674   0.00000  Uiso   1.00
O91    O     0.75725   0.16666   0.19595   0.00000  Uiso   1.00
O92    O     0.90942   0.16667   0.13739   0.00000  Uiso   1.00
O93    O     0.75725   0.16667   0.11950   0.00000  Uiso   1.00
O94    O     0.90942   0.16666   0.21383   0.00000  Uiso   1.00
C95    C     0.73400   0.16619   0.15509   0.00000  Uiso   1.00
C96    C     0.93267   0.16714   0.17824   0.00000  Uiso   1.00
Zn97   Zn    0.83333   0.16666   0.21771   0.00000  Uiso   1.00
Zn98   Zn    0.83333   0.16667   0.11563   0.00000  Uiso   1.00
N99    N     0.83332   0.16666   0.28573   0.00000  Uiso   1.00
N100   N     0.83335   0.16668   0.04760   0.00000  Uiso   1.00
C101   C     0.67934   0.15910   0.15049   0.00000  Uiso   1.00
C102   C     0.98733   0.17423   0.18284   0.00000  Uiso   1.00
C103   C     0.85114   0.02068   0.12983   0.00000  Uiso   1.00
C104   C     0.81553   0.31265   0.20350   0.00000  Uiso   1.00
C105   C     0.84757   0.31156   0.13059   0.00000  Uiso   1.00
C106   C     0.81910   0.02177   0.20275   0.00000  Uiso   1.00
H107   H     0.85896   0.29496   0.10247   0.00000  Uiso   1.00
H108   H     0.80771   0.03837   0.23086   0.00000  Uiso   1.00
C109   C     0.83072   0.29069   0.16714   0.00000  Uiso   1.00
C110   C     0.83594   0.04265   0.16619   0.00000  Uiso   1.00
C111   C     0.86739   0.19264   0.02808   0.00000  Uiso   1.00
C112   C     0.79928   0.14069   0.30525   0.00000  Uiso   1.00
C113   C     0.86707   0.19284   0.31364   0.00000  Uiso   1.00
C114   C     0.79960   0.14049   0.01970   0.00000  Uiso   1.00
N115   N     0.98962   0.12723   0.11935   0.00000  Uiso   1.00
O116   O     0.97418   0.13627   0.07741   0.00000  Uiso   1.00
O117   O     0.99223   0.08862   0.13129   0.00000  Uiso   1.00
N118   N     0.67705   0.20610   0.21398   0.00000  Uiso   1.00
O119   O     0.69249   0.19707   0.25592   0.00000  Uiso   1.00
O120   O     0.67444   0.24471   0.20204   0.00000  Uiso   1.00
I121   I     0.88314   0.04606   0.07322   0.00000  Uiso   1.00
I122   I     0.78352   0.28727   0.26012   0.00000  Uiso   1.00
I123   I     0.92297   0.23289   0.06906   0.00000  Uiso   1.00
I124   I     0.74370   0.10044   0.26427   0.00000  Uiso   1.00
I125   I     0.91919   0.23556   0.28582   0.00000  Uiso   1.00
I126   I     0.74747   0.09777   0.04752   0.00000  Uiso   1.00
O127   O     0.16666   0.43892   0.20487   0.00000  Uiso   1.00
O128   O     0.16667   0.56108   0.12846   0.00000  Uiso   1.00
O129   O     0.16666   0.43893   0.12843   0.00000  Uiso   1.00
O130   O     0.16667   0.56107   0.20490   0.00000  Uiso   1.00
C131   C     0.16841   0.42018   0.16659   0.00000  Uiso   1.00
C132   C     0.16492   0.57982   0.16674   0.00000  Uiso   1.00
O133   O     0.09058   0.50000   0.19595   0.00000  Uiso   1.00
O134   O     0.24275   0.50000   0.13739   0.00000  Uiso   1.00
O135   O     0.09058   0.50000   0.11950   0.00000  Uiso   1.00
O136   O     0.24275   0.50000   0.21383   0.00000  Uiso   1.00
C137   C     0.06733   0.49953   0.15509   0.00000  Uiso   1.00
C138   C     0.26600   0.50047   0.17824   0.00000  Uiso   1.00
Zn139  Zn    0.16667   0.49999   0.21771   0.00000  Uiso   1.00
Zn140  Zn    0.16667   0.50001   0.11563   0.00000  Uiso   1.00
N141   N     0.16665   0.49999   0.28573   0.00000  Uiso   1.00
N142   N     0.16668   0.50001   0.04760   0.00000  Uiso   1.00
C143   C     0.01267   0.49244   0.15049   0.00000  Uiso   1.00
C144   C     0.32066   0.50756   0.18284   0.00000  Uiso   1.00
C145   C     0.18447   0.35401   0.12983   0.00000  Uiso   1.00
C146   C     0.14886   0.64598   0.20350   0.00000  Uiso   1.00
C147   C     0.18090   0.64490   0.13059   0.00000  Uiso   1.00
C148   C     0.15243   0.35510   0.20275   0.00000  Uiso   1.00
H149   H     0.19229   0.62830   0.10247   0.00000  Uiso   1.00
H150   H     0.14104   0.37170   0.23086   0.00000  Uiso   1.00
C151   C     0.16406   0.62402   0.16714   0.00000  Uiso   1.00
C152   C     0.16928   0.37598   0.16619   0.00000  Uiso   1.00
C153   C     0.20072   0.52597   0.02808   0.00000  Uiso   1.00
C154   C     0.13261   0.47403   0.30525   0.00000  Uiso   1.00
C155   C     0.20040   0.52618   0.31364   0.00000  Uiso   1.00
C156   C     0.13293   0.47382   0.01970   0.00000  Uiso   1.00
N157   N     0.32295   0.46057   0.11935   0.00000  Uiso   1.00
O158   O     0.30752   0.46960   0.07741   0.00000  Uiso   1.00
O159   O     0.32557   0.42195   0.13129   0.00000  Uiso   1.00
N160   N     0.01038   0.53943   0.21398   0.00000  Uiso   1.00
O161   O     0.02582   0.53040   0.25592   0.00000  Uiso   1.00
O162   O     0.00777   0.57805   0.20204   0.00000  Uiso   1.00
I163   I     0.21648   0.37939   0.07322   0.00000  Uiso   1.00
I164   I     0.11686   0.62061   0.26012   0.00000  Uiso   1.00
I165   I     0.25631   0.56622   0.06906   0.00000  Uiso   1.00
I166   I     0.07703   0.43378   0.26427   0.00000  Uiso   1.00
I167   I     0.25253   0.56890   0.28582   0.00000  Uiso   1.00
I168   I     0.08081   0.43110   0.04752   0.00000  Uiso   1.00
O169   O     0.50000   0.43892   0.20487   0.00000  Uiso   1.00
O170   O     0.50000   0.56108   0.12846   0.00000  Uiso   1.00
O171   O     0.50000   0.43893   0.12843   0.00000  Uiso   1.00
O172   O     0.50000   0.56107   0.20490   0.00000  Uiso   1.00
C173   C     0.50175   0.42018   0.16659   0.00000  Uiso   1.00
C174   C     0.49825   0.57982   0.16674   0.00000  Uiso   1.00
O175   O     0.42392   0.50000   0.19595   0.00000  Uiso   1.00
O176   O     0.57608   0.50000   0.13739   0.00000  Uiso   1.00
O177   O     0.42392   0.50000   0.11950   0.00000  Uiso   1.00
O178   O     0.57608   0.50000   0.21383   0.00000  Uiso   1.00
C179   C     0.40066   0.49953   0.15509   0.00000  Uiso   1.00
C180   C     0.59934   0.50047   0.17824   0.00000  Uiso   1.00
Zn181  Zn    0.50000   0.49999   0.21771   0.00000  Uiso   1.00
Zn182  Zn    0.50000   0.50001   0.11563   0.00000  Uiso   1.00
N183   N     0.49999   0.49999   0.28573   0.00000  Uiso   1.00
N184   N     0.50001   0.50001   0.04760   0.00000  Uiso   1.00
C185   C     0.34601   0.49244   0.15049   0.00000  Uiso   1.00
C186   C     0.65399   0.50756   0.18284   0.00000  Uiso   1.00
C187   C     0.51781   0.35401   0.12983   0.00000  Uiso   1.00
C188   C     0.48219   0.64598   0.20350   0.00000  Uiso   1.00
C189   C     0.51423   0.64490   0.13059   0.00000  Uiso   1.00
C190   C     0.48577   0.35510   0.20275   0.00000  Uiso   1.00
H191   H     0.52562   0.62830   0.10247   0.00000  Uiso   1.00
H192   H     0.47438   0.37170   0.23086   0.00000  Uiso   1.00
C193   C     0.49739   0.62402   0.16714   0.00000  Uiso   1.00
C194   C     0.50261   0.37598   0.16619   0.00000  Uiso   1.00
C195   C     0.53406   0.52597   0.02808   0.00000  Uiso   1.00
C196   C     0.46594   0.47403   0.30525   0.00000  Uiso   1.00
C197   C     0.53374   0.52618   0.31364   0.00000  Uiso   1.00
C198   C     0.46627   0.47382   0.01970   0.00000  Uiso   1.00
N199   N     0.65629   0.46057   0.11935   0.00000  Uiso   1.00
O200   O     0.64085   0.46960   0.07741   0.00000  Uiso   1.00
O201   O     0.65890   0.42195   0.13129   0.00000  Uiso   1.00
N202   N     0.34372   0.53943   0.21398   0.00000  Uiso   1.00
O203   O     0.35915   0.53040   0.25592   0.00000  Uiso   1.00
O204   O     0.34110   0.57805   0.20204   0.00000  Uiso   1.00
I205   I     0.54981   0.37939   0.07322   0.00000  Uiso   1.00
I206   I     0.45019   0.62061   0.26012   0.00000  Uiso   1.00
I207   I     0.58964   0.56622   0.06906   0.00000  Uiso   1.00
I208   I     0.41036   0.43378   0.26427   0.00000  Uiso   1.00
I209   I     0.58586   0.56890   0.28582   0.00000  Uiso   1.00
I210   I     0.41414   0.43110   0.04752   0.00000  Uiso   1.00
O211   O     0.83333   0.43892   0.20487   0.00000  Uiso   1.00
O212   O     0.83334   0.56108   0.12846   0.00000  Uiso   1.00
O213   O     0.83333   0.43893   0.12843   0.00000  Uiso   1.00
O214   O     0.83334   0.56107   0.20490   0.00000  Uiso   1.00
C215   C     0.83508   0.42018   0.16659   0.00000  Uiso   1.00
C216   C     0.83159   0.57982   0.16674   0.00000  Uiso   1.00
O217   O     0.75725   0.50000   0.19595   0.00000  Uiso   1.00
O218   O     0.90942   0.50000   0.13739   0.00000  Uiso   1.00
O219   O     0.75725   0.50000   0.11950   0.00000  Uiso   1.00
O220   O     0.90942   0.50000   0.21383   0.00000  Uiso   1.00
C221   C     0.73400   0.49953   0.15509   0.00000  Uiso   1.00
C222   C     0.93267   0.50047   0.17824   0.00000  Uiso   1.00
Zn223  Zn    0.83333   0.49999   0.21771   0.00000  Uiso   1.00
Zn224  Zn    0.83333   0.50001   0.11563   0.00000  Uiso   1.00
N225   N     0.83332   0.49999   0.28573   0.00000  Uiso   1.00
N226   N     0.83335   0.50001   0.04760   0.00000  Uiso   1.00
C227   C     0.67934   0.49244   0.15049   0.00000  Uiso   1.00
C228   C     0.98733   0.50756   0.18284   0.00000  Uiso   1.00
C229   C     0.85114   0.35401   0.12983   0.00000  Uiso   1.00
C230   C     0.81553   0.64598   0.20350   0.00000  Uiso   1.00
C231   C     0.84757   0.64490   0.13059   0.00000  Uiso   1.00
C232   C     0.81910   0.35510   0.20275   0.00000  Uiso   1.00
H233   H     0.85896   0.62830   0.10247   0.00000  Uiso   1.00
H234   H     0.80771   0.37170   0.23086   0.00000  Uiso   1.00
C235   C     0.83072   0.62402   0.16714   0.00000  Uiso   1.00
C236   C     0.83594   0.37598   0.16619   0.00000  Uiso   1.00
C237   C     0.86739   0.52597   0.02808   0.00000  Uiso   1.00
C238   C     0.79928   0.47403   0.30525   0.00000  Uiso   1.00
C239   C     0.86707   0.52618   0.31364   0.00000  Uiso   1.00
C240   C     0.79960   0.47382   0.01970   0.00000  Uiso   1.00
N241   N     0.98962   0.46057   0.11935   0.00000  Uiso   1.00
O242   O     0.97418   0.46960   0.07741   0.00000  Uiso   1.00
O243   O     0.99223   0.42195   0.13129   0.00000  Uiso   1.00
N244   N     0.67705   0.53943   0.21398   0.00000  Uiso   1.00
O245   O     0.69249   0.53040   0.25592   0.00000  Uiso   1.00
O246   O     0.67444   0.57805   0.20204   0.00000  Uiso   1.00
I247   I     0.88314   0.37939   0.07322   0.00000  Uiso   1.00
I248   I     0.78352   0.62061   0.26012   0.00000  Uiso   1.00
I249   I     0.92297   0.56622   0.06906   0.00000  Uiso   1.00
I250   I     0.74370   0.43378   0.26427   0.00000  Uiso   1.00
I251   I     0.91919   0.56890   0.28582   0.00000  Uiso   1.00
I252   I     0.74747   0.43110   0.04752   0.00000  Uiso   1.00
O253   O     0.16666   0.77225   0.20487   0.00000  Uiso   1.00
O254   O     0.16667   0.89442   0.12846   0.00000  Uiso   1.00
O255   O     0.16666   0.77226   0.12843   0.00000  Uiso   1.00
O256   O     0.16667   0.89441   0.20490   0.00000  Uiso   1.00
C257   C     0.16841   0.75351   0.16659   0.00000  Uiso   1.00
C258   C     0.16492   0.91316   0.16674   0.00000  Uiso   1.00
O259   O     0.09058   0.83333   0.19595   0.00000  Uiso   1.00
O260   O     0.24275   0.83334   0.13739   0.00000  Uiso   1.00
O261   O     0.09058   0.83334   0.11950   0.00000  Uiso   1.00
O262   O     0.24275   0.83333   0.21383   0.00000  Uiso   1.00
C263   C     0.06733   0.83286   0.15509   0.00000  Uiso   1.00
C264   C     0.26600   0.83381   0.17824   0.00000  Uiso   1.00
Zn265  Zn    0.16667   0.83333   0.21771   0.00000  Uiso   1.00
Zn266  Zn    0.16667   0.83334   0.11563   0.00000  Uiso   1.00
N267   N     0.16665   0.83332   0.28573   0.00000  Uiso   1.00
N268   N     0.16668   0.83334   0.04760   0.00000  Uiso   1.00
C269   C     0.01267   0.82577   0.15049   0.00000  Uiso   1.00
C270   C     0.32066   0.84090   0.18284   0.00000  Uiso   1.00
C271   C     0.18447   0.68735   0.12983   0.00000  Uiso   1.00
C272   C     0.14886   0.97932   0.20350   0.00000  Uiso   1.00
C273   C     0.18090   0.97823   0.13059   0.00000  Uiso   1.00
C274   C     0.15243   0.68844   0.20275   0.00000  Uiso   1.00
H275   H     0.19229   0.96163   0.10247   0.00000  Uiso   1.00
H276   H     0.14104   0.70504   0.23086   0.00000  Uiso   1.00
C277   C     0.16406   0.95735   0.16714   0.00000  Uiso   1.00
C278   C     0.16928   0.70931   0.16619   0.00000  Uiso   1.00
C279   C     0.20072   0.85931   0.02808   0.00000  Uiso   1.00
C280   C     0.13261   0.80736   0.30525   0.00000  Uiso   1.00
C281   C     0.20040   0.85951   0.31364   0.00000  Uiso   1.00
C282   C     0.13293   0.80715   0.01970   0.00000  Uiso   1.00
N283   N     0.32295   0.79390   0.11935   0.00000  Uiso   1.00
O284   O     0.30752   0.80293   0.07741   0.00000  Uiso   1.00
O285   O     0.32557   0.75529   0.13129   0.00000  Uiso   1.00
N286   N     0.01038   0.87277   0.21398   0.00000  Uiso   1.00
O287   O     0.02582   0.86373   0.25592   0.00000  Uiso   1.00
O288   O     0.00777   0.91138   0.20204   0.00000  Uiso   1.00
I289   I     0.21648   0.71273   0.07322   0.00000  Uiso   1.00
I290   I     0.11686   0.95394   0.26012   0.00000  Uiso   1.00
I291   I     0.25631   0.89956   0.06906   0.00000  Uiso   1.00
I292   I     0.07703   0.76711   0.26427   0.00000  Uiso   1.00
I293   I     0.25253   0.90223   0.28582   0.00000  Uiso   1.00
I294   I     0.08081   0.76444   0.04752   0.00000  Uiso   1.00
O295   O     0.50000   0.77225   0.20487   0.00000  Uiso   1.00
O296   O     0.50000   0.89442   0.12846   0.00000  Uiso   1.00
O297   O     0.50000   0.77226   0.12843   0.00000  Uiso   1.00
O298   O     0.50000   0.89441   0.20490   0.00000  Uiso   1.00
C299   C     0.50175   0.75351   0.16659   0.00000  Uiso   1.00
C300   C     0.49825   0.91316   0.16674   0.00000  Uiso   1.00
O301   O     0.42392   0.83333   0.19595   0.00000  Uiso   1.00
O302   O     0.57608   0.83334   0.13739   0.00000  Uiso   1.00
O303   O     0.42392   0.83334   0.11950   0.00000  Uiso   1.00
O304   O     0.57608   0.83333   0.21383   0.00000  Uiso   1.00
C305   C     0.40066   0.83286   0.15509   0.00000  Uiso   1.00
C306   C     0.59934   0.83381   0.17824   0.00000  Uiso   1.00
Zn307  Zn    0.50000   0.83333   0.21771   0.00000  Uiso   1.00
Zn308  Zn    0.50000   0.83334   0.11563   0.00000  Uiso   1.00
N309   N     0.49999   0.83332   0.28573   0.00000  Uiso   1.00
N310   N     0.50001   0.83334   0.04760   0.00000  Uiso   1.00
C311   C     0.34601   0.82577   0.15049   0.00000  Uiso   1.00
C312   C     0.65399   0.84090   0.18284   0.00000  Uiso   1.00
C313   C     0.51781   0.68735   0.12983   0.00000  Uiso   1.00
C314   C     0.48219   0.97932   0.20350   0.00000  Uiso   1.00
C315   C     0.51423   0.97823   0.13059   0.00000  Uiso   1.00
C316   C     0.48577   0.68844   0.20275   0.00000  Uiso   1.00
H317   H     0.52562   0.96163   0.10247   0.00000  Uiso   1.00
H318   H     0.47438   0.70504   0.23086   0.00000  Uiso   1.00
C319   C     0.49739   0.95735   0.16714   0.00000  Uiso   1.00
C320   C     0.50261   0.70931   0.16619   0.00000  Uiso   1.00
C321   C     0.53406   0.85931   0.02808   0.00000  Uiso   1.00
C322   C     0.46594   0.80736   0.30525   0.00000  Uiso   1.00
C323   C     0.53374   0.85951   0.31364   0.00000  Uiso   1.00
C324   C     0.46627   0.80715   0.01970   0.00000  Uiso   1.00
N325   N     0.65629   0.79390   0.11935   0.00000  Uiso   1.00
O326   O     0.64085   0.80293   0.07741   0.00000  Uiso   1.00
O327   O     0.65890   0.75529   0.13129   0.00000  Uiso   1.00
N328   N     0.34372   0.87277   0.21398   0.00000  Uiso   1.00
O329   O     0.35915   0.86373   0.25592   0.00000  Uiso   1.00
O330   O     0.34110   0.91138   0.20204   0.00000  Uiso   1.00
I331   I     0.54981   0.71273   0.07322   0.00000  Uiso   1.00
I332   I     0.45019   0.95394   0.26012   0.00000  Uiso   1.00
I333   I     0.58964   0.89956   0.06906   0.00000  Uiso   1.00
I334   I     0.41036   0.76711   0.26427   0.00000  Uiso   1.00
I335   I     0.58586   0.90223   0.28582   0.00000  Uiso   1.00
I336   I     0.41414   0.76444   0.04752   0.00000  Uiso   1.00
O337   O     0.83333   0.77225   0.20487   0.00000  Uiso   1.00
O338   O     0.83334   0.89442   0.12846   0.00000  Uiso   1.00
O339   O     0.83333   0.77226   0.12843   0.00000  Uiso   1.00
O340   O     0.83334   0.89441   0.20490   0.00000  Uiso   1.00
C341   C     0.83508   0.75351   0.16659   0.00000  Uiso   1.00
C342   C     0.83159   0.91316   0.16674   0.00000  Uiso   1.00
O343   O     0.75725   0.83333   0.19595   0.00000  Uiso   1.00
O344   O     0.90942   0.83334   0.13739   0.00000  Uiso   1.00
O345   O     0.75725   0.83334   0.11950   0.00000  Uiso   1.00
O346   O     0.90942   0.83333   0.21383   0.00000  Uiso   1.00
C347   C     0.73400   0.83286   0.15509   0.00000  Uiso   1.00
C348   C     0.93267   0.83381   0.17824   0.00000  Uiso   1.00
Zn349  Zn    0.83333   0.83333   0.21771   0.00000  Uiso   1.00
Zn350  Zn    0.83333   0.83334   0.11563   0.00000  Uiso   1.00
N351   N     0.83332   0.83332   0.28573   0.00000  Uiso   1.00
N352   N     0.83335   0.83334   0.04760   0.00000  Uiso   1.00
C353   C     0.67934   0.82577   0.15049   0.00000  Uiso   1.00
C354   C     0.98733   0.84090   0.18284   0.00000  Uiso   1.00
C355   C     0.85114   0.68735   0.12983   0.00000  Uiso   1.00
C356   C     0.81553   0.97932   0.20350   0.00000  Uiso   1.00
C357   C     0.84757   0.97823   0.13059   0.00000  Uiso   1.00
C358   C     0.81910   0.68844   0.20275   0.00000  Uiso   1.00
H359   H     0.85896   0.96163   0.10247   0.00000  Uiso   1.00
H360   H     0.80771   0.70504   0.23086   0.00000  Uiso   1.00
C361   C     0.83072   0.95735   0.16714   0.00000  Uiso   1.00
C362   C     0.83594   0.70931   0.16619   0.00000  Uiso   1.00
C363   C     0.86739   0.85931   0.02808   0.00000  Uiso   1.00
C364   C     0.79928   0.80736   0.30525   0.00000  Uiso   1.00
C365   C     0.86707   0.85951   0.31364   0.00000  Uiso   1.00
C366   C     0.79960   0.80715   0.01970   0.00000  Uiso   1.00
N367   N     0.98962   0.79390   0.11935   0.00000  Uiso   1.00
O368   O     0.97418   0.80293   0.07741   0.00000  Uiso   1.00
O369   O     0.99223   0.75529   0.13129   0.00000  Uiso   1.00
N370   N     0.67705   0.87277   0.21398   0.00000  Uiso   1.00
O371   O     0.69249   0.86373   0.25592   0.00000  Uiso   1.00
O372   O     0.67444   0.91138   0.20204   0.00000  Uiso   1.00
I373   I     0.88314   0.71273   0.07322   0.00000  Uiso   1.00
I374   I     0.78352   0.95394   0.26012   0.00000  Uiso   1.00
I375   I     0.92297   0.89956   0.06906   0.00000  Uiso   1.00
I376   I     0.74370   0.76711   0.26427   0.00000  Uiso   1.00
I377   I     0.91919   0.90223   0.28582   0.00000  Uiso   1.00
I378   I     0.74747   0.76444   0.04752   0.00000  Uiso   1.00
O379   O     0.16666   0.10558   0.53821   0.00000  Uiso   1.00
O380   O     0.16667   0.22775   0.46179   0.00000  Uiso   1.00
O381   O     0.16666   0.10559   0.46176   0.00000  Uiso   1.00
O382   O     0.16667   0.22774   0.53824   0.00000  Uiso   1.00
C383   C     0.16841   0.08684   0.49993   0.00000  Uiso   1.00
C384   C     0.16492   0.24649   0.50007   0.00000  Uiso   1.00
O385   O     0.09058   0.16666   0.52928   0.00000  Uiso   1.00
O386   O     0.24275   0.16667   0.47072   0.00000  Uiso   1.00
O387   O     0.09058   0.16667   0.45284   0.00000  Uiso   1.00
O388   O     0.24275   0.16666   0.54716   0.00000  Uiso   1.00
C389   C     0.06733   0.16619   0.48843   0.00000  Uiso   1.00
C390   C     0.26600   0.16714   0.51157   0.00000  Uiso   1.00
Zn391  Zn    0.16667   0.16666   0.55104   0.00000  Uiso   1.00
Zn392  Zn    0.16667   0.16667   0.44896   0.00000  Uiso   1.00
N393   N     0.16665   0.16666   0.61907   0.00000  Uiso   1.00
N394   N     0.16668   0.16668   0.38093   0.00000  Uiso   1.00
C395   C     0.01267   0.15910   0.48383   0.00000  Uiso   1.00
C396   C     0.32066   0.17423   0.51617   0.00000  Uiso   1.00
C397   C     0.18447   0.02068   0.46316   0.00000  Uiso   1.00
C398   C     0.14886   0.31265   0.53684   0.00000  Uiso   1.00
C399   C     0.18090   0.31156   0.46392   0.00000  Uiso   1.00
C400   C     0.15243   0.02177   0.53608   0.00000  Uiso   1.00
H401   H     0.19229   0.29496   0.43580   0.00000  Uiso   1.00
H402   H     0.14104   0.03837   0.56419   0.00000  Uiso   1.00
C403   C     0.16406   0.29069   0.50047   0.00000  Uiso   1.00
C404   C     0.16928   0.04265   0.49953   0.00000  Uiso   1.00
C405   C     0.20072   0.19264   0.36142   0.00000  Uiso   1.00
C406   C     0.13261   0.14069   0.63858   0.00000  Uiso   1.00
C407   C     0.20040   0.19284   0.64697   0.00000  Uiso   1.00
C408   C     0.13293   0.14049   0.35303   0.00000  Uiso   1.00
N409   N     0.32295   0.12723   0.45269   0.00000  Uiso   1.00
O410   O     0.30752   0.13627   0.41074   0.00000  Uiso   1.00
O411   O     0.32557   0.08862   0.46463   0.00000  Uiso   1.00
N412   N     0.01038   0.20610   0.54731   0.00000  Uiso   1.00
O413   O     0.02582   0.19707   0.58926   0.00000  Uiso   1.00
O414   O     0.00777   0.24471   0.53537   0.00000  Uiso   1.00
I415   I     0.21648   0.04606   0.40655   0.00000  Uiso   1.00
I416   I     0.11686   0.28727   0.59345   0.00000  Uiso   1.00
I417   I     0.25631   0.23289   0.40239   0.00000  Uiso   1.00
I418   I     0.07703   0.10044   0.59761   0.00000  Uiso   1.00
I419   I     0.25253   0.23556   0.61915   0.00000  Uiso   1.00
I420   I     0.08081   0.09777   0.38085   0.00000  Uiso   1.00
O421   O     0.50000   0.10558   0.53821   0.00000  Uiso   1.00
O422   O     0.50000   0.22775   0.46179   0.00000  Uiso   1.00
O423   O     0.50000   0.10559   0.46176   0.00000  Uiso   1.00
O424   O     0.50000   0.22774   0.53824   0.00000  Uiso   1.00
C425   C     0.50175   0.08684   0.49993   0.00000  Uiso   1.00
C426   C     0.49825   0.24649   0.50007   0.00000  Uiso   1.00
O427   O     0.42392   0.16666   0.52928   0.00000  Uiso   1.00
O428   O     0.57608   0.16667   0.47072   0.00000  Uiso   1.00
O429   O     0.42392   0.16667   0.45284   0.00000  Uiso   1.00
O430   O     0.57608   0.16666   0.54716   0.00000  Uiso   1.00
C431   C     0.40066   0.16619   0.48843   0.00000  Uiso   1.00
C432   C     0.59934   0.16714   0.51157   0.00000  Uiso   1.00
Zn433  Zn    0.50000   0.16666   0.55104   0.00000  Uiso   1.00
Zn434  Zn    0.50000   0.16667   0.44896   0.00000  Uiso   1.00
N435   N     0.49999   0.16666   0.61907   0.00000  Uiso   1.00
N436   N     0.50001   0.16668   0.38093   0.00000  Uiso   1.00
C437   C     0.34601   0.15910   0.48383   0.00000  Uiso   1.00
C438   C     0.65399   0.17423   0.51617   0.00000  Uiso   1.00
C439   C     0.51781   0.02068   0.46316   0.00000  Uiso   1.00
C440   C     0.48219   0.31265   0.53684   0.00000  Uiso   1.00
C441   C     0.51423   0.31156   0.46392   0.00000  Uiso   1.00
C442   C     0.48577   0.02177   0.53608   0.00000  Uiso   1.00
H443   H     0.52562   0.29496   0.43580   0.00000  Uiso   1.00
H444   H     0.47438   0.03837   0.56419   0.00000  Uiso   1.00
C445   C     0.49739   0.29069   0.50047   0.00000  Uiso   1.00
C446   C     0.50261   0.04265   0.49953   0.00000  Uiso   1.00
C447   C     0.53406   0.19264   0.36142   0.00000  Uiso   1.00
C448   C     0.46594   0.14069   0.63858   0.00000  Uiso   1.00
C449   C     0.53374   0.19284   0.64697   0.00000  Uiso   1.00
C450   C     0.46627   0.14049   0.35303   0.00000  Uiso   1.00
N451   N     0.65629   0.12723   0.45269   0.00000  Uiso   1.00
O452   O     0.64085   0.13627   0.41074   0.00000  Uiso   1.00
O453   O     0.65890   0.08862   0.46463   0.00000  Uiso   1.00
N454   N     0.34372   0.20610   0.54731   0.00000  Uiso   1.00
O455   O     0.35915   0.19707   0.58926   0.00000  Uiso   1.00
O456   O     0.34110   0.24471   0.53537   0.00000  Uiso   1.00
I457   I     0.54981   0.04606   0.40655   0.00000  Uiso   1.00
I458   I     0.45019   0.28727   0.59345   0.00000  Uiso   1.00
I459   I     0.58964   0.23289   0.40239   0.00000  Uiso   1.00
I460   I     0.41036   0.10044   0.59761   0.00000  Uiso   1.00
I461   I     0.58586   0.23556   0.61915   0.00000  Uiso   1.00
I462   I     0.41414   0.09777   0.38085   0.00000  Uiso   1.00
O463   O     0.83333   0.10558   0.53821   0.00000  Uiso   1.00
O464   O     0.83334   0.22775   0.46179   0.00000  Uiso   1.00
O465   O     0.83333   0.10559   0.46176   0.00000  Uiso   1.00
O466   O     0.83334   0.22774   0.53824   0.00000  Uiso   1.00
C467   C     0.83508   0.08684   0.49993   0.00000  Uiso   1.00
C468   C     0.83159   0.24649   0.50007   0.00000  Uiso   1.00
O469   O     0.75725   0.16666   0.52928   0.00000  Uiso   1.00
O470   O     0.90942   0.16667   0.47072   0.00000  Uiso   1.00
O471   O     0.75725   0.16667   0.45284   0.00000  Uiso   1.00
O472   O     0.90942   0.16666   0.54716   0.00000  Uiso   1.00
C473   C     0.73400   0.16619   0.48843   0.00000  Uiso   1.00
C474   C     0.93267   0.16714   0.51157   0.00000  Uiso   1.00
Zn475  Zn    0.83333   0.16666   0.55104   0.00000  Uiso   1.00
Zn476  Zn    0.83333   0.16667   0.44896   0.00000  Uiso   1.00
N477   N     0.83332   0.16666   0.61907   0.00000  Uiso   1.00
N478   N     0.83335   0.16668   0.38093   0.00000  Uiso   1.00
C479   C     0.67934   0.15910   0.48383   0.00000  Uiso   1.00
C480   C     0.98733   0.17423   0.51617   0.00000  Uiso   1.00
C481   C     0.85114   0.02068   0.46316   0.00000  Uiso   1.00
C482   C     0.81553   0.31265   0.53684   0.00000  Uiso   1.00
C483   C     0.84757   0.31156   0.46392   0.00000  Uiso   1.00
C484   C     0.81910   0.02177   0.53608   0.00000  Uiso   1.00
H485   H     0.85896   0.29496   0.43580   0.00000  Uiso   1.00
H486   H     0.80771   0.03837   0.56419   0.00000  Uiso   1.00
C487   C     0.83072   0.29069   0.50047   0.00000  Uiso   1.00
C488   C     0.83594   0.04265   0.49953   0.00000  Uiso   1.00
C489   C     0.86739   0.19264   0.36142   0.00000  Uiso   1.00
C490   C     0.79928   0.14069   0.63858   0.00000  Uiso   1.00
C491   C     0.86707   0.19284   0.64697   0.00000  Uiso   1.00
C492   C     0.79960   0.14049   0.35303   0.00000  Uiso   1.00
N493   N     0.98962   0.12723   0.45269   0.00000  Uiso   1.00
O494   O     0.97418   0.13627   0.41074   0.00000  Uiso   1.00
O495   O     0.99223   0.08862   0.46463   0.00000  Uiso   1.00
N496   N     0.67705   0.20610   0.54731   0.00000  Uiso   1.00
O497   O     0.69249   0.19707   0.58926   0.00000  Uiso   1.00
O498   O     0.67444   0.24471   0.53537   0.00000  Uiso   1.00
I499   I     0.88314   0.04606   0.40655   0.00000  Uiso   1.00
I500   I     0.78352   0.28727   0.59345   0.00000  Uiso   1.00
I501   I     0.92297   0.23289   0.40239   0.00000  Uiso   1.00
I502   I     0.74370   0.10044   0.59761   0.00000  Uiso   1.00
I503   I     0.91919   0.23556   0.61915   0.00000  Uiso   1.00
I504   I     0.74747   0.09777   0.38085   0.00000  Uiso   1.00
O505   O     0.16666   0.43892   0.53821   0.00000  Uiso   1.00
O506   O     0.16667   0.56108   0.46179   0.00000  Uiso   1.00
O507   O     0.16666   0.43893   0.46176   0.00000  Uiso   1.00
O508   O     0.16667   0.56107   0.53824   0.00000  Uiso   1.00
C509   C     0.16841   0.42018   0.49993   0.00000  Uiso   1.00
C510   C     0.16492   0.57982   0.50007   0.00000  Uiso   1.00
O511   O     0.09058   0.50000   0.52928   0.00000  Uiso   1.00
O512   O     0.24275   0.50000   0.47072   0.00000  Uiso   1.00
O513   O     0.09058   0.50000   0.45284   0.00000  Uiso   1.00
O514   O     0.24275   0.50000   0.54716   0.00000  Uiso   1.00
C515   C     0.06733   0.49953   0.48843   0.00000  Uiso   1.00
C516   C     0.26600   0.50047   0.51157   0.00000  Uiso   1.00
Zn517  Zn    0.16667   0.49999   0.55104   0.00000  Uiso   1.00
Zn518  Zn    0.16667   0.50001   0.44896   0.00000  Uiso   1.00
N519   N     0.16665   0.49999   0.61907   0.00000  Uiso   1.00
N520   N     0.16668   0.50001   0.38093   0.00000  Uiso   1.00
C521   C     0.01267   0.49244   0.48383   0.00000  Uiso   1.00
C522   C     0.32066   0.50756   0.51617   0.00000  Uiso   1.00
C523   C     0.18447   0.35401   0.46316   0.00000  Uiso   1.00
C524   C     0.14886   0.64598   0.53684   0.00000  Uiso   1.00
C525   C     0.18090   0.64490   0.46392   0.00000  Uiso   1.00
C526   C     0.15243   0.35510   0.53608   0.00000  Uiso   1.00
H527   H     0.19229   0.62830   0.43580   0.00000  Uiso   1.00
H528   H     0.14104   0.37170   0.56419   0.00000  Uiso   1.00
C529   C     0.16406   0.62402   0.50047   0.00000  Uiso   1.00
C530   C     0.16928   0.37598   0.49953   0.00000  Uiso   1.00
C531   C     0.20072   0.52597   0.36142   0.00000  Uiso   1.00
C532   C     0.13261   0.47403   0.63858   0.00000  Uiso   1.00
C533   C     0.20040   0.52618   0.64697   0.00000  Uiso   1.00
C534   C     0.13293   0.47382   0.35303   0.00000  Uiso   1.00
N535   N     0.32295   0.46057   0.45269   0.00000  Uiso   1.00
O536   O     0.30752   0.46960   0.41074   0.00000  Uiso   1.00
O537   O     0.32557   0.42195   0.46463   0.00000  Uiso   1.00
N538   N     0.01038   0.53943   0.54731   0.00000  Uiso   1.00
O539   O     0.02582   0.53040   0.58926   0.00000  Uiso   1.00
O540   O     0.00777   0.57805   0.53537   0.00000  Uiso   1.00
I541   I     0.21648   0.37939   0.40655   0.00000  Uiso   1.00
I542   I     0.11686   0.62061   0.59345   0.00000  Uiso   1.00
I543   I     0.25631   0.56622   0.40239   0.00000  Uiso   1.00
I544   I     0.07703   0.43378   0.59761   0.00000  Uiso   1.00
I545   I     0.25253   0.56890   0.61915   0.00000  Uiso   1.00
I546   I     0.08081   0.43110   0.38085   0.00000  Uiso   1.00
O547   O     0.50000   0.43892   0.53821   0.00000  Uiso   1.00
O548   O     0.50000   0.56108   0.46179   0.00000  Uiso   1.00
O549   O     0.50000   0.43893   0.46176   0.00000  Uiso   1.00
O550   O     0.50000   0.56107   0.53824   0.00000  Uiso   1.00
C551   C     0.50175   0.42018   0.49993   0.00000  Uiso   1.00
C552   C     0.49825   0.57982   0.50007   0.00000  Uiso   1.00
O553   O     0.42392   0.50000   0.52928   0.00000  Uiso   1.00
O554   O     0.57608   0.50000   0.47072   0.00000  Uiso   1.00
O555   O     0.42392   0.50000   0.45284   0.00000  Uiso   1.00
O556   O     0.57608   0.50000   0.54716   0.00000  Uiso   1.00
C557   C     0.40066   0.49953   0.48843   0.00000  Uiso   1.00
C558   C     0.59934   0.50047   0.51157   0.00000  Uiso   1.00
Zn559  Zn    0.50000   0.49999   0.55104   0.00000  Uiso   1.00
Zn560  Zn    0.50000   0.50001   0.44896   0.00000  Uiso   1.00
N561   N     0.49999   0.49999   0.61907   0.00000  Uiso   1.00
N562   N     0.50001   0.50001   0.38093   0.00000  Uiso   1.00
C563   C     0.34601   0.49244   0.48383   0.00000  Uiso   1.00
C564   C     0.65399   0.50756   0.51617   0.00000  Uiso   1.00
C565   C     0.51781   0.35401   0.46316   0.00000  Uiso   1.00
C566   C     0.48219   0.64598   0.53684   0.00000  Uiso   1.00
C567   C     0.51423   0.64490   0.46392   0.00000  Uiso   1.00
C568   C     0.48577   0.35510   0.53608   0.00000  Uiso   1.00
H569   H     0.52562   0.62830   0.43580   0.00000  Uiso   1.00
H570   H     0.47438   0.37170   0.56419   0.00000  Uiso   1.00
C571   C     0.49739   0.62402   0.50047   0.00000  Uiso   1.00
C572   C     0.50261   0.37598   0.49953   0.00000  Uiso   1.00
C573   C     0.53406   0.52597   0.36142   0.00000  Uiso   1.00
C574   C     0.46594   0.47403   0.63858   0.00000  Uiso   1.00
C575   C     0.53374   0.52618   0.64697   0.00000  Uiso   1.00
C576   C     0.46627   0.47382   0.35303   0.00000  Uiso   1.00
N577   N     0.65629   0.46057   0.45269   0.00000  Uiso   1.00
O578   O     0.64085   0.46960   0.41074   0.00000  Uiso   1.00
O579   O     0.65890   0.42195   0.46463   0.00000  Uiso   1.00
N580   N     0.34372   0.53943   0.54731   0.00000  Uiso   1.00
O581   O     0.35915   0.53040   0.58926   0.00000  Uiso   1.00
O582   O     0.34110   0.57805   0.53537   0.00000  Uiso   1.00
I583   I     0.54981   0.37939   0.40655   0.00000  Uiso   1.00
I584   I     0.45019   0.62061   0.59345   0.00000  Uiso   1.00
I585   I     0.58964   0.56622   0.40239   0.00000  Uiso   1.00
I586   I     0.41036   0.43378   0.59761   0.00000  Uiso   1.00
I587   I     0.58586   0.56890   0.61915   0.00000  Uiso   1.00
I588   I     0.41414   0.43110   0.38085   0.00000  Uiso   1.00
O589   O     0.83333   0.43892   0.53821   0.00000  Uiso   1.00
O590   O     0.83334   0.56108   0.46179   0.00000  Uiso   1.00
O591   O     0.83333   0.43893   0.46176   0.00000  Uiso   1.00
O592   O     0.83334   0.56107   0.53824   0.00000  Uiso   1.00
C593   C     0.83508   0.42018   0.49993   0.00000  Uiso   1.00
C594   C     0.83159   0.57982   0.50007   0.00000  Uiso   1.00
O595   O     0.75725   0.50000   0.52928   0.00000  Uiso   1.00
O596   O     0.90942   0.50000   0.47072   0.00000  Uiso   1.00
O597   O     0.75725   0.50000   0.45284   0.00000  Uiso   1.00
O598   O     0.90942   0.50000   0.54716   0.00000  Uiso   1.00
C599   C     0.73400   0.49953   0.48843   0.00000  Uiso   1.00
C600   C     0.93267   0.50047   0.51157   0.00000  Uiso   1.00
Zn601  Zn    0.83333   0.49999   0.55104   0.00000  Uiso   1.00
Zn602  Zn    0.83333   0.50001   0.44896   0.00000  Uiso   1.00
N603   N     0.83332   0.49999   0.61907   0.00000  Uiso   1.00
N604   N     0.83335   0.50001   0.38093   0.00000  Uiso   1.00
C605   C     0.67934   0.49244   0.48383   0.00000  Uiso   1.00
C606   C     0.98733   0.50756   0.51617   0.00000  Uiso   1.00
C607   C     0.85114   0.35401   0.46316   0.00000  Uiso   1.00
C608   C     0.81553   0.64598   0.53684   0.00000  Uiso   1.00
C609   C     0.84757   0.64490   0.46392   0.00000  Uiso   1.00
C610   C     0.81910   0.35510   0.53608   0.00000  Uiso   1.00
H611   H     0.85896   0.62830   0.43580   0.00000  Uiso   1.00
H612   H     0.80771   0.37170   0.56419   0.00000  Uiso   1.00
C613   C     0.83072   0.62402   0.50047   0.00000  Uiso   1.00
C614   C     0.83594   0.37598   0.49953   0.00000  Uiso   1.00
C615   C     0.86739   0.52597   0.36142   0.00000  Uiso   1.00
C616   C     0.79928   0.47403   0.63858   0.00000  Uiso   1.00
C617   C     0.86707   0.52618   0.64697   0.00000  Uiso   1.00
C618   C     0.79960   0.47382   0.35303   0.00000  Uiso   1.00
N619   N     0.98962   0.46057   0.45269   0.00000  Uiso   1.00
O620   O     0.97418   0.46960   0.41074   0.00000  Uiso   1.00
O621   O     0.99223   0.42195   0.46463   0.00000  Uiso   1.00
N622   N     0.67705   0.53943   0.54731   0.00000  Uiso   1.00
O623   O     0.69249   0.53040   0.58926   0.00000  Uiso   1.00
O624   O     0.67444   0.57805   0.53537   0.00000  Uiso   1.00
I625   I     0.88314   0.37939   0.40655   0.00000  Uiso   1.00
I626   I     0.78352   0.62061   0.59345   0.00000  Uiso   1.00
I627   I     0.92297   0.56622   0.40239   0.00000  Uiso   1.00
I628   I     0.74370   0.43378   0.59761   0.00000  Uiso   1.00
I629   I     0.91919   0.56890   0.61915   0.00000  Uiso   1.00
I630   I     0.74747   0.43110   0.38085   0.00000  Uiso   1.00
O631   O     0.16666   0.77225   0.53821   0.00000  Uiso   1.00
O632   O     0.16667   0.89442   0.46179   0.00000  Uiso   1.00
O633   O     0.16666   0.77226   0.46176   0.00000  Uiso   1.00
O634   O     0.16667   0.89441   0.53824   0.00000  Uiso   1.00
C635   C     0.16841   0.75351   0.49993   0.00000  Uiso   1.00
C636   C     0.16492   0.91316   0.50007   0.00000  Uiso   1.00
O637   O     0.09058   0.83333   0.52928   0.00000  Uiso   1.00
O638   O     0.24275   0.83334   0.47072   0.00000  Uiso   1.00
O639   O     0.09058   0.83334   0.45284   0.00000  Uiso   1.00
O640   O     0.24275   0.83333   0.54716   0.00000  Uiso   1.00
C641   C     0.06733   0.83286   0.48843   0.00000  Uiso   1.00
C642   C     0.26600   0.83381   0.51157   0.00000  Uiso   1.00
Zn643  Zn    0.16667   0.83333   0.55104   0.00000  Uiso   1.00
Zn644  Zn    0.16667   0.83334   0.44896   0.00000  Uiso   1.00
N645   N     0.16665   0.83332   0.61907   0.00000  Uiso   1.00
N646   N     0.16668   0.83334   0.38093   0.00000  Uiso   1.00
C647   C     0.01267   0.82577   0.48383   0.00000  Uiso   1.00
C648   C     0.32066   0.84090   0.51617   0.00000  Uiso   1.00
C649   C     0.18447   0.68735   0.46316   0.00000  Uiso   1.00
C650   C     0.14886   0.97932   0.53684   0.00000  Uiso   1.00
C651   C     0.18090   0.97823   0.46392   0.00000  Uiso   1.00
C652   C     0.15243   0.68844   0.53608   0.00000  Uiso   1.00
H653   H     0.19229   0.96163   0.43580   0.00000  Uiso   1.00
H654   H     0.14104   0.70504   0.56419   0.00000  Uiso   1.00
C655   C     0.16406   0.95735   0.50047   0.00000  Uiso   1.00
C656   C     0.16928   0.70931   0.49953   0.00000  Uiso   1.00
C657   C     0.20072   0.85931   0.36142   0.00000  Uiso   1.00
C658   C     0.13261   0.80736   0.63858   0.00000  Uiso   1.00
C659   C     0.20040   0.85951   0.64697   0.00000  Uiso   1.00
C660   C     0.13293   0.80715   0.35303   0.00000  Uiso   1.00
N661   N     0.32295   0.79390   0.45269   0.00000  Uiso   1.00
O662   O     0.30752   0.80293   0.41074   0.00000  Uiso   1.00
O663   O     0.32557   0.75529   0.46463   0.00000  Uiso   1.00
N664   N     0.01038   0.87277   0.54731   0.00000  Uiso   1.00
O665   O     0.02582   0.86373   0.58926   0.00000  Uiso   1.00
O666   O     0.00777   0.91138   0.53537   0.00000  Uiso   1.00
I667   I     0.21648   0.71273   0.40655   0.00000  Uiso   1.00
I668   I     0.11686   0.95394   0.59345   0.00000  Uiso   1.00
I669   I     0.25631   0.89956   0.40239   0.00000  Uiso   1.00
I670   I     0.07703   0.76711   0.59761   0.00000  Uiso   1.00
I671   I     0.25253   0.90223   0.61915   0.00000  Uiso   1.00
I672   I     0.08081   0.76444   0.38085   0.00000  Uiso   1.00
O673   O     0.50000   0.77225   0.53821   0.00000  Uiso   1.00
O674   O     0.50000   0.89442   0.46179   0.00000  Uiso   1.00
O675   O     0.50000   0.77226   0.46176   0.00000  Uiso   1.00
O676   O     0.50000   0.89441   0.53824   0.00000  Uiso   1.00
C677   C     0.50175   0.75351   0.49993   0.00000  Uiso   1.00
C678   C     0.49825   0.91316   0.50007   0.00000  Uiso   1.00
O679   O     0.42392   0.83333   0.52928   0.00000  Uiso   1.00
O680   O     0.57608   0.83334   0.47072   0.00000  Uiso   1.00
O681   O     0.42392   0.83334   0.45284   0.00000  Uiso   1.00
O682   O     0.57608   0.83333   0.54716   0.00000  Uiso   1.00
C683   C     0.40066   0.83286   0.48843   0.00000  Uiso   1.00
C684   C     0.59934   0.83381   0.51157   0.00000  Uiso   1.00
Zn685  Zn    0.50000   0.83333   0.55104   0.00000  Uiso   1.00
Zn686  Zn    0.50000   0.83334   0.44896   0.00000  Uiso   1.00
N687   N     0.49999   0.83332   0.61907   0.00000  Uiso   1.00
N688   N     0.50001   0.83334   0.38093   0.00000  Uiso   1.00
C689   C     0.34601   0.82577   0.48383   0.00000  Uiso   1.00
C690   C     0.65399   0.84090   0.51617   0.00000  Uiso   1.00
C691   C     0.51781   0.68735   0.46316   0.00000  Uiso   1.00
C692   C     0.48219   0.97932   0.53684   0.00000  Uiso   1.00
C693   C     0.51423   0.97823   0.46392   0.00000  Uiso   1.00
C694   C     0.48577   0.68844   0.53608   0.00000  Uiso   1.00
H695   H     0.52562   0.96163   0.43580   0.00000  Uiso   1.00
H696   H     0.47438   0.70504   0.56419   0.00000  Uiso   1.00
C697   C     0.49739   0.95735   0.50047   0.00000  Uiso   1.00
C698   C     0.50261   0.70931   0.49953   0.00000  Uiso   1.00
C699   C     0.53406   0.85931   0.36142   0.00000  Uiso   1.00
C700   C     0.46594   0.80736   0.63858   0.00000  Uiso   1.00
C701   C     0.53374   0.85951   0.64697   0.00000  Uiso   1.00
C702   C     0.46627   0.80715   0.35303   0.00000  Uiso   1.00
N703   N     0.65629   0.79390   0.45269   0.00000  Uiso   1.00
O704   O     0.64085   0.80293   0.41074   0.00000  Uiso   1.00
O705   O     0.65890   0.75529   0.46463   0.00000  Uiso   1.00
N706   N     0.34372   0.87277   0.54731   0.00000  Uiso   1.00
O707   O     0.35915   0.86373   0.58926   0.00000  Uiso   1.00
O708   O     0.34110   0.91138   0.53537   0.00000  Uiso   1.00
I709   I     0.54981   0.71273   0.40655   0.00000  Uiso   1.00
I710   I     0.45019   0.95394   0.59345   0.00000  Uiso   1.00
I711   I     0.58964   0.89956   0.40239   0.00000  Uiso   1.00
I712   I     0.41036   0.76711   0.59761   0.00000  Uiso   1.00
I713   I     0.58586   0.90223   0.61915   0.00000  Uiso   1.00
I714   I     0.41414   0.76444   0.38085   0.00000  Uiso   1.00
O715   O     0.83333   0.77225   0.53821   0.00000  Uiso   1.00
O716   O     0.83334   0.89442   0.46179   0.00000  Uiso   1.00
O717   O     0.83333   0.77226   0.46176   0.00000  Uiso   1.00
O718   O     0.83334   0.89441   0.53824   0.00000  Uiso   1.00
C719   C     0.83508   0.75351   0.49993   0.00000  Uiso   1.00
C720   C     0.83159   0.91316   0.50007   0.00000  Uiso   1.00
O721   O     0.75725   0.83333   0.52928   0.00000  Uiso   1.00
O722   O     0.90942   0.83334   0.47072   0.00000  Uiso   1.00
O723   O     0.75725   0.83334   0.45284   0.00000  Uiso   1.00
O724   O     0.90942   0.83333   0.54716   0.00000  Uiso   1.00
C725   C     0.73400   0.83286   0.48843   0.00000  Uiso   1.00
C726   C     0.93267   0.83381   0.51157   0.00000  Uiso   1.00
Zn727  Zn    0.83333   0.83333   0.55104   0.00000  Uiso   1.00
Zn728  Zn    0.83333   0.83334   0.44896   0.00000  Uiso   1.00
N729   N     0.83332   0.83332   0.61907   0.00000  Uiso   1.00
N730   N     0.83335   0.83334   0.38093   0.00000  Uiso   1.00
C731   C     0.67934   0.82577   0.48383   0.00000  Uiso   1.00
C732   C     0.98733   0.84090   0.51617   0.00000  Uiso   1.00
C733   C     0.85114   0.68735   0.46316   0.00000  Uiso   1.00
C734   C     0.81553   0.97932   0.53684   0.00000  Uiso   1.00
C735   C     0.84757   0.97823   0.46392   0.00000  Uiso   1.00
C736   C     0.81910   0.68844   0.53608   0.00000  Uiso   1.00
H737   H     0.85896   0.96163   0.43580   0.00000  Uiso   1.00
H738   H     0.80771   0.70504   0.56419   0.00000  Uiso   1.00
C739   C     0.83072   0.95735   0.50047   0.00000  Uiso   1.00
C740   C     0.83594   0.70931   0.49953   0.00000  Uiso   1.00
C741   C     0.86739   0.85931   0.36142   0.00000  Uiso   1.00
C742   C     0.79928   0.80736   0.63858   0.00000  Uiso   1.00
C743   C     0.86707   0.85951   0.64697   0.00000  Uiso   1.00
C744   C     0.79960   0.80715   0.35303   0.00000  Uiso   1.00
N745   N     0.98962   0.79390   0.45269   0.00000  Uiso   1.00
O746   O     0.97418   0.80293   0.41074   0.00000  Uiso   1.00
O747   O     0.99223   0.75529   0.46463   0.00000  Uiso   1.00
N748   N     0.67705   0.87277   0.54731   0.00000  Uiso   1.00
O749   O     0.69249   0.86373   0.58926   0.00000  Uiso   1.00
O750   O     0.67444   0.91138   0.53537   0.00000  Uiso   1.00
I751   I     0.88314   0.71273   0.40655   0.00000  Uiso   1.00
I752   I     0.78352   0.95394   0.59345   0.00000  Uiso   1.00
I753   I     0.92297   0.89956   0.40239   0.00000  Uiso   1.00
I754   I     0.74370   0.76711   0.59761   0.00000  Uiso   1.00
I755   I     0.91919   0.90223   0.61915   0.00000  Uiso   1.00
I756   I     0.74747   0.76444   0.38085   0.00000  Uiso   1.00
O757   O     0.16666   0.10558   0.87154   0.00000  Uiso   1.00
O758   O     0.16667   0.22775   0.79513   0.00000  Uiso   1.00
O759   O     0.16666   0.10559   0.79510   0.00000  Uiso   1.00
O760   O     0.16667   0.22774   0.87157   0.00000  Uiso   1.00
C761   C     0.16841   0.08684   0.83326   0.00000  Uiso   1.00
C762   C     0.16492   0.24649   0.83341   0.00000  Uiso   1.00
O763   O     0.09058   0.16666   0.86261   0.00000  Uiso   1.00
O764   O     0.24275   0.16667   0.80405   0.00000  Uiso   1.00
O765   O     0.09058   0.16667   0.78617   0.00000  Uiso   1.00
O766   O     0.24275   0.16666   0.88050   0.00000  Uiso   1.00
C767   C     0.06733   0.16619   0.82176   0.00000  Uiso   1.00
C768   C     0.26600   0.16714   0.84491   0.00000  Uiso   1.00
Zn769  Zn    0.16667   0.16666   0.88437   0.00000  Uiso   1.00
Zn770  Zn    0.16667   0.16667   0.78229   0.00000  Uiso   1.00
N771   N     0.16665   0.16666   0.95240   0.00000  Uiso   1.00
N772   N     0.16668   0.16668   0.71427   0.00000  Uiso   1.00
C773   C     0.01267   0.15910   0.81716   0.00000  Uiso   1.00
C774   C     0.32066   0.17423   0.84951   0.00000  Uiso   1.00
C775   C     0.18447   0.02068   0.79650   0.00000  Uiso   1.00
C776   C     0.14886   0.31265   0.87017   0.00000  Uiso   1.00
C777   C     0.18090   0.31156   0.79725   0.00000  Uiso   1.00
C778   C     0.15243   0.02177   0.86941   0.00000  Uiso   1.00
H779   H     0.19229   0.29496   0.76914   0.00000  Uiso   1.00
H780   H     0.14104   0.03837   0.89753   0.00000  Uiso   1.00
C781   C     0.16406   0.29069   0.83381   0.00000  Uiso   1.00
C782   C     0.16928   0.04265   0.83286   0.00000  Uiso   1.00
C783   C     0.20072   0.19264   0.69475   0.00000  Uiso   1.00
C784   C     0.13261   0.14069   0.97192   0.00000  Uiso   1.00
C785   C     0.20040   0.19284   0.98030   0.00000  Uiso   1.00
C786   C     0.13293   0.14049   0.68636   0.00000  Uiso   1.00
N787   N     0.32295   0.12723   0.78602   0.00000  Uiso   1.00
O788   O     0.30752   0.13627   0.74408   0.00000  Uiso   1.00
O789   O     0.32557   0.08862   0.79796   0.00000  Uiso   1.00
N790   N     0.01038   0.20610   0.88065   0.00000  Uiso   1.00
O791   O     0.02582   0.19707   0.92259   0.00000  Uiso   1.00
O792   O     0.00777   0.24471   0.86871   0.00000  Uiso   1.00
I793   I     0.21648   0.04606   0.73988   0.00000  Uiso   1.00
I794   I     0.11686   0.28727   0.92678   0.00000  Uiso   1.00
I795   I     0.25631   0.23289   0.73572   0.00000  Uiso   1.00
I796   I     0.07703   0.10044   0.93094   0.00000  Uiso   1.00
I797   I     0.25253   0.23556   0.95248   0.00000  Uiso   1.00
I798   I     0.08081   0.09777   0.71418   0.00000  Uiso   1.00
O799   O     0.50000   0.10558   0.87154   0.00000  Uiso   1.00
O800   O     0.50000   0.22775   0.79513   0.00000  Uiso   1.00
O801   O     0.50000   0.10559   0.79510   0.00000  Uiso   1.00
O802   O     0.50000   0.22774   0.87157   0.00000  Uiso   1.00
C803   C     0.50175   0.08684   0.83326   0.00000  Uiso   1.00
C804   C     0.49825   0.24649   0.83341   0.00000  Uiso   1.00
O805   O     0.42392   0.16666   0.86261   0.00000  Uiso   1.00
O806   O     0.57608   0.16667   0.80405   0.00000  Uiso   1.00
O807   O     0.42392   0.16667   0.78617   0.00000  Uiso   1.00
O808   O     0.57608   0.16666   0.88050   0.00000  Uiso   1.00
C809   C     0.40066   0.16619   0.82176   0.00000  Uiso   1.00
C810   C     0.59934   0.16714   0.84491   0.00000  Uiso   1.00
Zn811  Zn    0.50000   0.16666   0.88437   0.00000  Uiso   1.00
Zn812  Zn    0.50000   0.16667   0.78229   0.00000  Uiso   1.00
N813   N     0.49999   0.16666   0.95240   0.00000  Uiso   1.00
N814   N     0.50001   0.16668   0.71427   0.00000  Uiso   1.00
C815   C     0.34601   0.15910   0.81716   0.00000  Uiso   1.00
C816   C     0.65399   0.17423   0.84951   0.00000  Uiso   1.00
C817   C     0.51781   0.02068   0.79650   0.00000  Uiso   1.00
C818   C     0.48219   0.31265   0.87017   0.00000  Uiso   1.00
C819   C     0.51423   0.31156   0.79725   0.00000  Uiso   1.00
C820   C     0.48577   0.02177   0.86941   0.00000  Uiso   1.00
H821   H     0.52562   0.29496   0.76914   0.00000  Uiso   1.00
H822   H     0.47438   0.03837   0.89753   0.00000  Uiso   1.00
C823   C     0.49739   0.29069   0.83381   0.00000  Uiso   1.00
C824   C     0.50261   0.04265   0.83286   0.00000  Uiso   1.00
C825   C     0.53406   0.19264   0.69475   0.00000  Uiso   1.00
C826   C     0.46594   0.14069   0.97192   0.00000  Uiso   1.00
C827   C     0.53374   0.19284   0.98030   0.00000  Uiso   1.00
C828   C     0.46627   0.14049   0.68636   0.00000  Uiso   1.00
N829   N     0.65629   0.12723   0.78602   0.00000  Uiso   1.00
O830   O     0.64085   0.13627   0.74408   0.00000  Uiso   1.00
O831   O     0.65890   0.08862   0.79796   0.00000  Uiso   1.00
N832   N     0.34372   0.20610   0.88065   0.00000  Uiso   1.00
O833   O     0.35915   0.19707   0.92259   0.00000  Uiso   1.00
O834   O     0.34110   0.24471   0.86871   0.00000  Uiso   1.00
I835   I     0.54981   0.04606   0.73988   0.00000  Uiso   1.00
I836   I     0.45019   0.28727   0.92678   0.00000  Uiso   1.00
I837   I     0.58964   0.23289   0.73572   0.00000  Uiso   1.00
I838   I     0.41036   0.10044   0.93094   0.00000  Uiso   1.00
I839   I     0.58586   0.23556   0.95248   0.00000  Uiso   1.00
I840   I     0.41414   0.09777   0.71418   0.00000  Uiso   1.00
O841   O     0.83333   0.10558   0.87154   0.00000  Uiso   1.00
O842   O     0.83334   0.22775   0.79513   0.00000  Uiso   1.00
O843   O     0.83333   0.10559   0.79510   0.00000  Uiso   1.00
O844   O     0.83334   0.22774   0.87157   0.00000  Uiso   1.00
C845   C     0.83508   0.08684   0.83326   0.00000  Uiso   1.00
C846   C     0.83159   0.24649   0.83341   0.00000  Uiso   1.00
O847   O     0.75725   0.16666   0.86261   0.00000  Uiso   1.00
O848   O     0.90942   0.16667   0.80405   0.00000  Uiso   1.00
O849   O     0.75725   0.16667   0.78617   0.00000  Uiso   1.00
O850   O     0.90942   0.16666   0.88050   0.00000  Uiso   1.00
C851   C     0.73400   0.16619   0.82176   0.00000  Uiso   1.00
C852   C     0.93267   0.16714   0.84491   0.00000  Uiso   1.00
Zn853  Zn    0.83333   0.16666   0.88437   0.00000  Uiso   1.00
Zn854  Zn    0.83333   0.16667   0.78229   0.00000  Uiso   1.00
N855   N     0.83332   0.16666   0.95240   0.00000  Uiso   1.00
N856   N     0.83335   0.16668   0.71427   0.00000  Uiso   1.00
C857   C     0.67934   0.15910   0.81716   0.00000  Uiso   1.00
C858   C     0.98733   0.17423   0.84951   0.00000  Uiso   1.00
C859   C     0.85114   0.02068   0.79650   0.00000  Uiso   1.00
C860   C     0.81553   0.31265   0.87017   0.00000  Uiso   1.00
C861   C     0.84757   0.31156   0.79725   0.00000  Uiso   1.00
C862   C     0.81910   0.02177   0.86941   0.00000  Uiso   1.00
H863   H     0.85896   0.29496   0.76914   0.00000  Uiso   1.00
H864   H     0.80771   0.03837   0.89753   0.00000  Uiso   1.00
C865   C     0.83072   0.29069   0.83381   0.00000  Uiso   1.00
C866   C     0.83594   0.04265   0.83286   0.00000  Uiso   1.00
C867   C     0.86739   0.19264   0.69475   0.00000  Uiso   1.00
C868   C     0.79928   0.14069   0.97192   0.00000  Uiso   1.00
C869   C     0.86707   0.19284   0.98030   0.00000  Uiso   1.00
C870   C     0.79960   0.14049   0.68636   0.00000  Uiso   1.00
N871   N     0.98962   0.12723   0.78602   0.00000  Uiso   1.00
O872   O     0.97418   0.13627   0.74408   0.00000  Uiso   1.00
O873   O     0.99223   0.08862   0.79796   0.00000  Uiso   1.00
N874   N     0.67705   0.20610   0.88065   0.00000  Uiso   1.00
O875   O     0.69249   0.19707   0.92259   0.00000  Uiso   1.00
O876   O     0.67444   0.24471   0.86871   0.00000  Uiso   1.00
I877   I     0.88314   0.04606   0.73988   0.00000  Uiso   1.00
I878   I     0.78352   0.28727   0.92678   0.00000  Uiso   1.00
I879   I     0.92297   0.23289   0.73572   0.00000  Uiso   1.00
I880   I     0.74370   0.10044   0.93094   0.00000  Uiso   1.00
I881   I     0.91919   0.23556   0.95248   0.00000  Uiso   1.00
I882   I     0.74747   0.09777   0.71418   0.00000  Uiso   1.00
O883   O     0.16666   0.43892   0.87154   0.00000  Uiso   1.00
O884   O     0.16667   0.56108   0.79513   0.00000  Uiso   1.00
O885   O     0.16666   0.43893   0.79510   0.00000  Uiso   1.00
O886   O     0.16667   0.56107   0.87157   0.00000  Uiso   1.00
C887   C     0.16841   0.42018   0.83326   0.00000  Uiso   1.00
C888   C     0.16492   0.57982   0.83341   0.00000  Uiso   1.00
O889   O     0.09058   0.50000   0.86261   0.00000  Uiso   1.00
O890   O     0.24275   0.50000   0.80405   0.00000  Uiso   1.00
O891   O     0.09058   0.50000   0.78617   0.00000  Uiso   1.00
O892   O     0.24275   0.50000   0.88050   0.00000  Uiso   1.00
C893   C     0.06733   0.49953   0.82176   0.00000  Uiso   1.00
C894   C     0.26600   0.50047   0.84491   0.00000  Uiso   1.00
Zn895  Zn    0.16667   0.49999   0.88437   0.00000  Uiso   1.00
Zn896  Zn    0.16667   0.50001   0.78229   0.00000  Uiso   1.00
N897   N     0.16665   0.49999   0.95240   0.00000  Uiso   1.00
N898   N     0.16668   0.50001   0.71427   0.00000  Uiso   1.00
C899   C     0.01267   0.49244   0.81716   0.00000  Uiso   1.00
C900   C     0.32066   0.50756   0.84951   0.00000  Uiso   1.00
C901   C     0.18447   0.35401   0.79650   0.00000  Uiso   1.00
C902   C     0.14886   0.64598   0.87017   0.00000  Uiso   1.00
C903   C     0.18090   0.64490   0.79725   0.00000  Uiso   1.00
C904   C     0.15243   0.35510   0.86941   0.00000  Uiso   1.00
H905   H     0.19229   0.62830   0.76914   0.00000  Uiso   1.00
H906   H     0.14104   0.37170   0.89753   0.00000  Uiso   1.00
C907   C     0.16406   0.62402   0.83381   0.00000  Uiso   1.00
C908   C     0.16928   0.37598   0.83286   0.00000  Uiso   1.00
C909   C     0.20072   0.52597   0.69475   0.00000  Uiso   1.00
C910   C     0.13261   0.47403   0.97192   0.00000  Uiso   1.00
C911   C     0.20040   0.52618   0.98030   0.00000  Uiso   1.00
C912   C     0.13293   0.47382   0.68636   0.00000  Uiso   1.00
N913   N     0.32295   0.46057   0.78602   0.00000  Uiso   1.00
O914   O     0.30752   0.46960   0.74408   0.00000  Uiso   1.00
O915   O     0.32557   0.42195   0.79796   0.00000  Uiso   1.00
N916   N     0.01038   0.53943   0.88065   0.00000  Uiso   1.00
O917   O     0.02582   0.53040   0.92259   0.00000  Uiso   1.00
O918   O     0.00777   0.57805   0.86871   0.00000  Uiso   1.00
I919   I     0.21648   0.37939   0.73988   0.00000  Uiso   1.00
I920   I     0.11686   0.62061   0.92678   0.00000  Uiso   1.00
I921   I     0.25631   0.56622   0.73572   0.00000  Uiso   1.00
I922   I     0.07703   0.43378   0.93094   0.00000  Uiso   1.00
I923   I     0.25253   0.56890   0.95248   0.00000  Uiso   1.00
I924   I     0.08081   0.43110   0.71418   0.00000  Uiso   1.00
O925   O     0.50000   0.43892   0.87154   0.00000  Uiso   1.00
O926   O     0.50000   0.56108   0.79513   0.00000  Uiso   1.00
O927   O     0.50000   0.43893   0.79510   0.00000  Uiso   1.00
O928   O     0.50000   0.56107   0.87157   0.00000  Uiso   1.00
C929   C     0.50175   0.42018   0.83326   0.00000  Uiso   1.00
C930   C     0.49825   0.57982   0.83341   0.00000  Uiso   1.00
O931   O     0.42392   0.50000   0.86261   0.00000  Uiso   1.00
O932   O     0.57608   0.50000   0.80405   0.00000  Uiso   1.00
O933   O     0.42392   0.50000   0.78617   0.00000  Uiso   1.00
O934   O     0.57608   0.50000   0.88050   0.00000  Uiso   1.00
C935   C     0.40066   0.49953   0.82176   0.00000  Uiso   1.00
C936   C     0.59934   0.50047   0.84491   0.00000  Uiso   1.00
Zn937  Zn    0.50000   0.49999   0.88437   0.00000  Uiso   1.00
Zn938  Zn    0.50000   0.50001   0.78229   0.00000  Uiso   1.00
N939   N     0.49999   0.49999   0.95240   0.00000  Uiso   1.00
N940   N     0.50001   0.50001   0.71427   0.00000  Uiso   1.00
C941   C     0.34601   0.49244   0.81716   0.00000  Uiso   1.00
C942   C     0.65399   0.50756   0.84951   0.00000  Uiso   1.00
C943   C     0.51781   0.35401   0.79650   0.00000  Uiso   1.00
C944   C     0.48219   0.64598   0.87017   0.00000  Uiso   1.00
C945   C     0.51423   0.64490   0.79725   0.00000  Uiso   1.00
C946   C     0.48577   0.35510   0.86941   0.00000  Uiso   1.00
H947   H     0.52562   0.62830   0.76914   0.00000  Uiso   1.00
H948   H     0.47438   0.37170   0.89753   0.00000  Uiso   1.00
C949   C     0.49739   0.62402   0.83381   0.00000  Uiso   1.00
C950   C     0.50261   0.37598   0.83286   0.00000  Uiso   1.00
C951   C     0.53406   0.52597   0.69475   0.00000  Uiso   1.00
C952   C     0.46594   0.47403   0.97192   0.00000  Uiso   1.00
C953   C     0.53374   0.52618   0.98030   0.00000  Uiso   1.00
C954   C     0.46627   0.47382   0.68636   0.00000  Uiso   1.00
N955   N     0.65629   0.46057   0.78602   0.00000  Uiso   1.00
O956   O     0.64085   0.46960   0.74408   0.00000  Uiso   1.00
O957   O     0.65890   0.42195   0.79796   0.00000  Uiso   1.00
N958   N     0.34372   0.53943   0.88065   0.00000  Uiso   1.00
O959   O     0.35915   0.53040   0.92259   0.00000  Uiso   1.00
O960   O     0.34110   0.57805   0.86871   0.00000  Uiso   1.00
I961   I     0.54981   0.37939   0.73988   0.00000  Uiso   1.00
I962   I     0.45019   0.62061   0.92678   0.00000  Uiso   1.00
I963   I     0.58964   0.56622   0.73572   0.00000  Uiso   1.00
I964   I     0.41036   0.43378   0.93094   0.00000  Uiso   1.00
I965   I     0.58586   0.56890   0.95248   0.00000  Uiso   1.00
I966   I     0.41414   0.43110   0.71418   0.00000  Uiso   1.00
O967   O     0.83333   0.43892   0.87154   0.00000  Uiso   1.00
O968   O     0.83334   0.56108   0.79513   0.00000  Uiso   1.00
O969   O     0.83333   0.43893   0.79510   0.00000  Uiso   1.00
O970   O     0.83334   0.56107   0.87157   0.00000  Uiso   1.00
C971   C     0.83508   0.42018   0.83326   0.00000  Uiso   1.00
C972   C     0.83159   0.57982   0.83341   0.00000  Uiso   1.00
O973   O     0.75725   0.50000   0.86261   0.00000  Uiso   1.00
O974   O     0.90942   0.50000   0.80405   0.00000  Uiso   1.00
O975   O     0.75725   0.50000   0.78617   0.00000  Uiso   1.00
O976   O     0.90942   0.50000   0.88050   0.00000  Uiso   1.00
C977   C     0.73400   0.49953   0.82176   0.00000  Uiso   1.00
C978   C     0.93267   0.50047   0.84491   0.00000  Uiso   1.00
Zn979  Zn    0.83333   0.49999   0.88437   0.00000  Uiso   1.00
Zn980  Zn    0.83333   0.50001   0.78229   0.00000  Uiso   1.00
N981   N     0.83332   0.49999   0.95240   0.00000  Uiso   1.00
N982   N     0.83335   0.50001   0.71427   0.00000  Uiso   1.00
C983   C     0.67934   0.49244   0.81716   0.00000  Uiso   1.00
C984   C     0.98733   0.50756   0.84951   0.00000  Uiso   1.00
C985   C     0.85114   0.35401   0.79650   0.00000  Uiso   1.00
C986   C     0.81553   0.64598   0.87017   0.00000  Uiso   1.00
C987   C     0.84757   0.64490   0.79725   0.00000  Uiso   1.00
C988   C     0.81910   0.35510   0.86941   0.00000  Uiso   1.00
H989   H     0.85896   0.62830   0.76914   0.00000  Uiso   1.00
H990   H     0.80771   0.37170   0.89753   0.00000  Uiso   1.00
C991   C     0.83072   0.62402   0.83381   0.00000  Uiso   1.00
C992   C     0.83594   0.37598   0.83286   0.00000  Uiso   1.00
C993   C     0.86739   0.52597   0.69475   0.00000  Uiso   1.00
C994   C     0.79928   0.47403   0.97192   0.00000  Uiso   1.00
C995   C     0.86707   0.52618   0.98030   0.00000  Uiso   1.00
C996   C     0.79960   0.47382   0.68636   0.00000  Uiso   1.00
N997   N     0.98962   0.46057   0.78602   0.00000  Uiso   1.00
O998   O     0.97418   0.46960   0.74408   0.00000  Uiso   1.00
O999   O     0.99223   0.42195   0.79796   0.00000  Uiso   1.00
N1000  N     0.67705   0.53943   0.88065   0.00000  Uiso   1.00
O1001  O     0.69249   0.53040   0.92259   0.00000  Uiso   1.00
O1002  O     0.67444   0.57805   0.86871   0.00000  Uiso   1.00
I1003  I     0.88314   0.37939   0.73988   0.00000  Uiso   1.00
I1004  I     0.78352   0.62061   0.92678   0.00000  Uiso   1.00
I1005  I     0.92297   0.56622   0.73572   0.00000  Uiso   1.00
I1006  I     0.74370   0.43378   0.93094   0.00000  Uiso   1.00
I1007  I     0.91919   0.56890   0.95248   0.00000  Uiso   1.00
I1008  I     0.74747   0.43110   0.71418   0.00000  Uiso   1.00
O1009  O     0.16666   0.77225   0.87154   0.00000  Uiso   1.00
O1010  O     0.16667   0.89442   0.79513   0.00000  Uiso   1.00
O1011  O     0.16666   0.77226   0.79510   0.00000  Uiso   1.00
O1012  O     0.16667   0.89441   0.87157   0.00000  Uiso   1.00
C1013  C     0.16841   0.75351   0.83326   0.00000  Uiso   1.00
C1014  C     0.16492   0.91316   0.83341   0.00000  Uiso   1.00
O1015  O     0.09058   0.83333   0.86261   0.00000  Uiso   1.00
O1016  O     0.24275   0.83334   0.80405   0.00000  Uiso   1.00
O1017  O     0.09058   0.83334   0.78617   0.00000  Uiso   1.00
O1018  O     0.24275   0.83333   0.88050   0.00000  Uiso   1.00
C1019  C     0.06733   0.83286   0.82176   0.00000  Uiso   1.00
C1020  C     0.26600   0.83381   0.84491   0.00000  Uiso   1.00
Zn1021 Zn    0.16667   0.83333   0.88437   0.00000  Uiso   1.00
Zn1022 Zn    0.16667   0.83334   0.78229   0.00000  Uiso   1.00
N1023  N     0.16665   0.83332   0.95240   0.00000  Uiso   1.00
N1024  N     0.16668   0.83334   0.71427   0.00000  Uiso   1.00
C1025  C     0.01267   0.82577   0.81716   0.00000  Uiso   1.00
C1026  C     0.32066   0.84090   0.84951   0.00000  Uiso   1.00
C1027  C     0.18447   0.68735   0.79650   0.00000  Uiso   1.00
C1028  C     0.14886   0.97932   0.87017   0.00000  Uiso   1.00
C1029  C     0.18090   0.97823   0.79725   0.00000  Uiso   1.00
C1030  C     0.15243   0.68844   0.86941   0.00000  Uiso   1.00
H1031  H     0.19229   0.96163   0.76914   0.00000  Uiso   1.00
H1032  H     0.14104   0.70504   0.89753   0.00000  Uiso   1.00
C1033  C     0.16406   0.95735   0.83381   0.00000  Uiso   1.00
C1034  C     0.16928   0.70931   0.83286   0.00000  Uiso   1.00
C1035  C     0.20072   0.85931   0.69475   0.00000  Uiso   1.00
C1036  C     0.13261   0.80736   0.97192   0.00000  Uiso   1.00
C1037  C     0.20040   0.85951   0.98030   0.00000  Uiso   1.00
C1038  C     0.13293   0.80715   0.68636   0.00000  Uiso   1.00
N1039  N     0.32295   0.79390   0.78602   0.00000  Uiso   1.00
O1040  O     0.30752   0.80293   0.74408   0.00000  Uiso   1.00
O1041  O     0.32557   0.75529   0.79796   0.00000  Uiso   1.00
N1042  N     0.01038   0.87277   0.88065   0.00000  Uiso   1.00
O1043  O     0.02582   0.86373   0.92259   0.00000  Uiso   1.00
O1044  O     0.00777   0.91138   0.86871   0.00000  Uiso   1.00
I1045  I     0.21648   0.71273   0.73988   0.00000  Uiso   1.00
I1046  I     0.11686   0.95394   0.92678   0.00000  Uiso   1.00
I1047  I     0.25631   0.89956   0.73572   0.00000  Uiso   1.00
I1048  I     0.07703   0.76711   0.93094   0.00000  Uiso   1.00
I1049  I     0.25253   0.90223   0.95248   0.00000  Uiso   1.00
I1050  I     0.08081   0.76444   0.71418   0.00000  Uiso   1.00
O1051  O     0.50000   0.77225   0.87154   0.00000  Uiso   1.00
O1052  O     0.50000   0.89442   0.79513   0.00000  Uiso   1.00
O1053  O     0.50000   0.77226   0.79510   0.00000  Uiso   1.00
O1054  O     0.50000   0.89441   0.87157   0.00000  Uiso   1.00
C1055  C     0.50175   0.75351   0.83326   0.00000  Uiso   1.00
C1056  C     0.49825   0.91316   0.83341   0.00000  Uiso   1.00
O1057  O     0.42392   0.83333   0.86261   0.00000  Uiso   1.00
O1058  O     0.57608   0.83334   0.80405   0.00000  Uiso   1.00
O1059  O     0.42392   0.83334   0.78617   0.00000  Uiso   1.00
O1060  O     0.57608   0.83333   0.88050   0.00000  Uiso   1.00
C1061  C     0.40066   0.83286   0.82176   0.00000  Uiso   1.00
C1062  C     0.59934   0.83381   0.84491   0.00000  Uiso   1.00
Zn1063 Zn    0.50000   0.83333   0.88437   0.00000  Uiso   1.00
Zn1064 Zn    0.50000   0.83334   0.78229   0.00000  Uiso   1.00
N1065  N     0.49999   0.83332   0.95240   0.00000  Uiso   1.00
N1066  N     0.50001   0.83334   0.71427   0.00000  Uiso   1.00
C1067  C     0.34601   0.82577   0.81716   0.00000  Uiso   1.00
C1068  C     0.65399   0.84090   0.84951   0.00000  Uiso   1.00
C1069  C     0.51781   0.68735   0.79650   0.00000  Uiso   1.00
C1070  C     0.48219   0.97932   0.87017   0.00000  Uiso   1.00
C1071  C     0.51423   0.97823   0.79725   0.00000  Uiso   1.00
C1072  C     0.48577   0.68844   0.86941   0.00000  Uiso   1.00
H1073  H     0.52562   0.96163   0.76914   0.00000  Uiso   1.00
H1074  H     0.47438   0.70504   0.89753   0.00000  Uiso   1.00
C1075  C     0.49739   0.95735   0.83381   0.00000  Uiso   1.00
C1076  C     0.50261   0.70931   0.83286   0.00000  Uiso   1.00
C1077  C     0.53406   0.85931   0.69475   0.00000  Uiso   1.00
C1078  C     0.46594   0.80736   0.97192   0.00000  Uiso   1.00
C1079  C     0.53374   0.85951   0.98030   0.00000  Uiso   1.00
C1080  C     0.46627   0.80715   0.68636   0.00000  Uiso   1.00
N1081  N     0.65629   0.79390   0.78602   0.00000  Uiso   1.00
O1082  O     0.64085   0.80293   0.74408   0.00000  Uiso   1.00
O1083  O     0.65890   0.75529   0.79796   0.00000  Uiso   1.00
N1084  N     0.34372   0.87277   0.88065   0.00000  Uiso   1.00
O1085  O     0.35915   0.86373   0.92259   0.00000  Uiso   1.00
O1086  O     0.34110   0.91138   0.86871   0.00000  Uiso   1.00
I1087  I     0.54981   0.71273   0.73988   0.00000  Uiso   1.00
I1088  I     0.45019   0.95394   0.92678   0.00000  Uiso   1.00
I1089  I     0.58964   0.89956   0.73572   0.00000  Uiso   1.00
I1090  I     0.41036   0.76711   0.93094   0.00000  Uiso   1.00
I1091  I     0.58586   0.90223   0.95248   0.00000  Uiso   1.00
I1092  I     0.41414   0.76444   0.71418   0.00000  Uiso   1.00
O1093  O     0.83333   0.77225   0.87154   0.00000  Uiso   1.00
O1094  O     0.83334   0.89442   0.79513   0.00000  Uiso   1.00
O1095  O     0.83333   0.77226   0.79510   0.00000  Uiso   1.00
O1096  O     0.83334   0.89441   0.87157   0.00000  Uiso   1.00
C1097  C     0.83508   0.75351   0.83326   0.00000  Uiso   1.00
C1098  C     0.83159   0.91316   0.83341   0.00000  Uiso   1.00
O1099  O     0.75725   0.83333   0.86261   0.00000  Uiso   1.00
O1100  O     0.90942   0.83334   0.80405   0.00000  Uiso   1.00
O1101  O     0.75725   0.83334   0.78617   0.00000  Uiso   1.00
O1102  O     0.90942   0.83333   0.88050   0.00000  Uiso   1.00
C1103  C     0.73400   0.83286   0.82176   0.00000  Uiso   1.00
C1104  C     0.93267   0.83381   0.84491   0.00000  Uiso   1.00
Zn1105 Zn    0.83333   0.83333   0.88437   0.00000  Uiso   1.00
Zn1106 Zn    0.83333   0.83334   0.78229   0.00000  Uiso   1.00
N1107  N     0.83332   0.83332   0.95240   0.00000  Uiso   1.00
N1108  N     0.83335   0.83334   0.71427   0.00000  Uiso   1.00
C1109  C     0.67934   0.82577   0.81716   0.00000  Uiso   1.00
C1110  C     0.98733   0.84090   0.84951   0.00000  Uiso   1.00
C1111  C     0.85114   0.68735   0.79650   0.00000  Uiso   1.00
C1112  C     0.81553   0.97932   0.87017   0.00000  Uiso   1.00
C1113  C     0.84757   0.97823   0.79725   0.00000  Uiso   1.00
C1114  C     0.81910   0.68844   0.86941   0.00000  Uiso   1.00
H1115  H     0.85896   0.96163   0.76914   0.00000  Uiso   1.00
H1116  H     0.80771   0.70504   0.89753   0.00000  Uiso   1.00
C1117  C     0.83072   0.95735   0.83381   0.00000  Uiso   1.00
C1118  C     0.83594   0.70931   0.83286   0.00000  Uiso   1.00
C1119  C     0.86739   0.85931   0.69475   0.00000  Uiso   1.00
C1120  C     0.79928   0.80736   0.97192   0.00000  Uiso   1.00
C1121  C     0.86707   0.85951   0.98030   0.00000  Uiso   1.00
C1122  C     0.79960   0.80715   0.68636   0.00000  Uiso   1.00
N1123  N     0.98962   0.79390   0.78602   0.00000  Uiso   1.00
O1124  O     0.97418   0.80293   0.74408   0.00000  Uiso   1.00
O1125  O     0.99223   0.75529   0.79796   0.00000  Uiso   1.00
N1126  N     0.67705   0.87277   0.88065   0.00000  Uiso   1.00
O1127  O     0.69249   0.86373   0.92259   0.00000  Uiso   1.00
O1128  O     0.67444   0.91138   0.86871   0.00000  Uiso   1.00
I1129  I     0.88314   0.71273   0.73988   0.00000  Uiso   1.00
I1130  I     0.78352   0.95394   0.92678   0.00000  Uiso   1.00
I1131  I     0.92297   0.89956   0.73572   0.00000  Uiso   1.00
I1132  I     0.74370   0.76711   0.93094   0.00000  Uiso   1.00
I1133  I     0.91919   0.90223   0.95248   0.00000  Uiso   1.00
I1134  I     0.74747   0.76444   0.71418   0.00000  Uiso   1.00
loop_
_geom_bond_atom_site_label_1
_geom_bond_atom_site_label_2
_geom_bond_distance
_geom_bond_site_symmetry_2
_ccdc_geom_bond_type
O1     C5      1.300   .     A
O1     Zn13    2.008   .     S
O2     C6      1.300   .     A
O2     Zn14    2.008   .     S
O3     Zn14    2.010   .     S
O3     C5      1.290   .     A
O4     C6      1.290   .     A
O4     Zn13    2.010   .     S
C5     C26     1.428   .     S
C6     C25     1.428   .     S
O7     C11     1.284   .     A
O7     Zn13    1.984   .     S
O8     C12     1.284   .     A
O8     Zn14    1.984   .     S
O9     Zn14    1.987   .     S
O9     C11     1.294   .     A
O10    C12     1.294   .     A
O10    Zn13    1.987   .     S
C11    C17     1.408   .     S
C12    C18     1.408   .     S
Zn13   N15     2.035   .     S
Zn14   N16     2.035   .     S
N15    C28     1.376   .     A
N15    C29     1.375   .     A
N16    C27     1.376   .     A
N16    C30     1.375   .     A
C17    C102    1.345   1_455 S
C17    N115    1.435   1_455 S
C18    C59     1.345   .     S
C18    N76     1.435   .     S
C19    C26     1.408   .     A
C19    I37     2.136   .     S
C19    C273    1.370   1_545 S
C20    I38     2.136   .     S
C20    C25     1.408   .     A
C20    C148    1.370   .     S
C21    H23     1.078   .     S
C21    C25     1.396   .     A
C21    C145    1.370   .     S
C22    H24     1.078   .     S
C22    C26     1.396   .     A
C22    C272    1.370   1_545 S
C27    I39     2.138   .     S
C27    C785    1.428   1_554 S
C28    I40     2.138   .     S
C28    C408    1.428   .     S
C29    I41     2.134   .     S
C29    C405    1.428   .     S
C30    I42     2.134   .     S
C30    C784    1.428   1_554 S
N31    O33     1.300   .     A
N31    O32     1.301   .     A
N31    C59     1.435   .     S
N34    O36     1.301   .     A
N34    O35     1.301   .     A
N34    C102    1.435   1_455 S
O43    C47     1.300   .     A
O43    Zn55    2.008   .     S
O44    C48     1.300   .     A
O44    Zn56    2.008   .     S
O45    Zn56    2.010   .     S
O45    C47     1.290   .     A
O46    C48     1.290   .     A
O46    Zn55    2.010   .     S
C47    C68     1.428   .     S
C48    C67     1.428   .     S
O49    C53     1.284   .     A
O49    Zn55    1.984   .     S
O50    C54     1.284   .     A
O50    Zn56    1.984   .     S
O51    Zn56    1.987   .     S
O51    C53     1.294   .     A
O52    C54     1.294   .     A
O52    Zn55    1.987   .     S
C53    C59     1.408   .     S
C54    C60     1.408   .     S
Zn55   N57     2.035   .     S
Zn56   N58     2.035   .     S
N57    C70     1.376   .     A
N57    C71     1.375   .     A
N58    C69     1.376   .     A
N58    C72     1.375   .     A
C60    C101    1.345   .     S
C60    N118    1.435   .     S
C61    C68     1.408   .     A
C61    I79     2.136   .     S
C61    C315    1.370   1_545 S
C62    I80     2.136   .     S
C62    C67     1.408   .     A
C62    C190    1.370   .     S
C63    H65     1.078   .     S
C63    C67     1.396   .     A
C63    C187    1.370   .     S
C64    H66     1.078   .     S
C64    C68     1.396   .     A
C64    C314    1.370   1_545 S
C69    I81     2.138   .     S
C69    C827    1.428   1_554 S
C70    I82     2.138   .     S
C70    C450    1.428   .     S
C71    I83     2.134   .     S
C71    C447    1.428   .     S
C72    I84     2.134   .     S
C72    C826    1.428   1_554 S
N73    O75     1.300   .     A
N73    O74     1.301   .     A
N73    C101    1.435   .     S
N76    O78     1.301   .     A
N76    O77     1.301   .     A
O85    C89     1.300   .     A
O85    Zn97    2.008   .     S
O86    C90     1.300   .     A
O86    Zn98    2.008   .     S
O87    Zn98    2.010   .     S
O87    C89     1.290   .     A
O88    C90     1.290   .     A
O88    Zn97    2.010   .     S
C89    C110    1.428   .     S
C90    C109    1.428   .     S
O91    C95     1.284   .     A
O91    Zn97    1.984   .     S
O92    C96     1.284   .     A
O92    Zn98    1.984   .     S
O93    Zn98    1.987   .     S
O93    C95     1.294   .     A
O94    C96     1.294   .     A
O94    Zn97    1.987   .     S
C95    C101    1.408   .     S
C96    C102    1.408   .     S
Zn97   N99     2.035   .     S
Zn98   N100    2.035   .     S
N99    C112    1.376   .     A
N99    C113    1.375   .     A
N100   C111    1.376   .     A
N100   C114    1.375   .     A
C102   C17     1.345   1_655 S
C102   N34     1.435   1_655 S
C103   C110    1.408   .     A
C103   I121    2.136   .     S
C103   C357    1.370   1_545 S
C104   I122    2.136   .     S
C104   C109    1.408   .     A
C104   C232    1.370   .     S
C105   H107    1.078   .     S
C105   C109    1.396   .     A
C105   C229    1.370   .     S
C106   H108    1.078   .     S
C106   C110    1.396   .     A
C106   C356    1.370   1_545 S
C111   I123    2.138   .     S
C111   C869    1.428   1_554 S
C112   I124    2.138   .     S
C112   C492    1.428   .     S
C113   I125    2.134   .     S
C113   C489    1.428   .     S
C114   I126    2.134   .     S
C114   C868    1.428   1_554 S
N115   O117    1.300   .     A
N115   O116    1.301   .     A
N115   C17     1.435   1_655 S
N118   O120    1.301   .     A
N118   O119    1.301   .     A
O127   C131    1.300   .     A
O127   Zn139   2.008   .     S
O128   C132    1.300   .     A
O128   Zn140   2.008   .     S
O129   Zn140   2.010   .     S
O129   C131    1.290   .     A
O130   C132    1.290   .     A
O130   Zn139   2.010   .     S
C131   C152    1.428   .     S
C132   C151    1.428   .     S
O133   C137    1.284   .     A
O133   Zn139   1.984   .     S
O134   C138    1.284   .     A
O134   Zn140   1.984   .     S
O135   Zn140   1.987   .     S
O135   C137    1.294   .     A
O136   C138    1.294   .     A
O136   Zn139   1.987   .     S
C137   C143    1.408   .     S
C138   C144    1.408   .     S
Zn139  N141    2.035   .     S
Zn140  N142    2.035   .     S
N141   C154    1.376   .     A
N141   C155    1.375   .     A
N142   C153    1.376   .     A
N142   C156    1.375   .     A
C143   C228    1.345   1_455 S
C143   N241    1.435   1_455 S
C144   C185    1.345   .     S
C144   N202    1.435   .     S
C145   C152    1.408   .     A
C145   I163    2.136   .     S
C146   I164    2.136   .     S
C146   C151    1.408   .     A
C146   C274    1.370   .     S
C147   H149    1.078   .     S
C147   C151    1.396   .     A
C147   C271    1.370   .     S
C148   H150    1.078   .     S
C148   C152    1.396   .     A
C153   I165    2.138   .     S
C153   C911    1.428   1_554 S
C154   I166    2.138   .     S
C154   C534    1.428   .     S
C155   I167    2.134   .     S
C155   C531    1.428   .     S
C156   I168    2.134   .     S
C156   C910    1.428   1_554 S
N157   O159    1.300   .     A
N157   O158    1.301   .     A
N157   C185    1.435   .     S
N160   O162    1.301   .     A
N160   O161    1.301   .     A
N160   C228    1.435   1_455 S
O169   C173    1.300   .     A
O169   Zn181   2.008   .     S
O170   C174    1.300   .     A
O170   Zn182   2.008   .     S
O171   Zn182   2.010   .     S
O171   C173    1.290   .     A
O172   C174    1.290   .     A
O172   Zn181   2.010   .     S
C173   C194    1.428   .     S
C174   C193    1.428   .     S
O175   C179    1.284   .     A
O175   Zn181   1.984   .     S
O176   C180    1.284   .     A
O176   Zn182   1.984   .     S
O177   Zn182   1.987   .     S
O177   C179    1.294   .     A
O178   C180    1.294   .     A
O178   Zn181   1.987   .     S
C179   C185    1.408   .     S
C180   C186    1.408   .     S
Zn181  N183    2.035   .     S
Zn182  N184    2.035   .     S
N183   C196    1.376   .     A
N183   C197    1.375   .     A
N184   C195    1.376   .     A
N184   C198    1.375   .     A
C186   C227    1.345   .     S
C186   N244    1.435   .     S
C187   C194    1.408   .     A
C187   I205    2.136   .     S
C188   I206    2.136   .     S
C188   C193    1.408   .     A
C188   C316    1.370   .     S
C189   H191    1.078   .     S
C189   C193    1.396   .     A
C189   C313    1.370   .     S
C190   H192    1.078   .     S
C190   C194    1.396   .     A
C195   I207    2.138   .     S
C195   C953    1.428   1_554 S
C196   I208    2.138   .     S
C196   C576    1.428   .     S
C197   I209    2.134   .     S
C197   C573    1.428   .     S
C198   I210    2.134   .     S
C198   C952    1.428   1_554 S
N199   O201    1.300   .     A
N199   O200    1.301   .     A
N199   C227    1.435   .     S
N202   O204    1.301   .     A
N202   O203    1.301   .     A
O211   C215    1.300   .     A
O211   Zn223   2.008   .     S
O212   C216    1.300   .     A
O212   Zn224   2.008   .     S
O213   Zn224   2.010   .     S
O213   C215    1.290   .     A
O214   C216    1.290   .     A
O214   Zn223   2.010   .     S
C215   C236    1.428   .     S
C216   C235    1.428   .     S
O217   C221    1.284   .     A
O217   Zn223   1.984   .     S
O218   C222    1.284   .     A
O218   Zn224   1.984   .     S
O219   Zn224   1.987   .     S
O219   C221    1.294   .     A
O220   C222    1.294   .     A
O220   Zn223   1.987   .     S
C221   C227    1.408   .     S
C222   C228    1.408   .     S
Zn223  N225    2.035   .     S
Zn224  N226    2.035   .     S
N225   C238    1.376   .     A
N225   C239    1.375   .     A
N226   C237    1.376   .     A
N226   C240    1.375   .     A
C228   C143    1.345   1_655 S
C228   N160    1.435   1_655 S
C229   C236    1.408   .     A
C229   I247    2.136   .     S
C230   I248    2.136   .     S
C230   C235    1.408   .     A
C230   C358    1.370   .     S
C231   H233    1.078   .     S
C231   C235    1.396   .     A
C231   C355    1.370   .     S
C232   H234    1.078   .     S
C232   C236    1.396   .     A
C237   I249    2.138   .     S
C237   C995    1.428   1_554 S
C238   I250    2.138   .     S
C238   C618    1.428   .     S
C239   I251    2.134   .     S
C239   C615    1.428   .     S
C240   I252    2.134   .     S
C240   C994    1.428   1_554 S
N241   O243    1.300   .     A
N241   O242    1.301   .     A
N241   C143    1.435   1_655 S
N244   O246    1.301   .     A
N244   O245    1.301   .     A
O253   C257    1.300   .     A
O253   Zn265   2.008   .     S
O254   C258    1.300   .     A
O254   Zn266   2.008   .     S
O255   Zn266   2.010   .     S
O255   C257    1.290   .     A
O256   C258    1.290   .     A
O256   Zn265   2.010   .     S
C257   C278    1.428   .     S
C258   C277    1.428   .     S
O259   C263    1.284   .     A
O259   Zn265   1.984   .     S
O260   C264    1.284   .     A
O260   Zn266   1.984   .     S
O261   Zn266   1.987   .     S
O261   C263    1.294   .     A
O262   C264    1.294   .     A
O262   Zn265   1.987   .     S
C263   C269    1.408   .     S
C264   C270    1.408   .     S
Zn265  N267    2.035   .     S
Zn266  N268    2.035   .     S
N267   C280    1.376   .     A
N267   C281    1.375   .     A
N268   C279    1.376   .     A
N268   C282    1.375   .     A
C269   C354    1.345   1_455 S
C269   N367    1.435   1_455 S
C270   C311    1.345   .     S
C270   N328    1.435   .     S
C271   C278    1.408   .     A
C271   I289    2.136   .     S
C272   I290    2.136   .     S
C272   C277    1.408   .     A
C272   C22     1.370   1_565 S
C273   H275    1.078   .     S
C273   C277    1.396   .     A
C273   C19     1.370   1_565 S
C274   H276    1.078   .     S
C274   C278    1.396   .     A
C279   I291    2.138   .     S
C279   C1037   1.428   1_554 S
C280   I292    2.138   .     S
C280   C660    1.428   .     S
C281   I293    2.134   .     S
C281   C657    1.428   .     S
C282   I294    2.134   .     S
C282   C1036   1.428   1_554 S
N283   O285    1.300   .     A
N283   O284    1.301   .     A
N283   C311    1.435   .     S
N286   O288    1.301   .     A
N286   O287    1.301   .     A
N286   C354    1.435   1_455 S
O295   C299    1.300   .     A
O295   Zn307   2.008   .     S
O296   C300    1.300   .     A
O296   Zn308   2.008   .     S
O297   Zn308   2.010   .     S
O297   C299    1.290   .     A
O298   C300    1.290   .     A
O298   Zn307   2.010   .     S
C299   C320    1.428   .     S
C300   C319    1.428   .     S
O301   C305    1.284   .     A
O301   Zn307   1.984   .     S
O302   C306    1.284   .     A
O302   Zn308   1.984   .     S
O303   Zn308   1.987   .     S
O303   C305    1.294   .     A
O304   C306    1.294   .     A
O304   Zn307   1.987   .     S
C305   C311    1.408   .     S
C306   C312    1.408   .     S
Zn307  N309    2.035   .     S
Zn308  N310    2.035   .     S
N309   C322    1.376   .     A
N309   C323    1.375   .     A
N310   C321    1.376   .     A
N310   C324    1.375   .     A
C312   C353    1.345   .     S
C312   N370    1.435   .     S
C313   C320    1.408   .     A
C313   I331    2.136   .     S
C314   I332    2.136   .     S
C314   C319    1.408   .     A
C314   C64     1.370   1_565 S
C315   H317    1.078   .     S
C315   C319    1.396   .     A
C315   C61     1.370   1_565 S
C316   H318    1.078   .     S
C316   C320    1.396   .     A
C321   I333    2.138   .     S
C321   C1079   1.428   1_554 S
C322   I334    2.138   .     S
C322   C702    1.428   .     S
C323   I335    2.134   .     S
C323   C699    1.428   .     S
C324   I336    2.134   .     S
C324   C1078   1.428   1_554 S
N325   O327    1.300   .     A
N325   O326    1.301   .     A
N325   C353    1.435   .     S
N328   O330    1.301   .     A
N328   O329    1.301   .     A
O337   C341    1.300   .     A
O337   Zn349   2.008   .     S
O338   C342    1.300   .     A
O338   Zn350   2.008   .     S
O339   Zn350   2.010   .     S
O339   C341    1.290   .     A
O340   C342    1.290   .     A
O340   Zn349   2.010   .     S
C341   C362    1.428   .     S
C342   C361    1.428   .     S
O343   C347    1.284   .     A
O343   Zn349   1.984   .     S
O344   C348    1.284   .     A
O344   Zn350   1.984   .     S
O345   Zn350   1.987   .     S
O345   C347    1.294   .     A
O346   C348    1.294   .     A
O346   Zn349   1.987   .     S
C347   C353    1.408   .     S
C348   C354    1.408   .     S
Zn349  N351    2.035   .     S
Zn350  N352    2.035   .     S
N351   C364    1.376   .     A
N351   C365    1.375   .     A
N352   C363    1.376   .     A
N352   C366    1.375   .     A
C354   C269    1.345   1_655 S
C354   N286    1.435   1_655 S
C355   C362    1.408   .     A
C355   I373    2.136   .     S
C356   I374    2.136   .     S
C356   C361    1.408   .     A
C356   C106    1.370   1_565 S
C357   H359    1.078   .     S
C357   C361    1.396   .     A
C357   C103    1.370   1_565 S
C358   H360    1.078   .     S
C358   C362    1.396   .     A
C363   I375    2.138   .     S
C363   C1121   1.428   1_554 S
C364   I376    2.138   .     S
C364   C744    1.428   .     S
C365   I377    2.134   .     S
C365   C741    1.428   .     S
C366   I378    2.134   .     S
C366   C1120   1.428   1_554 S
N367   O369    1.300   .     A
N367   O368    1.301   .     A
N367   C269    1.435   1_655 S
N370   O372    1.301   .     A
N370   O371    1.301   .     A
O379   C383    1.300   .     A
O379   Zn391   2.008   .     S
O380   C384    1.300   .     A
O380   Zn392   2.008   .     S
O381   Zn392   2.010   .     S
O381   C383    1.290   .     A
O382   C384    1.290   .     A
O382   Zn391   2.010   .     S
C383   C404    1.428   .     S
C384   C403    1.428   .     S
O385   C389    1.284   .     A
O385   Zn391   1.984   .     S
O386   C390    1.284   .     A
O386   Zn392   1.984   .     S
O387   Zn392   1.987   .     S
O387   C389    1.294   .     A
O388   C390    1.294   .     A
O388   Zn391   1.987   .     S
C389   C395    1.408   .     S
C390   C396    1.408   .     S
Zn391  N393    2.035   .     S
Zn392  N394    2.035   .     S
N393   C406    1.376   .     A
N393   C407    1.375   .     A
N394   C405    1.376   .     A
N394   C408    1.375   .     A
C395   C480    1.345   1_455 S
C395   N493    1.435   1_455 S
C396   C437    1.345   .     S
C396   N454    1.435   .     S
C397   C404    1.408   .     A
C397   I415    2.136   .     S
C397   C651    1.370   1_545 S
C398   I416    2.136   .     S
C398   C403    1.408   .     A
C398   C526    1.370   .     S
C399   H401    1.078   .     S
C399   C403    1.396   .     A
C399   C523    1.370   .     S
C400   H402    1.078   .     S
C400   C404    1.396   .     A
C400   C650    1.370   1_545 S
C405   I417    2.138   .     S
C406   I418    2.138   .     S
C406   C786    1.428   .     S
C407   I419    2.134   .     S
C407   C783    1.428   .     S
C408   I420    2.134   .     S
N409   O411    1.300   .     A
N409   O410    1.301   .     A
N409   C437    1.435   .     S
N412   O414    1.301   .     A
N412   O413    1.301   .     A
N412   C480    1.435   1_455 S
O421   C425    1.300   .     A
O421   Zn433   2.008   .     S
O422   C426    1.300   .     A
O422   Zn434   2.008   .     S
O423   Zn434   2.010   .     S
O423   C425    1.290   .     A
O424   C426    1.290   .     A
O424   Zn433   2.010   .     S
C425   C446    1.428   .     S
C426   C445    1.428   .     S
O427   C431    1.284   .     A
O427   Zn433   1.984   .     S
O428   C432    1.284   .     A
O428   Zn434   1.984   .     S
O429   Zn434   1.987   .     S
O429   C431    1.294   .     A
O430   C432    1.294   .     A
O430   Zn433   1.987   .     S
C431   C437    1.408   .     S
C432   C438    1.408   .     S
Zn433  N435    2.035   .     S
Zn434  N436    2.035   .     S
N435   C448    1.376   .     A
N435   C449    1.375   .     A
N436   C447    1.376   .     A
N436   C450    1.375   .     A
C438   C479    1.345   .     S
C438   N496    1.435   .     S
C439   C446    1.408   .     A
C439   I457    2.136   .     S
C439   C693    1.370   1_545 S
C440   I458    2.136   .     S
C440   C445    1.408   .     A
C440   C568    1.370   .     S
C441   H443    1.078   .     S
C441   C445    1.396   .     A
C441   C565    1.370   .     S
C442   H444    1.078   .     S
C442   C446    1.396   .     A
C442   C692    1.370   1_545 S
C447   I459    2.138   .     S
C448   I460    2.138   .     S
C448   C828    1.428   .     S
C449   I461    2.134   .     S
C449   C825    1.428   .     S
C450   I462    2.134   .     S
N451   O453    1.300   .     A
N451   O452    1.301   .     A
N451   C479    1.435   .     S
N454   O456    1.301   .     A
N454   O455    1.301   .     A
O463   C467    1.300   .     A
O463   Zn475   2.008   .     S
O464   C468    1.300   .     A
O464   Zn476   2.008   .     S
O465   Zn476   2.010   .     S
O465   C467    1.290   .     A
O466   C468    1.290   .     A
O466   Zn475   2.010   .     S
C467   C488    1.428   .     S
C468   C487    1.428   .     S
O469   C473    1.284   .     A
O469   Zn475   1.984   .     S
O470   C474    1.284   .     A
O470   Zn476   1.984   .     S
O471   Zn476   1.987   .     S
O471   C473    1.294   .     A
O472   C474    1.294   .     A
O472   Zn475   1.987   .     S
C473   C479    1.408   .     S
C474   C480    1.408   .     S
Zn475  N477    2.035   .     S
Zn476  N478    2.035   .     S
N477   C490    1.376   .     A
N477   C491    1.375   .     A
N478   C489    1.376   .     A
N478   C492    1.375   .     A
C480   C395    1.345   1_655 S
C480   N412    1.435   1_655 S
C481   C488    1.408   .     A
C481   I499    2.136   .     S
C481   C735    1.370   1_545 S
C482   I500    2.136   .     S
C482   C487    1.408   .     A
C482   C610    1.370   .     S
C483   H485    1.078   .     S
C483   C487    1.396   .     A
C483   C607    1.370   .     S
C484   H486    1.078   .     S
C484   C488    1.396   .     A
C484   C734    1.370   1_545 S
C489   I501    2.138   .     S
C490   I502    2.138   .     S
C490   C870    1.428   .     S
C491   I503    2.134   .     S
C491   C867    1.428   .     S
C492   I504    2.134   .     S
N493   O495    1.300   .     A
N493   O494    1.301   .     A
N493   C395    1.435   1_655 S
N496   O498    1.301   .     A
N496   O497    1.301   .     A
O505   C509    1.300   .     A
O505   Zn517   2.008   .     S
O506   C510    1.300   .     A
O506   Zn518   2.008   .     S
O507   Zn518   2.010   .     S
O507   C509    1.290   .     A
O508   C510    1.290   .     A
O508   Zn517   2.010   .     S
C509   C530    1.428   .     S
C510   C529    1.428   .     S
O511   C515    1.284   .     A
O511   Zn517   1.984   .     S
O512   C516    1.284   .     A
O512   Zn518   1.984   .     S
O513   Zn518   1.987   .     S
O513   C515    1.294   .     A
O514   C516    1.294   .     A
O514   Zn517   1.987   .     S
C515   C521    1.408   .     S
C516   C522    1.408   .     S
Zn517  N519    2.035   .     S
Zn518  N520    2.035   .     S
N519   C532    1.376   .     A
N519   C533    1.375   .     A
N520   C531    1.376   .     A
N520   C534    1.375   .     A
C521   C606    1.345   1_455 S
C521   N619    1.435   1_455 S
C522   C563    1.345   .     S
C522   N580    1.435   .     S
C523   C530    1.408   .     A
C523   I541    2.136   .     S
C524   I542    2.136   .     S
C524   C529    1.408   .     A
C524   C652    1.370   .     S
C525   H527    1.078   .     S
C525   C529    1.396   .     A
C525   C649    1.370   .     S
C526   H528    1.078   .     S
C526   C530    1.396   .     A
C531   I543    2.138   .     S
C532   I544    2.138   .     S
C532   C912    1.428   .     S
C533   I545    2.134   .     S
C533   C909    1.428   .     S
C534   I546    2.134   .     S
N535   O537    1.300   .     A
N535   O536    1.301   .     A
N535   C563    1.435   .     S
N538   O540    1.301   .     A
N538   O539    1.301   .     A
N538   C606    1.435   1_455 S
O547   C551    1.300   .     A
O547   Zn559   2.008   .     S
O548   C552    1.300   .     A
O548   Zn560   2.008   .     S
O549   Zn560   2.010   .     S
O549   C551    1.290   .     A
O550   C552    1.290   .     A
O550   Zn559   2.010   .     S
C551   C572    1.428   .     S
C552   C571    1.428   .     S
O553   C557    1.284   .     A
O553   Zn559   1.984   .     S
O554   C558    1.284   .     A
O554   Zn560   1.984   .     S
O555   Zn560   1.987   .     S
O555   C557    1.294   .     A
O556   C558    1.294   .     A
O556   Zn559   1.987   .     S
C557   C563    1.408   .     S
C558   C564    1.408   .     S
Zn559  N561    2.035   .     S
Zn560  N562    2.035   .     S
N561   C574    1.376   .     A
N561   C575    1.375   .     A
N562   C573    1.376   .     A
N562   C576    1.375   .     A
C564   C605    1.345   .     S
C564   N622    1.435   .     S
C565   C572    1.408   .     A
C565   I583    2.136   .     S
C566   I584    2.136   .     S
C566   C571    1.408   .     A
C566   C694    1.370   .     S
C567   H569    1.078   .     S
C567   C571    1.396   .     A
C567   C691    1.370   .     S
C568   H570    1.078   .     S
C568   C572    1.396   .     A
C573   I585    2.138   .     S
C574   I586    2.138   .     S
C574   C954    1.428   .     S
C575   I587    2.134   .     S
C575   C951    1.428   .     S
C576   I588    2.134   .     S
N577   O579    1.300   .     A
N577   O578    1.301   .     A
N577   C605    1.435   .     S
N580   O582    1.301   .     A
N580   O581    1.301   .     A
O589   C593    1.300   .     A
O589   Zn601   2.008   .     S
O590   C594    1.300   .     A
O590   Zn602   2.008   .     S
O591   Zn602   2.010   .     S
O591   C593    1.290   .     A
O592   C594    1.290   .     A
O592   Zn601   2.010   .     S
C593   C614    1.428   .     S
C594   C613    1.428   .     S
O595   C599    1.284   .     A
O595   Zn601   1.984   .     S
O596   C600    1.284   .     A
O596   Zn602   1.984   .     S
O597   Zn602   1.987   .     S
O597   C599    1.294   .     A
O598   C600    1.294   .     A
O598   Zn601   1.987   .     S
C599   C605    1.408   .     S
C600   C606    1.408   .     S
Zn601  N603    2.035   .     S
Zn602  N604    2.035   .     S
N603   C616    1.376   .     A
N603   C617    1.375   .     A
N604   C615    1.376   .     A
N604   C618    1.375   .     A
C606   C521    1.345   1_655 S
C606   N538    1.435   1_655 S
C607   C614    1.408   .     A
C607   I625    2.136   .     S
C608   I626    2.136   .     S
C608   C613    1.408   .     A
C608   C736    1.370   .     S
C609   H611    1.078   .     S
C609   C613    1.396   .     A
C609   C733    1.370   .     S
C610   H612    1.078   .     S
C610   C614    1.396   .     A
C615   I627    2.138   .     S
C616   I628    2.138   .     S
C616   C996    1.428   .     S
C617   I629    2.134   .     S
C617   C993    1.428   .     S
C618   I630    2.134   .     S
N619   O621    1.300   .     A
N619   O620    1.301   .     A
N619   C521    1.435   1_655 S
N622   O624    1.301   .     A
N622   O623    1.301   .     A
O631   C635    1.300   .     A
O631   Zn643   2.008   .     S
O632   C636    1.300   .     A
O632   Zn644   2.008   .     S
O633   Zn644   2.010   .     S
O633   C635    1.290   .     A
O634   C636    1.290   .     A
O634   Zn643   2.010   .     S
C635   C656    1.428   .     S
C636   C655    1.428   .     S
O637   C641    1.284   .     A
O637   Zn643   1.984   .     S
O638   C642    1.284   .     A
O638   Zn644   1.984   .     S
O639   Zn644   1.987   .     S
O639   C641    1.294   .     A
O640   C642    1.294   .     A
O640   Zn643   1.987   .     S
C641   C647    1.408   .     S
C642   C648    1.408   .     S
Zn643  N645    2.035   .     S
Zn644  N646    2.035   .     S
N645   C658    1.376   .     A
N645   C659    1.375   .     A
N646   C657    1.376   .     A
N646   C660    1.375   .     A
C647   C732    1.345   1_455 S
C647   N745    1.435   1_455 S
C648   C689    1.345   .     S
C648   N706    1.435   .     S
C649   C656    1.408   .     A
C649   I667    2.136   .     S
C650   I668    2.136   .     S
C650   C655    1.408   .     A
C650   C400    1.370   1_565 S
C651   H653    1.078   .     S
C651   C655    1.396   .     A
C651   C397    1.370   1_565 S
C652   H654    1.078   .     S
C652   C656    1.396   .     A
C657   I669    2.138   .     S
C658   I670    2.138   .     S
C658   C1038   1.428   .     S
C659   I671    2.134   .     S
C659   C1035   1.428   .     S
C660   I672    2.134   .     S
N661   O663    1.300   .     A
N661   O662    1.301   .     A
N661   C689    1.435   .     S
N664   O666    1.301   .     A
N664   O665    1.301   .     A
N664   C732    1.435   1_455 S
O673   C677    1.300   .     A
O673   Zn685   2.008   .     S
O674   C678    1.300   .     A
O674   Zn686   2.008   .     S
O675   Zn686   2.010   .     S
O675   C677    1.290   .     A
O676   C678    1.290   .     A
O676   Zn685   2.010   .     S
C677   C698    1.428   .     S
C678   C697    1.428   .     S
O679   C683    1.284   .     A
O679   Zn685   1.984   .     S
O680   C684    1.284   .     A
O680   Zn686   1.984   .     S
O681   Zn686   1.987   .     S
O681   C683    1.294   .     A
O682   C684    1.294   .     A
O682   Zn685   1.987   .     S
C683   C689    1.408   .     S
C684   C690    1.408   .     S
Zn685  N687    2.035   .     S
Zn686  N688    2.035   .     S
N687   C700    1.376   .     A
N687   C701    1.375   .     A
N688   C699    1.376   .     A
N688   C702    1.375   .     A
C690   C731    1.345   .     S
C690   N748    1.435   .     S
C691   C698    1.408   .     A
C691   I709    2.136   .     S
C692   I710    2.136   .     S
C692   C697    1.408   .     A
C692   C442    1.370   1_565 S
C693   H695    1.078   .     S
C693   C697    1.396   .     A
C693   C439    1.370   1_565 S
C694   H696    1.078   .     S
C694   C698    1.396   .     A
C699   I711    2.138   .     S
C700   I712    2.138   .     S
C700   C1080   1.428   .     S
C701   I713    2.134   .     S
C701   C1077   1.428   .     S
C702   I714    2.134   .     S
N703   O705    1.300   .     A
N703   O704    1.301   .     A
N703   C731    1.435   .     S
N706   O708    1.301   .     A
N706   O707    1.301   .     A
O715   C719    1.300   .     A
O715   Zn727   2.008   .     S
O716   C720    1.300   .     A
O716   Zn728   2.008   .     S
O717   Zn728   2.010   .     S
O717   C719    1.290   .     A
O718   C720    1.290   .     A
O718   Zn727   2.010   .     S
C719   C740    1.428   .     S
C720   C739    1.428   .     S
O721   C725    1.284   .     A
O721   Zn727   1.984   .     S
O722   C726    1.284   .     A
O722   Zn728   1.984   .     S
O723   Zn728   1.987   .     S
O723   C725    1.294   .     A
O724   C726    1.294   .     A
O724   Zn727   1.987   .     S
C725   C731    1.408   .     S
C726   C732    1.408   .     S
Zn727  N729    2.035   .     S
Zn728  N730    2.035   .     S
N729   C742    1.376   .     A
N729   C743    1.375   .     A
N730   C741    1.376   .     A
N730   C744    1.375   .     A
C732   C647    1.345   1_655 S
C732   N664    1.435   1_655 S
C733   C740    1.408   .     A
C733   I751    2.136   .     S
C734   I752    2.136   .     S
C734   C739    1.408   .     A
C734   C484    1.370   1_565 S
C735   H737    1.078   .     S
C735   C739    1.396   .     A
C735   C481    1.370   1_565 S
C736   H738    1.078   .     S
C736   C740    1.396   .     A
C741   I753    2.138   .     S
C742   I754    2.138   .     S
C742   C1122   1.428   .     S
C743   I755    2.134   .     S
C743   C1119   1.428   .     S
C744   I756    2.134   .     S
N745   O747    1.300   .     A
N745   O746    1.301   .     A
N745   C647    1.435   1_655 S
N748   O750    1.301   .     A
N748   O749    1.301   .     A
O757   C761    1.300   .     A
O757   Zn769   2.008   .     S
O758   C762    1.300   .     A
O758   Zn770   2.008   .     S
O759   Zn770   2.010   .     S
O759   C761    1.290   .     A
O760   C762    1.290   .     A
O760   Zn769   2.010   .     S
C761   C782    1.428   .     S
C762   C781    1.428   .     S
O763   C767    1.284   .     A
O763   Zn769   1.984   .     S
O764   C768    1.284   .     A
O764   Zn770   1.984   .     S
O765   Zn770   1.987   .     S
O765   C767    1.294   .     A
O766   C768    1.294   .     A
O766   Zn769   1.987   .     S
C767   C773    1.408   .     S
C768   C774    1.408   .     S
Zn769  N771    2.035   .     S
Zn770  N772    2.035   .     S
N771   C784    1.376   .     A
N771   C785    1.375   .     A
N772   C783    1.376   .     A
N772   C786    1.375   .     A
C773   C858    1.345   1_455 S
C773   N871    1.435   1_455 S
C774   C815    1.345   .     S
C774   N832    1.435   .     S
C775   C782    1.408   .     A
C775   I793    2.136   .     S
C775   C1029   1.370   1_545 S
C776   I794    2.136   .     S
C776   C781    1.408   .     A
C776   C904    1.370   .     S
C777   H779    1.078   .     S
C777   C781    1.396   .     A
C777   C901    1.370   .     S
C778   H780    1.078   .     S
C778   C782    1.396   .     A
C778   C1028   1.370   1_545 S
C783   I795    2.138   .     S
C784   I796    2.138   .     S
C784   C30     1.428   1_556 S
C785   I797    2.134   .     S
C785   C27     1.428   1_556 S
C786   I798    2.134   .     S
N787   O789    1.300   .     A
N787   O788    1.301   .     A
N787   C815    1.435   .     S
N790   O792    1.301   .     A
N790   O791    1.301   .     A
N790   C858    1.435   1_455 S
O799   C803    1.300   .     A
O799   Zn811   2.008   .     S
O800   C804    1.300   .     A
O800   Zn812   2.008   .     S
O801   Zn812   2.010   .     S
O801   C803    1.290   .     A
O802   C804    1.290   .     A
O802   Zn811   2.010   .     S
C803   C824    1.428   .     S
C804   C823    1.428   .     S
O805   C809    1.284   .     A
O805   Zn811   1.984   .     S
O806   C810    1.284   .     A
O806   Zn812   1.984   .     S
O807   Zn812   1.987   .     S
O807   C809    1.294   .     A
O808   C810    1.294   .     A
O808   Zn811   1.987   .     S
C809   C815    1.408   .     S
C810   C816    1.408   .     S
Zn811  N813    2.035   .     S
Zn812  N814    2.035   .     S
N813   C826    1.376   .     A
N813   C827    1.375   .     A
N814   C825    1.376   .     A
N814   C828    1.375   .     A
C816   C857    1.345   .     S
C816   N874    1.435   .     S
C817   C824    1.408   .     A
C817   I835    2.136   .     S
C817   C1071   1.370   1_545 S
C818   I836    2.136   .     S
C818   C823    1.408   .     A
C818   C946    1.370   .     S
C819   H821    1.078   .     S
C819   C823    1.396   .     A
C819   C943    1.370   .     S
C820   H822    1.078   .     S
C820   C824    1.396   .     A
C820   C1070   1.370   1_545 S
C825   I837    2.138   .     S
C826   I838    2.138   .     S
C826   C72     1.428   1_556 S
C827   I839    2.134   .     S
C827   C69     1.428   1_556 S
C828   I840    2.134   .     S
N829   O831    1.300   .     A
N829   O830    1.301   .     A
N829   C857    1.435   .     S
N832   O834    1.301   .     A
N832   O833    1.301   .     A
O841   C845    1.300   .     A
O841   Zn853   2.008   .     S
O842   C846    1.300   .     A
O842   Zn854   2.008   .     S
O843   Zn854   2.010   .     S
O843   C845    1.290   .     A
O844   C846    1.290   .     A
O844   Zn853   2.010   .     S
C845   C866    1.428   .     S
C846   C865    1.428   .     S
O847   C851    1.284   .     A
O847   Zn853   1.984   .     S
O848   C852    1.284   .     A
O848   Zn854   1.984   .     S
O849   Zn854   1.987   .     S
O849   C851    1.294   .     A
O850   C852    1.294   .     A
O850   Zn853   1.987   .     S
C851   C857    1.408   .     S
C852   C858    1.408   .     S
Zn853  N855    2.035   .     S
Zn854  N856    2.035   .     S
N855   C868    1.376   .     A
N855   C869    1.375   .     A
N856   C867    1.376   .     A
N856   C870    1.375   .     A
C858   C773    1.345   1_655 S
C858   N790    1.435   1_655 S
C859   C866    1.408   .     A
C859   I877    2.136   .     S
C859   C1113   1.370   1_545 S
C860   I878    2.136   .     S
C860   C865    1.408   .     A
C860   C988    1.370   .     S
C861   H863    1.078   .     S
C861   C865    1.396   .     A
C861   C985    1.370   .     S
C862   H864    1.078   .     S
C862   C866    1.396   .     A
C862   C1112   1.370   1_545 S
C867   I879    2.138   .     S
C868   I880    2.138   .     S
C868   C114    1.428   1_556 S
C869   I881    2.134   .     S
C869   C111    1.428   1_556 S
C870   I882    2.134   .     S
N871   O873    1.300   .     A
N871   O872    1.301   .     A
N871   C773    1.435   1_655 S
N874   O876    1.301   .     A
N874   O875    1.301   .     A
O883   C887    1.300   .     A
O883   Zn895   2.008   .     S
O884   C888    1.300   .     A
O884   Zn896   2.008   .     S
O885   Zn896   2.010   .     S
O885   C887    1.290   .     A
O886   C888    1.290   .     A
O886   Zn895   2.010   .     S
C887   C908    1.428   .     S
C888   C907    1.428   .     S
O889   C893    1.284   .     A
O889   Zn895   1.984   .     S
O890   C894    1.284   .     A
O890   Zn896   1.984   .     S
O891   Zn896   1.987   .     S
O891   C893    1.294   .     A
O892   C894    1.294   .     A
O892   Zn895   1.987   .     S
C893   C899    1.408   .     S
C894   C900    1.408   .     S
Zn895  N897    2.035   .     S
Zn896  N898    2.035   .     S
N897   C910    1.376   .     A
N897   C911    1.375   .     A
N898   C909    1.376   .     A
N898   C912    1.375   .     A
C899   C984    1.345   1_455 S
C899   N997    1.435   1_455 S
C900   C941    1.345   .     S
C900   N958    1.435   .     S
C901   C908    1.408   .     A
C901   I919    2.136   .     S
C902   I920    2.136   .     S
C902   C907    1.408   .     A
C902   C1030   1.370   .     S
C903   H905    1.078   .     S
C903   C907    1.396   .     A
C903   C1027   1.370   .     S
C904   H906    1.078   .     S
C904   C908    1.396   .     A
C909   I921    2.138   .     S
C910   I922    2.138   .     S
C910   C156    1.428   1_556 S
C911   I923    2.134   .     S
C911   C153    1.428   1_556 S
C912   I924    2.134   .     S
N913   O915    1.300   .     A
N913   O914    1.301   .     A
N913   C941    1.435   .     S
N916   O918    1.301   .     A
N916   O917    1.301   .     A
N916   C984    1.435   1_455 S
O925   C929    1.300   .     A
O925   Zn937   2.008   .     S
O926   C930    1.300   .     A
O926   Zn938   2.008   .     S
O927   Zn938   2.010   .     S
O927   C929    1.290   .     A
O928   C930    1.290   .     A
O928   Zn937   2.010   .     S
C929   C950    1.428   .     S
C930   C949    1.428   .     S
O931   C935    1.284   .     A
O931   Zn937   1.984   .     S
O932   C936    1.284   .     A
O932   Zn938   1.984   .     S
O933   Zn938   1.987   .     S
O933   C935    1.294   .     A
O934   C936    1.294   .     A
O934   Zn937   1.987   .     S
C935   C941    1.408   .     S
C936   C942    1.408   .     S
Zn937  N939    2.035   .     S
Zn938  N940    2.035   .     S
N939   C952    1.376   .     A
N939   C953    1.375   .     A
N940   C951    1.376   .     A
N940   C954    1.375   .     A
C942   C983    1.345   .     S
C942   N1000   1.435   .     S
C943   C950    1.408   .     A
C943   I961    2.136   .     S
C944   I962    2.136   .     S
C944   C949    1.408   .     A
C944   C1072   1.370   .     S
C945   H947    1.078   .     S
C945   C949    1.396   .     A
C945   C1069   1.370   .     S
C946   H948    1.078   .     S
C946   C950    1.396   .     A
C951   I963    2.138   .     S
C952   I964    2.138   .     S
C952   C198    1.428   1_556 S
C953   I965    2.134   .     S
C953   C195    1.428   1_556 S
C954   I966    2.134   .     S
N955   O957    1.300   .     A
N955   O956    1.301   .     A
N955   C983    1.435   .     S
N958   O960    1.301   .     A
N958   O959    1.301   .     A
O967   C971    1.300   .     A
O967   Zn979   2.008   .     S
O968   C972    1.300   .     A
O968   Zn980   2.008   .     S
O969   Zn980   2.010   .     S
O969   C971    1.290   .     A
O970   C972    1.290   .     A
O970   Zn979   2.010   .     S
C971   C992    1.428   .     S
C972   C991    1.428   .     S
O973   C977    1.284   .     A
O973   Zn979   1.984   .     S
O974   C978    1.284   .     A
O974   Zn980   1.984   .     S
O975   Zn980   1.987   .     S
O975   C977    1.294   .     A
O976   C978    1.294   .     A
O976   Zn979   1.987   .     S
C977   C983    1.408   .     S
C978   C984    1.408   .     S
Zn979  N981    2.035   .     S
Zn980  N982    2.035   .     S
N981   C994    1.376   .     A
N981   C995    1.375   .     A
N982   C993    1.376   .     A
N982   C996    1.375   .     A
C984   C899    1.345   1_655 S
C984   N916    1.435   1_655 S
C985   C992    1.408   .     A
C985   I1003   2.136   .     S
C986   I1004   2.136   .     S
C986   C991    1.408   .     A
C986   C1114   1.370   .     S
C987   H989    1.078   .     S
C987   C991    1.396   .     A
C987   C1111   1.370   .     S
C988   H990    1.078   .     S
C988   C992    1.396   .     A
C993   I1005   2.138   .     S
C994   I1006   2.138   .     S
C994   C240    1.428   1_556 S
C995   I1007   2.134   .     S
C995   C237    1.428   1_556 S
C996   I1008   2.134   .     S
N997   O999    1.300   .     A
N997   O998    1.301   .     A
N997   C899    1.435   1_655 S
N1000  O1002   1.301   .     A
N1000  O1001   1.301   .     A
O1009  C1013   1.300   .     A
O1009  Zn1021  2.008   .     S
O1010  C1014   1.300   .     A
O1010  Zn1022  2.008   .     S
O1011  Zn1022  2.010   .     S
O1011  C1013   1.290   .     A
O1012  C1014   1.290   .     A
O1012  Zn1021  2.010   .     S
C1013  C1034   1.428   .     S
C1014  C1033   1.428   .     S
O1015  C1019   1.284   .     A
O1015  Zn1021  1.984   .     S
O1016  C1020   1.284   .     A
O1016  Zn1022  1.984   .     S
O1017  Zn1022  1.987   .     S
O1017  C1019   1.294   .     A
O1018  C1020   1.294   .     A
O1018  Zn1021  1.987   .     S
C1019  C1025   1.408   .     S
C1020  C1026   1.408   .     S
Zn1021 N1023   2.035   .     S
Zn1022 N1024   2.035   .     S
N1023  C1036   1.376   .     A
N1023  C1037   1.375   .     A
N1024  C1035   1.376   .     A
N1024  C1038   1.375   .     A
C1025  C1110   1.345   1_455 S
C1025  N1123   1.435   1_455 S
C1026  C1067   1.345   .     S
C1026  N1084   1.435   .     S
C1027  C1034   1.408   .     A
C1027  I1045   2.136   .     S
C1028  I1046   2.136   .     S
C1028  C1033   1.408   .     A
C1028  C778    1.370   1_565 S
C1029  H1031   1.078   .     S
C1029  C1033   1.396   .     A
C1029  C775    1.370   1_565 S
C1030  H1032   1.078   .     S
C1030  C1034   1.396   .     A
C1035  I1047   2.138   .     S
C1036  I1048   2.138   .     S
C1036  C282    1.428   1_556 S
C1037  I1049   2.134   .     S
C1037  C279    1.428   1_556 S
C1038  I1050   2.134   .     S
N1039  O1041   1.300   .     A
N1039  O1040   1.301   .     A
N1039  C1067   1.435   .     S
N1042  O1044   1.301   .     A
N1042  O1043   1.301   .     A
N1042  C1110   1.435   1_455 S
O1051  C1055   1.300   .     A
O1051  Zn1063  2.008   .     S
O1052  C1056   1.300   .     A
O1052  Zn1064  2.008   .     S
O1053  Zn1064  2.010   .     S
O1053  C1055   1.290   .     A
O1054  C1056   1.290   .     A
O1054  Zn1063  2.010   .     S
C1055  C1076   1.428   .     S
C1056  C1075   1.428   .     S
O1057  C1061   1.284   .     A
O1057  Zn1063  1.984   .     S
O1058  C1062   1.284   .     A
O1058  Zn1064  1.984   .     S
O1059  Zn1064  1.987   .     S
O1059  C1061   1.294   .     A
O1060  C1062   1.294   .     A
O1060  Zn1063  1.987   .     S
C1061  C1067   1.408   .     S
C1062  C1068   1.408   .     S
Zn1063 N1065   2.035   .     S
Zn1064 N1066   2.035   .     S
N1065  C1078   1.376   .     A
N1065  C1079   1.375   .     A
N1066  C1077   1.376   .     A
N1066  C1080   1.375   .     A
C1068  C1109   1.345   .     S
C1068  N1126   1.435   .     S
C1069  C1076   1.408   .     A
C1069  I1087   2.136   .     S
C1070  I1088   2.136   .     S
C1070  C1075   1.408   .     A
C1070  C820    1.370   1_565 S
C1071  H1073   1.078   .     S
C1071  C1075   1.396   .     A
C1071  C817    1.370   1_565 S
C1072  H1074   1.078   .     S
C1072  C1076   1.396   .     A
C1077  I1089   2.138   .     S
C1078  I1090   2.138   .     S
C1078  C324    1.428   1_556 S
C1079  I1091   2.134   .     S
C1079  C321    1.428   1_556 S
C1080  I1092   2.134   .     S
N1081  O1083   1.300   .     A
N1081  O1082   1.301   .     A
N1081  C1109   1.435   .     S
N1084  O1086   1.301   .     A
N1084  O1085   1.301   .     A
O1093  C1097   1.300   .     A
O1093  Zn1105  2.008   .     S
O1094  C1098   1.300   .     A
O1094  Zn1106  2.008   .     S
O1095  Zn1106  2.010   .     S
O1095  C1097   1.290   .     A
O1096  C1098   1.290   .     A
O1096  Zn1105  2.010   .     S
C1097  C1118   1.428   .     S
C1098  C1117   1.428   .     S
O1099  C1103   1.284   .     A
O1099  Zn1105  1.984   .     S
O1100  C1104   1.284   .     A
O1100  Zn1106  1.984   .     S
O1101  Zn1106  1.987   .     S
O1101  C1103   1.294   .     A
O1102  C1104   1.294   .     A
O1102  Zn1105  1.987   .     S
C1103  C1109   1.408   .     S
C1104  C1110   1.408   .     S
Zn1105 N1107   2.035   .     S
Zn1106 N1108   2.035   .     S
N1107  C1120   1.376   .     A
N1107  C1121   1.375   .     A
N1108  C1119   1.376   .     A
N1108  C1122   1.375   .     A
C1110  C1025   1.345   1_655 S
C1110  N1042   1.435   1_655 S
C1111  C1118   1.408   .     A
C1111  I1129   2.136   .     S
C1112  I1130   2.136   .     S
C1112  C1117   1.408   .     A
C1112  C862    1.370   1_565 S
C1113  H1115   1.078   .     S
C1113  C1117   1.396   .     A
C1113  C859    1.370   1_565 S
C1114  H1116   1.078   .     S
C1114  C1118   1.396   .     A
C1119  I1131   2.138   .     S
C1120  I1132   2.138   .     S
C1120  C366    1.428   1_556 S
C1121  I1133   2.134   .     S
C1121  C363    1.428   1_556 S
C1122  I1134   2.134   .     S
N1123  O1125   1.300   .     A
N1123  O1124   1.301   .     A
N1123  C1025   1.435   1_655 S
N1126  O1128   1.301   .     A
N1126  O1127   1.301   .     A
