data_str_m3_o10_o16_pcu_sym.104
_audit_creation_date              2020-01-03
_audit_creation_method            'Materials Studio'
_symmetry_space_group_name_H-M    'P1'
_symmetry_Int_Tables_number       1
_symmetry_cell_setting            triclinic
loop_
_symmetry_equiv_pos_as_xyz
  x,y,z
_cell_length_a                    23.6571
_cell_length_b                    25.6958
_cell_length_c                    25.0959
_cell_angle_alpha                 93.6089
_cell_angle_beta                  102.4015
_cell_angle_gamma                 93.8364
loop_
_atom_site_label
_atom_site_type_symbol
_atom_site_fract_x
_atom_site_fract_y
_atom_site_fract_z
_atom_site_U_iso_or_equiv
_atom_site_adp_type
_atom_site_occupancy
C1     C     0.01462   0.26474   0.24847   0.00000  Uiso   1.00
C2     C     0.06346   0.19578   0.41141   0.00000  Uiso   1.00
C3     C     0.02211   0.31927   0.24726   0.00000  Uiso   1.00
C4     C     0.03809   0.17702   0.35380   0.00000  Uiso   1.00
C5     C     0.31087   0.01400   0.25161   0.00000  Uiso   1.00
C6     C     0.31860   0.06857   0.25115   0.00000  Uiso   1.00
C7     C     0.29667   0.16223   0.14594   0.00000  Uiso   1.00
C8     C     0.28308   0.13344   0.49605   0.00000  Uiso   1.00
C9     C     0.27515   0.15871   0.08763   0.00000  Uiso   1.00
C10    C     0.02822   0.21594   0.44454   0.00000  Uiso   1.00
C11    C     0.04949   0.22528   0.00071   0.00000  Uiso   1.00
C12    C     0.14241   0.19383   0.49168   0.00000  Uiso   1.00
C13    C     0.10471   0.21161   0.02466   0.00000  Uiso   1.00
C14    C     0.15555   0.10404   0.20704   0.00000  Uiso   1.00
C15    C     0.11067   0.09083   0.15320   0.00000  Uiso   1.00
C16    C     0.12797   0.04592   0.11876   0.00000  Uiso   1.00
C17    C     0.12336   0.19253   0.43450   0.00000  Uiso   1.00
C18    C     0.19810   0.17651   0.01263   0.00000  Uiso   1.00
C19    C     0.23148   0.15645   0.47636   0.00000  Uiso   1.00
C20    C     0.21533   0.16374   0.42135   0.00000  Uiso   1.00
C21    C     0.16519   0.18732   0.40246   0.00000  Uiso   1.00
C22    C     0.22185   0.17854   0.06815   0.00000  Uiso   1.00
C23    C     0.30506   0.13464   0.05193   0.00000  Uiso   1.00
H24    H     0.01225   0.11781   0.06699   0.00000  Uiso   1.00
H25    H     0.06416   0.00280   0.24297   0.00000  Uiso   1.00
H26    H     0.16958   0.05718   0.10707   0.00000  Uiso   1.00
H27    H     0.13275   0.01047   0.14199   0.00000  Uiso   1.00
H28    H     0.09382   0.03649   0.08078   0.00000  Uiso   1.00
H29    H     0.06777   0.07863   0.16118   0.00000  Uiso   1.00
H30    H     0.10716   0.12581   0.12915   0.00000  Uiso   1.00
H31    H     0.19645   0.10770   0.19455   0.00000  Uiso   1.00
H32    H     0.15517   0.07146   0.23408   0.00000  Uiso   1.00
H33    H     0.24284   0.15389   0.39356   0.00000  Uiso   1.00
H34    H     0.26877   0.33047   0.25577   0.00000  Uiso   1.00
H35    H     0.17684   0.21464   0.28251   0.00000  Uiso   1.00
H36    H     0.30757   0.11669   0.46828   0.00000  Uiso   1.00
H37    H     0.20031   0.19691   0.09707   0.00000  Uiso   1.00
H38    H     0.31743   0.22396   0.42716   0.00000  Uiso   1.00
H39    H     0.11622   0.21556   0.06872   0.00000  Uiso   1.00
H40    H     0.02172   0.24025   0.02622   0.00000  Uiso   1.00
H41    H     0.16046   0.20215   0.36300   0.00000  Uiso   1.00
N42    N     0.14493   0.15223   0.23543   0.00000  Uiso   1.00
N43    N     0.18840   0.18110   0.26458   0.00000  Uiso   1.00
O44    O     0.29769   0.24629   0.25358   0.00000  Uiso   1.00
O45    O     0.05742   0.23704   0.24424   0.00000  Uiso   1.00
O46    O     0.31490   0.17358   0.33380   0.00000  Uiso   1.00
O47    O     0.07463   0.16433   0.32446   0.00000  Uiso   1.00
O48    O     0.27592   0.09629   0.25577   0.00000  Uiso   1.00
O49    O     0.03565   0.08704   0.24643   0.00000  Uiso   1.00
O50    O     0.25870   0.16901   0.17554   0.00000  Uiso   1.00
O51    O     0.01843   0.15976   0.16620   0.00000  Uiso   1.00
Zn52   Zn    0.27119   0.17284   0.25624   0.00000  Uiso   1.00
Zn53   Zn    0.06214   0.16049   0.24377   0.00000  Uiso   1.00
C54    C     0.34795   0.26474   0.24847   0.00000  Uiso   1.00
C55    C     0.39679   0.19578   0.41141   0.00000  Uiso   1.00
C56    C     0.35544   0.31927   0.24726   0.00000  Uiso   1.00
C57    C     0.37142   0.17702   0.35380   0.00000  Uiso   1.00
C58    C     0.64420   0.01400   0.25161   0.00000  Uiso   1.00
C59    C     0.65193   0.06857   0.25115   0.00000  Uiso   1.00
C60    C     0.63000   0.16223   0.14594   0.00000  Uiso   1.00
C61    C     0.61641   0.13344   0.49605   0.00000  Uiso   1.00
C62    C     0.60848   0.15871   0.08763   0.00000  Uiso   1.00
C63    C     0.36156   0.21594   0.44454   0.00000  Uiso   1.00
C64    C     0.38282   0.22528   0.00071   0.00000  Uiso   1.00
C65    C     0.47574   0.19383   0.49168   0.00000  Uiso   1.00
C66    C     0.43805   0.21161   0.02466   0.00000  Uiso   1.00
C67    C     0.48888   0.10404   0.20704   0.00000  Uiso   1.00
C68    C     0.44401   0.09083   0.15320   0.00000  Uiso   1.00
C69    C     0.46131   0.04592   0.11876   0.00000  Uiso   1.00
C70    C     0.45669   0.19253   0.43450   0.00000  Uiso   1.00
C71    C     0.53143   0.17651   0.01263   0.00000  Uiso   1.00
C72    C     0.56482   0.15645   0.47636   0.00000  Uiso   1.00
C73    C     0.54866   0.16374   0.42135   0.00000  Uiso   1.00
C74    C     0.49853   0.18732   0.40246   0.00000  Uiso   1.00
C75    C     0.55518   0.17854   0.06815   0.00000  Uiso   1.00
C76    C     0.63840   0.13464   0.05193   0.00000  Uiso   1.00
H77    H     0.34558   0.11781   0.06699   0.00000  Uiso   1.00
H78    H     0.39749   0.00280   0.24297   0.00000  Uiso   1.00
H79    H     0.50291   0.05718   0.10707   0.00000  Uiso   1.00
H80    H     0.46608   0.01047   0.14199   0.00000  Uiso   1.00
H81    H     0.42716   0.03649   0.08078   0.00000  Uiso   1.00
H82    H     0.40110   0.07863   0.16118   0.00000  Uiso   1.00
H83    H     0.44049   0.12581   0.12915   0.00000  Uiso   1.00
H84    H     0.52979   0.10770   0.19455   0.00000  Uiso   1.00
H85    H     0.48851   0.07146   0.23408   0.00000  Uiso   1.00
H86    H     0.57618   0.15389   0.39356   0.00000  Uiso   1.00
H87    H     0.60210   0.33047   0.25577   0.00000  Uiso   1.00
H88    H     0.51017   0.21464   0.28251   0.00000  Uiso   1.00
H89    H     0.64090   0.11669   0.46828   0.00000  Uiso   1.00
H90    H     0.53365   0.19691   0.09707   0.00000  Uiso   1.00
H91    H     0.65076   0.22396   0.42716   0.00000  Uiso   1.00
H92    H     0.44955   0.21556   0.06872   0.00000  Uiso   1.00
H93    H     0.35505   0.24025   0.02622   0.00000  Uiso   1.00
H94    H     0.49379   0.20215   0.36300   0.00000  Uiso   1.00
N95    N     0.47827   0.15223   0.23543   0.00000  Uiso   1.00
N96    N     0.52173   0.18110   0.26458   0.00000  Uiso   1.00
O97    O     0.63102   0.24629   0.25358   0.00000  Uiso   1.00
O98    O     0.39075   0.23704   0.24424   0.00000  Uiso   1.00
O99    O     0.64823   0.17358   0.33380   0.00000  Uiso   1.00
O100   O     0.40796   0.16433   0.32446   0.00000  Uiso   1.00
O101   O     0.60925   0.09629   0.25577   0.00000  Uiso   1.00
O102   O     0.36898   0.08704   0.24643   0.00000  Uiso   1.00
O103   O     0.59204   0.16901   0.17554   0.00000  Uiso   1.00
O104   O     0.35177   0.15976   0.16620   0.00000  Uiso   1.00
Zn105  Zn    0.60453   0.17284   0.25624   0.00000  Uiso   1.00
Zn106  Zn    0.39547   0.16049   0.24377   0.00000  Uiso   1.00
C107   C     0.68128   0.26474   0.24847   0.00000  Uiso   1.00
C108   C     0.73012   0.19578   0.41141   0.00000  Uiso   1.00
C109   C     0.68877   0.31927   0.24726   0.00000  Uiso   1.00
C110   C     0.70476   0.17702   0.35380   0.00000  Uiso   1.00
C111   C     0.97754   0.01400   0.25161   0.00000  Uiso   1.00
C112   C     0.98526   0.06857   0.25115   0.00000  Uiso   1.00
C113   C     0.96334   0.16223   0.14594   0.00000  Uiso   1.00
C114   C     0.94975   0.13344   0.49605   0.00000  Uiso   1.00
C115   C     0.94182   0.15871   0.08763   0.00000  Uiso   1.00
C116   C     0.69489   0.21594   0.44454   0.00000  Uiso   1.00
C117   C     0.71615   0.22528   0.00071   0.00000  Uiso   1.00
C118   C     0.80907   0.19383   0.49168   0.00000  Uiso   1.00
C119   C     0.77138   0.21161   0.02466   0.00000  Uiso   1.00
C120   C     0.82222   0.10404   0.20704   0.00000  Uiso   1.00
C121   C     0.77734   0.09083   0.15320   0.00000  Uiso   1.00
C122   C     0.79464   0.04592   0.11876   0.00000  Uiso   1.00
C123   C     0.79003   0.19253   0.43450   0.00000  Uiso   1.00
C124   C     0.86476   0.17651   0.01263   0.00000  Uiso   1.00
C125   C     0.89815   0.15645   0.47636   0.00000  Uiso   1.00
C126   C     0.88200   0.16374   0.42135   0.00000  Uiso   1.00
C127   C     0.83186   0.18732   0.40246   0.00000  Uiso   1.00
C128   C     0.88851   0.17854   0.06815   0.00000  Uiso   1.00
C129   C     0.97173   0.13464   0.05193   0.00000  Uiso   1.00
H130   H     0.67892   0.11781   0.06699   0.00000  Uiso   1.00
H131   H     0.73083   0.00280   0.24297   0.00000  Uiso   1.00
H132   H     0.83625   0.05718   0.10707   0.00000  Uiso   1.00
H133   H     0.79942   0.01047   0.14199   0.00000  Uiso   1.00
H134   H     0.76049   0.03649   0.08078   0.00000  Uiso   1.00
H135   H     0.73444   0.07863   0.16118   0.00000  Uiso   1.00
H136   H     0.77383   0.12581   0.12915   0.00000  Uiso   1.00
H137   H     0.86312   0.10770   0.19455   0.00000  Uiso   1.00
H138   H     0.82184   0.07146   0.23408   0.00000  Uiso   1.00
H139   H     0.90951   0.15389   0.39356   0.00000  Uiso   1.00
H140   H     0.93544   0.33047   0.25577   0.00000  Uiso   1.00
H141   H     0.84351   0.21464   0.28251   0.00000  Uiso   1.00
H142   H     0.97423   0.11669   0.46828   0.00000  Uiso   1.00
H143   H     0.86698   0.19691   0.09707   0.00000  Uiso   1.00
H144   H     0.98409   0.22396   0.42716   0.00000  Uiso   1.00
H145   H     0.78289   0.21556   0.06872   0.00000  Uiso   1.00
H146   H     0.68838   0.24025   0.02622   0.00000  Uiso   1.00
H147   H     0.82712   0.20215   0.36300   0.00000  Uiso   1.00
N148   N     0.81160   0.15223   0.23543   0.00000  Uiso   1.00
N149   N     0.85507   0.18110   0.26458   0.00000  Uiso   1.00
O150   O     0.96435   0.24629   0.25358   0.00000  Uiso   1.00
O151   O     0.72408   0.23704   0.24424   0.00000  Uiso   1.00
O152   O     0.98157   0.17358   0.33380   0.00000  Uiso   1.00
O153   O     0.74130   0.16433   0.32446   0.00000  Uiso   1.00
O154   O     0.94258   0.09629   0.25577   0.00000  Uiso   1.00
O155   O     0.70231   0.08704   0.24643   0.00000  Uiso   1.00
O156   O     0.92537   0.16901   0.17554   0.00000  Uiso   1.00
O157   O     0.68510   0.15976   0.16620   0.00000  Uiso   1.00
Zn158  Zn    0.93786   0.17284   0.25624   0.00000  Uiso   1.00
Zn159  Zn    0.72881   0.16049   0.24377   0.00000  Uiso   1.00
C160   C     0.01462   0.59808   0.24847   0.00000  Uiso   1.00
C161   C     0.06346   0.52912   0.41141   0.00000  Uiso   1.00
C162   C     0.02211   0.65260   0.24726   0.00000  Uiso   1.00
C163   C     0.03809   0.51035   0.35380   0.00000  Uiso   1.00
C164   C     0.31087   0.34733   0.25161   0.00000  Uiso   1.00
C165   C     0.31860   0.40191   0.25115   0.00000  Uiso   1.00
C166   C     0.29667   0.49556   0.14594   0.00000  Uiso   1.00
C167   C     0.28308   0.46677   0.49605   0.00000  Uiso   1.00
C168   C     0.27515   0.49205   0.08763   0.00000  Uiso   1.00
C169   C     0.02822   0.54927   0.44454   0.00000  Uiso   1.00
C170   C     0.04949   0.55861   0.00071   0.00000  Uiso   1.00
C171   C     0.14241   0.52716   0.49168   0.00000  Uiso   1.00
C172   C     0.10471   0.54494   0.02466   0.00000  Uiso   1.00
C173   C     0.15555   0.43738   0.20704   0.00000  Uiso   1.00
C174   C     0.11067   0.42416   0.15320   0.00000  Uiso   1.00
C175   C     0.12797   0.37925   0.11876   0.00000  Uiso   1.00
C176   C     0.12336   0.52586   0.43450   0.00000  Uiso   1.00
C177   C     0.19810   0.50984   0.01263   0.00000  Uiso   1.00
C178   C     0.23148   0.48978   0.47636   0.00000  Uiso   1.00
C179   C     0.21533   0.49707   0.42135   0.00000  Uiso   1.00
C180   C     0.16519   0.52065   0.40246   0.00000  Uiso   1.00
C181   C     0.22185   0.51187   0.06815   0.00000  Uiso   1.00
C182   C     0.30506   0.46797   0.05193   0.00000  Uiso   1.00
H183   H     0.01225   0.45114   0.06699   0.00000  Uiso   1.00
H184   H     0.06416   0.33613   0.24297   0.00000  Uiso   1.00
H185   H     0.16958   0.39052   0.10707   0.00000  Uiso   1.00
H186   H     0.13275   0.34381   0.14199   0.00000  Uiso   1.00
H187   H     0.09382   0.36983   0.08078   0.00000  Uiso   1.00
H188   H     0.06777   0.41197   0.16118   0.00000  Uiso   1.00
H189   H     0.10716   0.45914   0.12915   0.00000  Uiso   1.00
H190   H     0.19645   0.44103   0.19455   0.00000  Uiso   1.00
H191   H     0.15517   0.40480   0.23408   0.00000  Uiso   1.00
H192   H     0.24284   0.48722   0.39356   0.00000  Uiso   1.00
H193   H     0.26877   0.66380   0.25577   0.00000  Uiso   1.00
H194   H     0.17684   0.54797   0.28251   0.00000  Uiso   1.00
H195   H     0.30757   0.45002   0.46828   0.00000  Uiso   1.00
H196   H     0.20031   0.53024   0.09707   0.00000  Uiso   1.00
H197   H     0.31743   0.55729   0.42716   0.00000  Uiso   1.00
H198   H     0.11622   0.54889   0.06872   0.00000  Uiso   1.00
H199   H     0.02172   0.57359   0.02622   0.00000  Uiso   1.00
H200   H     0.16046   0.53548   0.36300   0.00000  Uiso   1.00
N201   N     0.14493   0.48556   0.23543   0.00000  Uiso   1.00
N202   N     0.18840   0.51444   0.26458   0.00000  Uiso   1.00
O203   O     0.29769   0.57963   0.25358   0.00000  Uiso   1.00
O204   O     0.05742   0.57038   0.24424   0.00000  Uiso   1.00
O205   O     0.31490   0.50691   0.33380   0.00000  Uiso   1.00
O206   O     0.07463   0.49766   0.32446   0.00000  Uiso   1.00
O207   O     0.27592   0.42962   0.25577   0.00000  Uiso   1.00
O208   O     0.03565   0.42037   0.24643   0.00000  Uiso   1.00
O209   O     0.25870   0.50234   0.17554   0.00000  Uiso   1.00
O210   O     0.01843   0.49309   0.16620   0.00000  Uiso   1.00
Zn211  Zn    0.27119   0.50618   0.25624   0.00000  Uiso   1.00
Zn212  Zn    0.06214   0.49382   0.24377   0.00000  Uiso   1.00
C213   C     0.34795   0.59808   0.24847   0.00000  Uiso   1.00
C214   C     0.39679   0.52912   0.41141   0.00000  Uiso   1.00
C215   C     0.35544   0.65260   0.24726   0.00000  Uiso   1.00
C216   C     0.37142   0.51035   0.35380   0.00000  Uiso   1.00
C217   C     0.64420   0.34733   0.25161   0.00000  Uiso   1.00
C218   C     0.65193   0.40191   0.25115   0.00000  Uiso   1.00
C219   C     0.63000   0.49556   0.14594   0.00000  Uiso   1.00
C220   C     0.61641   0.46677   0.49605   0.00000  Uiso   1.00
C221   C     0.60848   0.49205   0.08763   0.00000  Uiso   1.00
C222   C     0.36156   0.54927   0.44454   0.00000  Uiso   1.00
C223   C     0.38282   0.55861   0.00071   0.00000  Uiso   1.00
C224   C     0.47574   0.52716   0.49168   0.00000  Uiso   1.00
C225   C     0.43805   0.54494   0.02466   0.00000  Uiso   1.00
C226   C     0.48888   0.43738   0.20704   0.00000  Uiso   1.00
C227   C     0.44401   0.42416   0.15320   0.00000  Uiso   1.00
C228   C     0.46131   0.37925   0.11876   0.00000  Uiso   1.00
C229   C     0.45669   0.52586   0.43450   0.00000  Uiso   1.00
C230   C     0.53143   0.50984   0.01263   0.00000  Uiso   1.00
C231   C     0.56482   0.48978   0.47636   0.00000  Uiso   1.00
C232   C     0.54866   0.49707   0.42135   0.00000  Uiso   1.00
C233   C     0.49853   0.52065   0.40246   0.00000  Uiso   1.00
C234   C     0.55518   0.51187   0.06815   0.00000  Uiso   1.00
C235   C     0.63840   0.46797   0.05193   0.00000  Uiso   1.00
H236   H     0.34558   0.45114   0.06699   0.00000  Uiso   1.00
H237   H     0.39749   0.33613   0.24297   0.00000  Uiso   1.00
H238   H     0.50291   0.39052   0.10707   0.00000  Uiso   1.00
H239   H     0.46608   0.34381   0.14199   0.00000  Uiso   1.00
H240   H     0.42716   0.36983   0.08078   0.00000  Uiso   1.00
H241   H     0.40110   0.41197   0.16118   0.00000  Uiso   1.00
H242   H     0.44049   0.45914   0.12915   0.00000  Uiso   1.00
H243   H     0.52979   0.44103   0.19455   0.00000  Uiso   1.00
H244   H     0.48851   0.40480   0.23408   0.00000  Uiso   1.00
H245   H     0.57618   0.48722   0.39356   0.00000  Uiso   1.00
H246   H     0.60210   0.66380   0.25577   0.00000  Uiso   1.00
H247   H     0.51017   0.54797   0.28251   0.00000  Uiso   1.00
H248   H     0.64090   0.45002   0.46828   0.00000  Uiso   1.00
H249   H     0.53365   0.53024   0.09707   0.00000  Uiso   1.00
H250   H     0.65076   0.55729   0.42716   0.00000  Uiso   1.00
H251   H     0.44955   0.54889   0.06872   0.00000  Uiso   1.00
H252   H     0.35505   0.57359   0.02622   0.00000  Uiso   1.00
H253   H     0.49379   0.53548   0.36300   0.00000  Uiso   1.00
N254   N     0.47827   0.48556   0.23543   0.00000  Uiso   1.00
N255   N     0.52173   0.51444   0.26458   0.00000  Uiso   1.00
O256   O     0.63102   0.57963   0.25358   0.00000  Uiso   1.00
O257   O     0.39075   0.57038   0.24424   0.00000  Uiso   1.00
O258   O     0.64823   0.50691   0.33380   0.00000  Uiso   1.00
O259   O     0.40796   0.49766   0.32446   0.00000  Uiso   1.00
O260   O     0.60925   0.42962   0.25577   0.00000  Uiso   1.00
O261   O     0.36898   0.42037   0.24643   0.00000  Uiso   1.00
O262   O     0.59204   0.50234   0.17554   0.00000  Uiso   1.00
O263   O     0.35177   0.49309   0.16620   0.00000  Uiso   1.00
Zn264  Zn    0.60453   0.50618   0.25624   0.00000  Uiso   1.00
Zn265  Zn    0.39547   0.49382   0.24377   0.00000  Uiso   1.00
C266   C     0.68128   0.59808   0.24847   0.00000  Uiso   1.00
C267   C     0.73012   0.52912   0.41141   0.00000  Uiso   1.00
C268   C     0.68877   0.65260   0.24726   0.00000  Uiso   1.00
C269   C     0.70476   0.51035   0.35380   0.00000  Uiso   1.00
C270   C     0.97754   0.34733   0.25161   0.00000  Uiso   1.00
C271   C     0.98526   0.40191   0.25115   0.00000  Uiso   1.00
C272   C     0.96334   0.49556   0.14594   0.00000  Uiso   1.00
C273   C     0.94975   0.46677   0.49605   0.00000  Uiso   1.00
C274   C     0.94182   0.49205   0.08763   0.00000  Uiso   1.00
C275   C     0.69489   0.54927   0.44454   0.00000  Uiso   1.00
C276   C     0.71615   0.55861   0.00071   0.00000  Uiso   1.00
C277   C     0.80907   0.52716   0.49168   0.00000  Uiso   1.00
C278   C     0.77138   0.54494   0.02466   0.00000  Uiso   1.00
C279   C     0.82222   0.43738   0.20704   0.00000  Uiso   1.00
C280   C     0.77734   0.42416   0.15320   0.00000  Uiso   1.00
C281   C     0.79464   0.37925   0.11876   0.00000  Uiso   1.00
C282   C     0.79003   0.52586   0.43450   0.00000  Uiso   1.00
C283   C     0.86476   0.50984   0.01263   0.00000  Uiso   1.00
C284   C     0.89815   0.48978   0.47636   0.00000  Uiso   1.00
C285   C     0.88200   0.49707   0.42135   0.00000  Uiso   1.00
C286   C     0.83186   0.52065   0.40246   0.00000  Uiso   1.00
C287   C     0.88851   0.51187   0.06815   0.00000  Uiso   1.00
C288   C     0.97173   0.46797   0.05193   0.00000  Uiso   1.00
H289   H     0.67892   0.45114   0.06699   0.00000  Uiso   1.00
H290   H     0.73083   0.33613   0.24297   0.00000  Uiso   1.00
H291   H     0.83625   0.39052   0.10707   0.00000  Uiso   1.00
H292   H     0.79942   0.34381   0.14199   0.00000  Uiso   1.00
H293   H     0.76049   0.36983   0.08078   0.00000  Uiso   1.00
H294   H     0.73444   0.41197   0.16118   0.00000  Uiso   1.00
H295   H     0.77383   0.45914   0.12915   0.00000  Uiso   1.00
H296   H     0.86312   0.44103   0.19455   0.00000  Uiso   1.00
H297   H     0.82184   0.40480   0.23408   0.00000  Uiso   1.00
H298   H     0.90951   0.48722   0.39356   0.00000  Uiso   1.00
H299   H     0.93544   0.66380   0.25577   0.00000  Uiso   1.00
H300   H     0.84351   0.54797   0.28251   0.00000  Uiso   1.00
H301   H     0.97423   0.45002   0.46828   0.00000  Uiso   1.00
H302   H     0.86698   0.53024   0.09707   0.00000  Uiso   1.00
H303   H     0.98409   0.55729   0.42716   0.00000  Uiso   1.00
H304   H     0.78289   0.54889   0.06872   0.00000  Uiso   1.00
H305   H     0.68838   0.57359   0.02622   0.00000  Uiso   1.00
H306   H     0.82712   0.53548   0.36300   0.00000  Uiso   1.00
N307   N     0.81160   0.48556   0.23543   0.00000  Uiso   1.00
N308   N     0.85507   0.51444   0.26458   0.00000  Uiso   1.00
O309   O     0.96435   0.57963   0.25358   0.00000  Uiso   1.00
O310   O     0.72408   0.57038   0.24424   0.00000  Uiso   1.00
O311   O     0.98157   0.50691   0.33380   0.00000  Uiso   1.00
O312   O     0.74130   0.49766   0.32446   0.00000  Uiso   1.00
O313   O     0.94258   0.42962   0.25577   0.00000  Uiso   1.00
O314   O     0.70231   0.42037   0.24643   0.00000  Uiso   1.00
O315   O     0.92537   0.50234   0.17554   0.00000  Uiso   1.00
O316   O     0.68510   0.49309   0.16620   0.00000  Uiso   1.00
Zn317  Zn    0.93786   0.50618   0.25624   0.00000  Uiso   1.00
Zn318  Zn    0.72881   0.49382   0.24377   0.00000  Uiso   1.00
C319   C     0.01462   0.93141   0.24847   0.00000  Uiso   1.00
C320   C     0.06346   0.86245   0.41141   0.00000  Uiso   1.00
C321   C     0.02211   0.98593   0.24726   0.00000  Uiso   1.00
C322   C     0.03809   0.84368   0.35380   0.00000  Uiso   1.00
C323   C     0.31087   0.68067   0.25161   0.00000  Uiso   1.00
C324   C     0.31860   0.73524   0.25115   0.00000  Uiso   1.00
C325   C     0.29667   0.82889   0.14594   0.00000  Uiso   1.00
C326   C     0.28308   0.80011   0.49605   0.00000  Uiso   1.00
C327   C     0.27515   0.82538   0.08763   0.00000  Uiso   1.00
C328   C     0.02822   0.88260   0.44454   0.00000  Uiso   1.00
C329   C     0.04949   0.89194   0.00071   0.00000  Uiso   1.00
C330   C     0.14241   0.86049   0.49168   0.00000  Uiso   1.00
C331   C     0.10471   0.87827   0.02466   0.00000  Uiso   1.00
C332   C     0.15555   0.77071   0.20704   0.00000  Uiso   1.00
C333   C     0.11067   0.75749   0.15320   0.00000  Uiso   1.00
C334   C     0.12797   0.71258   0.11876   0.00000  Uiso   1.00
C335   C     0.12336   0.85920   0.43450   0.00000  Uiso   1.00
C336   C     0.19810   0.84318   0.01263   0.00000  Uiso   1.00
C337   C     0.23148   0.82312   0.47636   0.00000  Uiso   1.00
C338   C     0.21533   0.83041   0.42135   0.00000  Uiso   1.00
C339   C     0.16519   0.85398   0.40246   0.00000  Uiso   1.00
C340   C     0.22185   0.84521   0.06815   0.00000  Uiso   1.00
C341   C     0.30506   0.80130   0.05193   0.00000  Uiso   1.00
H342   H     0.01225   0.78447   0.06699   0.00000  Uiso   1.00
H343   H     0.06416   0.66946   0.24297   0.00000  Uiso   1.00
H344   H     0.16958   0.72385   0.10707   0.00000  Uiso   1.00
H345   H     0.13275   0.67714   0.14199   0.00000  Uiso   1.00
H346   H     0.09382   0.70316   0.08078   0.00000  Uiso   1.00
H347   H     0.06777   0.74530   0.16118   0.00000  Uiso   1.00
H348   H     0.10716   0.79248   0.12915   0.00000  Uiso   1.00
H349   H     0.19645   0.77436   0.19455   0.00000  Uiso   1.00
H350   H     0.15517   0.73813   0.23408   0.00000  Uiso   1.00
H351   H     0.24284   0.82055   0.39356   0.00000  Uiso   1.00
H352   H     0.26877   0.99713   0.25577   0.00000  Uiso   1.00
H353   H     0.17684   0.88130   0.28251   0.00000  Uiso   1.00
H354   H     0.30757   0.78336   0.46828   0.00000  Uiso   1.00
H355   H     0.20031   0.86358   0.09707   0.00000  Uiso   1.00
H356   H     0.31743   0.89062   0.42716   0.00000  Uiso   1.00
H357   H     0.11622   0.88223   0.06872   0.00000  Uiso   1.00
H358   H     0.02172   0.90692   0.02622   0.00000  Uiso   1.00
H359   H     0.16046   0.86881   0.36300   0.00000  Uiso   1.00
N360   N     0.14493   0.81890   0.23543   0.00000  Uiso   1.00
N361   N     0.18840   0.84777   0.26458   0.00000  Uiso   1.00
O362   O     0.29769   0.91296   0.25358   0.00000  Uiso   1.00
O363   O     0.05742   0.90371   0.24424   0.00000  Uiso   1.00
O364   O     0.31490   0.84024   0.33380   0.00000  Uiso   1.00
O365   O     0.07463   0.83099   0.32446   0.00000  Uiso   1.00
O366   O     0.27592   0.76296   0.25577   0.00000  Uiso   1.00
O367   O     0.03565   0.75371   0.24643   0.00000  Uiso   1.00
O368   O     0.25870   0.83567   0.17554   0.00000  Uiso   1.00
O369   O     0.01843   0.82642   0.16620   0.00000  Uiso   1.00
Zn370  Zn    0.27119   0.83951   0.25624   0.00000  Uiso   1.00
Zn371  Zn    0.06214   0.82716   0.24377   0.00000  Uiso   1.00
C372   C     0.34795   0.93141   0.24847   0.00000  Uiso   1.00
C373   C     0.39679   0.86245   0.41141   0.00000  Uiso   1.00
C374   C     0.35544   0.98593   0.24726   0.00000  Uiso   1.00
C375   C     0.37142   0.84368   0.35380   0.00000  Uiso   1.00
C376   C     0.64420   0.68067   0.25161   0.00000  Uiso   1.00
C377   C     0.65193   0.73524   0.25115   0.00000  Uiso   1.00
C378   C     0.63000   0.82889   0.14594   0.00000  Uiso   1.00
C379   C     0.61641   0.80011   0.49605   0.00000  Uiso   1.00
C380   C     0.60848   0.82538   0.08763   0.00000  Uiso   1.00
C381   C     0.36156   0.88260   0.44454   0.00000  Uiso   1.00
C382   C     0.38282   0.89194   0.00071   0.00000  Uiso   1.00
C383   C     0.47574   0.86049   0.49168   0.00000  Uiso   1.00
C384   C     0.43805   0.87827   0.02466   0.00000  Uiso   1.00
C385   C     0.48888   0.77071   0.20704   0.00000  Uiso   1.00
C386   C     0.44401   0.75749   0.15320   0.00000  Uiso   1.00
C387   C     0.46131   0.71258   0.11876   0.00000  Uiso   1.00
C388   C     0.45669   0.85920   0.43450   0.00000  Uiso   1.00
C389   C     0.53143   0.84318   0.01263   0.00000  Uiso   1.00
C390   C     0.56482   0.82312   0.47636   0.00000  Uiso   1.00
C391   C     0.54866   0.83041   0.42135   0.00000  Uiso   1.00
C392   C     0.49853   0.85398   0.40246   0.00000  Uiso   1.00
C393   C     0.55518   0.84521   0.06815   0.00000  Uiso   1.00
C394   C     0.63840   0.80130   0.05193   0.00000  Uiso   1.00
H395   H     0.34558   0.78447   0.06699   0.00000  Uiso   1.00
H396   H     0.39749   0.66946   0.24297   0.00000  Uiso   1.00
H397   H     0.50291   0.72385   0.10707   0.00000  Uiso   1.00
H398   H     0.46608   0.67714   0.14199   0.00000  Uiso   1.00
H399   H     0.42716   0.70316   0.08078   0.00000  Uiso   1.00
H400   H     0.40110   0.74530   0.16118   0.00000  Uiso   1.00
H401   H     0.44049   0.79248   0.12915   0.00000  Uiso   1.00
H402   H     0.52979   0.77436   0.19455   0.00000  Uiso   1.00
H403   H     0.48851   0.73813   0.23408   0.00000  Uiso   1.00
H404   H     0.57618   0.82055   0.39356   0.00000  Uiso   1.00
H405   H     0.60210   0.99713   0.25577   0.00000  Uiso   1.00
H406   H     0.51017   0.88130   0.28251   0.00000  Uiso   1.00
H407   H     0.64090   0.78336   0.46828   0.00000  Uiso   1.00
H408   H     0.53365   0.86358   0.09707   0.00000  Uiso   1.00
H409   H     0.65076   0.89062   0.42716   0.00000  Uiso   1.00
H410   H     0.44955   0.88223   0.06872   0.00000  Uiso   1.00
H411   H     0.35505   0.90692   0.02622   0.00000  Uiso   1.00
H412   H     0.49379   0.86881   0.36300   0.00000  Uiso   1.00
N413   N     0.47827   0.81890   0.23543   0.00000  Uiso   1.00
N414   N     0.52173   0.84777   0.26458   0.00000  Uiso   1.00
O415   O     0.63102   0.91296   0.25358   0.00000  Uiso   1.00
O416   O     0.39075   0.90371   0.24424   0.00000  Uiso   1.00
O417   O     0.64823   0.84024   0.33380   0.00000  Uiso   1.00
O418   O     0.40796   0.83099   0.32446   0.00000  Uiso   1.00
O419   O     0.60925   0.76296   0.25577   0.00000  Uiso   1.00
O420   O     0.36898   0.75371   0.24643   0.00000  Uiso   1.00
O421   O     0.59204   0.83567   0.17554   0.00000  Uiso   1.00
O422   O     0.35177   0.82642   0.16620   0.00000  Uiso   1.00
Zn423  Zn    0.60453   0.83951   0.25624   0.00000  Uiso   1.00
Zn424  Zn    0.39547   0.82716   0.24377   0.00000  Uiso   1.00
C425   C     0.68128   0.93141   0.24847   0.00000  Uiso   1.00
C426   C     0.73012   0.86245   0.41141   0.00000  Uiso   1.00
C427   C     0.68877   0.98593   0.24726   0.00000  Uiso   1.00
C428   C     0.70476   0.84368   0.35380   0.00000  Uiso   1.00
C429   C     0.97754   0.68067   0.25161   0.00000  Uiso   1.00
C430   C     0.98526   0.73524   0.25115   0.00000  Uiso   1.00
C431   C     0.96334   0.82889   0.14594   0.00000  Uiso   1.00
C432   C     0.94975   0.80011   0.49605   0.00000  Uiso   1.00
C433   C     0.94182   0.82538   0.08763   0.00000  Uiso   1.00
C434   C     0.69489   0.88260   0.44454   0.00000  Uiso   1.00
C435   C     0.71615   0.89194   0.00071   0.00000  Uiso   1.00
C436   C     0.80907   0.86049   0.49168   0.00000  Uiso   1.00
C437   C     0.77138   0.87827   0.02466   0.00000  Uiso   1.00
C438   C     0.82222   0.77071   0.20704   0.00000  Uiso   1.00
C439   C     0.77734   0.75749   0.15320   0.00000  Uiso   1.00
C440   C     0.79464   0.71258   0.11876   0.00000  Uiso   1.00
C441   C     0.79003   0.85920   0.43450   0.00000  Uiso   1.00
C442   C     0.86476   0.84318   0.01263   0.00000  Uiso   1.00
C443   C     0.89815   0.82312   0.47636   0.00000  Uiso   1.00
C444   C     0.88200   0.83041   0.42135   0.00000  Uiso   1.00
C445   C     0.83186   0.85398   0.40246   0.00000  Uiso   1.00
C446   C     0.88851   0.84521   0.06815   0.00000  Uiso   1.00
C447   C     0.97173   0.80130   0.05193   0.00000  Uiso   1.00
H448   H     0.67892   0.78447   0.06699   0.00000  Uiso   1.00
H449   H     0.73083   0.66946   0.24297   0.00000  Uiso   1.00
H450   H     0.83625   0.72385   0.10707   0.00000  Uiso   1.00
H451   H     0.79942   0.67714   0.14199   0.00000  Uiso   1.00
H452   H     0.76049   0.70316   0.08078   0.00000  Uiso   1.00
H453   H     0.73444   0.74530   0.16118   0.00000  Uiso   1.00
H454   H     0.77383   0.79248   0.12915   0.00000  Uiso   1.00
H455   H     0.86312   0.77436   0.19455   0.00000  Uiso   1.00
H456   H     0.82184   0.73813   0.23408   0.00000  Uiso   1.00
H457   H     0.90951   0.82055   0.39356   0.00000  Uiso   1.00
H458   H     0.93544   0.99713   0.25577   0.00000  Uiso   1.00
H459   H     0.84351   0.88130   0.28251   0.00000  Uiso   1.00
H460   H     0.97423   0.78336   0.46828   0.00000  Uiso   1.00
H461   H     0.86698   0.86358   0.09707   0.00000  Uiso   1.00
H462   H     0.98409   0.89062   0.42716   0.00000  Uiso   1.00
H463   H     0.78289   0.88223   0.06872   0.00000  Uiso   1.00
H464   H     0.68838   0.90692   0.02622   0.00000  Uiso   1.00
H465   H     0.82712   0.86881   0.36300   0.00000  Uiso   1.00
N466   N     0.81160   0.81890   0.23543   0.00000  Uiso   1.00
N467   N     0.85507   0.84777   0.26458   0.00000  Uiso   1.00
O468   O     0.96435   0.91296   0.25358   0.00000  Uiso   1.00
O469   O     0.72408   0.90371   0.24424   0.00000  Uiso   1.00
O470   O     0.98157   0.84024   0.33380   0.00000  Uiso   1.00
O471   O     0.74130   0.83099   0.32446   0.00000  Uiso   1.00
O472   O     0.94258   0.76296   0.25577   0.00000  Uiso   1.00
O473   O     0.70231   0.75371   0.24643   0.00000  Uiso   1.00
O474   O     0.92537   0.83567   0.17554   0.00000  Uiso   1.00
O475   O     0.68510   0.82642   0.16620   0.00000  Uiso   1.00
Zn476  Zn    0.93786   0.83951   0.25624   0.00000  Uiso   1.00
Zn477  Zn    0.72881   0.82716   0.24377   0.00000  Uiso   1.00
C478   C     0.01462   0.26474   0.74847   0.00000  Uiso   1.00
C479   C     0.06346   0.19578   0.91141   0.00000  Uiso   1.00
C480   C     0.02211   0.31927   0.74726   0.00000  Uiso   1.00
C481   C     0.03809   0.17702   0.85380   0.00000  Uiso   1.00
C482   C     0.31087   0.01400   0.75161   0.00000  Uiso   1.00
C483   C     0.31860   0.06857   0.75115   0.00000  Uiso   1.00
C484   C     0.29667   0.16223   0.64594   0.00000  Uiso   1.00
C485   C     0.28308   0.13344   0.99605   0.00000  Uiso   1.00
C486   C     0.27515   0.15871   0.58763   0.00000  Uiso   1.00
C487   C     0.02822   0.21594   0.94454   0.00000  Uiso   1.00
C488   C     0.04949   0.22528   0.50071   0.00000  Uiso   1.00
C489   C     0.14241   0.19383   0.99168   0.00000  Uiso   1.00
C490   C     0.10471   0.21161   0.52466   0.00000  Uiso   1.00
C491   C     0.15555   0.10404   0.70704   0.00000  Uiso   1.00
C492   C     0.11067   0.09083   0.65320   0.00000  Uiso   1.00
C493   C     0.12797   0.04592   0.61876   0.00000  Uiso   1.00
C494   C     0.12336   0.19253   0.93450   0.00000  Uiso   1.00
C495   C     0.19810   0.17651   0.51263   0.00000  Uiso   1.00
C496   C     0.23148   0.15645   0.97636   0.00000  Uiso   1.00
C497   C     0.21533   0.16374   0.92135   0.00000  Uiso   1.00
C498   C     0.16519   0.18732   0.90246   0.00000  Uiso   1.00
C499   C     0.22185   0.17854   0.56815   0.00000  Uiso   1.00
C500   C     0.30506   0.13464   0.55193   0.00000  Uiso   1.00
H501   H     0.01225   0.11781   0.56699   0.00000  Uiso   1.00
H502   H     0.06416   0.00280   0.74297   0.00000  Uiso   1.00
H503   H     0.16958   0.05718   0.60707   0.00000  Uiso   1.00
H504   H     0.13275   0.01047   0.64199   0.00000  Uiso   1.00
H505   H     0.09382   0.03649   0.58078   0.00000  Uiso   1.00
H506   H     0.06777   0.07863   0.66118   0.00000  Uiso   1.00
H507   H     0.10716   0.12581   0.62915   0.00000  Uiso   1.00
H508   H     0.19645   0.10770   0.69455   0.00000  Uiso   1.00
H509   H     0.15517   0.07146   0.73408   0.00000  Uiso   1.00
H510   H     0.24284   0.15389   0.89356   0.00000  Uiso   1.00
H511   H     0.26877   0.33047   0.75577   0.00000  Uiso   1.00
H512   H     0.17684   0.21464   0.78251   0.00000  Uiso   1.00
H513   H     0.30757   0.11669   0.96828   0.00000  Uiso   1.00
H514   H     0.20031   0.19691   0.59707   0.00000  Uiso   1.00
H515   H     0.31743   0.22396   0.92716   0.00000  Uiso   1.00
H516   H     0.11622   0.21556   0.56872   0.00000  Uiso   1.00
H517   H     0.02172   0.24025   0.52622   0.00000  Uiso   1.00
H518   H     0.16046   0.20215   0.86300   0.00000  Uiso   1.00
N519   N     0.14493   0.15223   0.73543   0.00000  Uiso   1.00
N520   N     0.18840   0.18110   0.76458   0.00000  Uiso   1.00
O521   O     0.29769   0.24629   0.75358   0.00000  Uiso   1.00
O522   O     0.05742   0.23704   0.74424   0.00000  Uiso   1.00
O523   O     0.31490   0.17358   0.83380   0.00000  Uiso   1.00
O524   O     0.07463   0.16433   0.82446   0.00000  Uiso   1.00
O525   O     0.27592   0.09629   0.75577   0.00000  Uiso   1.00
O526   O     0.03565   0.08704   0.74643   0.00000  Uiso   1.00
O527   O     0.25870   0.16901   0.67554   0.00000  Uiso   1.00
O528   O     0.01843   0.15976   0.66620   0.00000  Uiso   1.00
Zn529  Zn    0.27119   0.17284   0.75624   0.00000  Uiso   1.00
Zn530  Zn    0.06214   0.16049   0.74377   0.00000  Uiso   1.00
C531   C     0.34795   0.26474   0.74847   0.00000  Uiso   1.00
C532   C     0.39679   0.19578   0.91141   0.00000  Uiso   1.00
C533   C     0.35544   0.31927   0.74726   0.00000  Uiso   1.00
C534   C     0.37142   0.17702   0.85380   0.00000  Uiso   1.00
C535   C     0.64420   0.01400   0.75161   0.00000  Uiso   1.00
C536   C     0.65193   0.06857   0.75115   0.00000  Uiso   1.00
C537   C     0.63000   0.16223   0.64594   0.00000  Uiso   1.00
C538   C     0.61641   0.13344   0.99605   0.00000  Uiso   1.00
C539   C     0.60848   0.15871   0.58763   0.00000  Uiso   1.00
C540   C     0.36156   0.21594   0.94454   0.00000  Uiso   1.00
C541   C     0.38282   0.22528   0.50071   0.00000  Uiso   1.00
C542   C     0.47574   0.19383   0.99168   0.00000  Uiso   1.00
C543   C     0.43805   0.21161   0.52466   0.00000  Uiso   1.00
C544   C     0.48888   0.10404   0.70704   0.00000  Uiso   1.00
C545   C     0.44401   0.09083   0.65320   0.00000  Uiso   1.00
C546   C     0.46131   0.04592   0.61876   0.00000  Uiso   1.00
C547   C     0.45669   0.19253   0.93450   0.00000  Uiso   1.00
C548   C     0.53143   0.17651   0.51263   0.00000  Uiso   1.00
C549   C     0.56482   0.15645   0.97636   0.00000  Uiso   1.00
C550   C     0.54866   0.16374   0.92135   0.00000  Uiso   1.00
C551   C     0.49853   0.18732   0.90246   0.00000  Uiso   1.00
C552   C     0.55518   0.17854   0.56815   0.00000  Uiso   1.00
C553   C     0.63840   0.13464   0.55193   0.00000  Uiso   1.00
H554   H     0.34558   0.11781   0.56699   0.00000  Uiso   1.00
H555   H     0.39749   0.00280   0.74297   0.00000  Uiso   1.00
H556   H     0.50291   0.05718   0.60707   0.00000  Uiso   1.00
H557   H     0.46608   0.01047   0.64199   0.00000  Uiso   1.00
H558   H     0.42716   0.03649   0.58078   0.00000  Uiso   1.00
H559   H     0.40110   0.07863   0.66118   0.00000  Uiso   1.00
H560   H     0.44049   0.12581   0.62915   0.00000  Uiso   1.00
H561   H     0.52979   0.10770   0.69455   0.00000  Uiso   1.00
H562   H     0.48851   0.07146   0.73408   0.00000  Uiso   1.00
H563   H     0.57618   0.15389   0.89356   0.00000  Uiso   1.00
H564   H     0.60210   0.33047   0.75577   0.00000  Uiso   1.00
H565   H     0.51017   0.21464   0.78251   0.00000  Uiso   1.00
H566   H     0.64090   0.11669   0.96828   0.00000  Uiso   1.00
H567   H     0.53365   0.19691   0.59707   0.00000  Uiso   1.00
H568   H     0.65076   0.22396   0.92716   0.00000  Uiso   1.00
H569   H     0.44955   0.21556   0.56872   0.00000  Uiso   1.00
H570   H     0.35505   0.24025   0.52622   0.00000  Uiso   1.00
H571   H     0.49379   0.20215   0.86300   0.00000  Uiso   1.00
N572   N     0.47827   0.15223   0.73543   0.00000  Uiso   1.00
N573   N     0.52173   0.18110   0.76458   0.00000  Uiso   1.00
O574   O     0.63102   0.24629   0.75358   0.00000  Uiso   1.00
O575   O     0.39075   0.23704   0.74424   0.00000  Uiso   1.00
O576   O     0.64823   0.17358   0.83380   0.00000  Uiso   1.00
O577   O     0.40796   0.16433   0.82446   0.00000  Uiso   1.00
O578   O     0.60925   0.09629   0.75577   0.00000  Uiso   1.00
O579   O     0.36898   0.08704   0.74643   0.00000  Uiso   1.00
O580   O     0.59204   0.16901   0.67554   0.00000  Uiso   1.00
O581   O     0.35177   0.15976   0.66620   0.00000  Uiso   1.00
Zn582  Zn    0.60453   0.17284   0.75624   0.00000  Uiso   1.00
Zn583  Zn    0.39547   0.16049   0.74377   0.00000  Uiso   1.00
C584   C     0.68128   0.26474   0.74847   0.00000  Uiso   1.00
C585   C     0.73012   0.19578   0.91141   0.00000  Uiso   1.00
C586   C     0.68877   0.31927   0.74726   0.00000  Uiso   1.00
C587   C     0.70476   0.17702   0.85380   0.00000  Uiso   1.00
C588   C     0.97754   0.01400   0.75161   0.00000  Uiso   1.00
C589   C     0.98526   0.06857   0.75115   0.00000  Uiso   1.00
C590   C     0.96334   0.16223   0.64594   0.00000  Uiso   1.00
C591   C     0.94975   0.13344   0.99605   0.00000  Uiso   1.00
C592   C     0.94182   0.15871   0.58763   0.00000  Uiso   1.00
C593   C     0.69489   0.21594   0.94454   0.00000  Uiso   1.00
C594   C     0.71615   0.22528   0.50071   0.00000  Uiso   1.00
C595   C     0.80907   0.19383   0.99168   0.00000  Uiso   1.00
C596   C     0.77138   0.21161   0.52466   0.00000  Uiso   1.00
C597   C     0.82222   0.10404   0.70704   0.00000  Uiso   1.00
C598   C     0.77734   0.09083   0.65320   0.00000  Uiso   1.00
C599   C     0.79464   0.04592   0.61876   0.00000  Uiso   1.00
C600   C     0.79003   0.19253   0.93450   0.00000  Uiso   1.00
C601   C     0.86476   0.17651   0.51263   0.00000  Uiso   1.00
C602   C     0.89815   0.15645   0.97636   0.00000  Uiso   1.00
C603   C     0.88200   0.16374   0.92135   0.00000  Uiso   1.00
C604   C     0.83186   0.18732   0.90246   0.00000  Uiso   1.00
C605   C     0.88851   0.17854   0.56815   0.00000  Uiso   1.00
C606   C     0.97173   0.13464   0.55193   0.00000  Uiso   1.00
H607   H     0.67892   0.11781   0.56699   0.00000  Uiso   1.00
H608   H     0.73083   0.00280   0.74297   0.00000  Uiso   1.00
H609   H     0.83625   0.05718   0.60707   0.00000  Uiso   1.00
H610   H     0.79942   0.01047   0.64199   0.00000  Uiso   1.00
H611   H     0.76049   0.03649   0.58078   0.00000  Uiso   1.00
H612   H     0.73444   0.07863   0.66118   0.00000  Uiso   1.00
H613   H     0.77383   0.12581   0.62915   0.00000  Uiso   1.00
H614   H     0.86312   0.10770   0.69455   0.00000  Uiso   1.00
H615   H     0.82184   0.07146   0.73408   0.00000  Uiso   1.00
H616   H     0.90951   0.15389   0.89356   0.00000  Uiso   1.00
H617   H     0.93544   0.33047   0.75577   0.00000  Uiso   1.00
H618   H     0.84351   0.21464   0.78251   0.00000  Uiso   1.00
H619   H     0.97423   0.11669   0.96828   0.00000  Uiso   1.00
H620   H     0.86698   0.19691   0.59707   0.00000  Uiso   1.00
H621   H     0.98409   0.22396   0.92716   0.00000  Uiso   1.00
H622   H     0.78289   0.21556   0.56872   0.00000  Uiso   1.00
H623   H     0.68838   0.24025   0.52622   0.00000  Uiso   1.00
H624   H     0.82712   0.20215   0.86300   0.00000  Uiso   1.00
N625   N     0.81160   0.15223   0.73543   0.00000  Uiso   1.00
N626   N     0.85507   0.18110   0.76458   0.00000  Uiso   1.00
O627   O     0.96435   0.24629   0.75358   0.00000  Uiso   1.00
O628   O     0.72408   0.23704   0.74424   0.00000  Uiso   1.00
O629   O     0.98157   0.17358   0.83380   0.00000  Uiso   1.00
O630   O     0.74130   0.16433   0.82446   0.00000  Uiso   1.00
O631   O     0.94258   0.09629   0.75577   0.00000  Uiso   1.00
O632   O     0.70231   0.08704   0.74643   0.00000  Uiso   1.00
O633   O     0.92537   0.16901   0.67554   0.00000  Uiso   1.00
O634   O     0.68510   0.15976   0.66620   0.00000  Uiso   1.00
Zn635  Zn    0.93786   0.17284   0.75624   0.00000  Uiso   1.00
Zn636  Zn    0.72881   0.16049   0.74377   0.00000  Uiso   1.00
C637   C     0.01462   0.59808   0.74847   0.00000  Uiso   1.00
C638   C     0.06346   0.52912   0.91141   0.00000  Uiso   1.00
C639   C     0.02211   0.65260   0.74726   0.00000  Uiso   1.00
C640   C     0.03809   0.51035   0.85380   0.00000  Uiso   1.00
C641   C     0.31087   0.34733   0.75161   0.00000  Uiso   1.00
C642   C     0.31860   0.40191   0.75115   0.00000  Uiso   1.00
C643   C     0.29667   0.49556   0.64594   0.00000  Uiso   1.00
C644   C     0.28308   0.46677   0.99605   0.00000  Uiso   1.00
C645   C     0.27515   0.49205   0.58763   0.00000  Uiso   1.00
C646   C     0.02822   0.54927   0.94454   0.00000  Uiso   1.00
C647   C     0.04949   0.55861   0.50071   0.00000  Uiso   1.00
C648   C     0.14241   0.52716   0.99168   0.00000  Uiso   1.00
C649   C     0.10471   0.54494   0.52466   0.00000  Uiso   1.00
C650   C     0.15555   0.43738   0.70704   0.00000  Uiso   1.00
C651   C     0.11067   0.42416   0.65320   0.00000  Uiso   1.00
C652   C     0.12797   0.37925   0.61876   0.00000  Uiso   1.00
C653   C     0.12336   0.52586   0.93450   0.00000  Uiso   1.00
C654   C     0.19810   0.50984   0.51263   0.00000  Uiso   1.00
C655   C     0.23148   0.48978   0.97636   0.00000  Uiso   1.00
C656   C     0.21533   0.49707   0.92135   0.00000  Uiso   1.00
C657   C     0.16519   0.52065   0.90246   0.00000  Uiso   1.00
C658   C     0.22185   0.51187   0.56815   0.00000  Uiso   1.00
C659   C     0.30506   0.46797   0.55193   0.00000  Uiso   1.00
H660   H     0.01225   0.45114   0.56699   0.00000  Uiso   1.00
H661   H     0.06416   0.33613   0.74297   0.00000  Uiso   1.00
H662   H     0.16958   0.39052   0.60707   0.00000  Uiso   1.00
H663   H     0.13275   0.34381   0.64199   0.00000  Uiso   1.00
H664   H     0.09382   0.36983   0.58078   0.00000  Uiso   1.00
H665   H     0.06777   0.41197   0.66118   0.00000  Uiso   1.00
H666   H     0.10716   0.45914   0.62915   0.00000  Uiso   1.00
H667   H     0.19645   0.44103   0.69455   0.00000  Uiso   1.00
H668   H     0.15517   0.40480   0.73408   0.00000  Uiso   1.00
H669   H     0.24284   0.48722   0.89356   0.00000  Uiso   1.00
H670   H     0.26877   0.66380   0.75577   0.00000  Uiso   1.00
H671   H     0.17684   0.54797   0.78251   0.00000  Uiso   1.00
H672   H     0.30757   0.45002   0.96828   0.00000  Uiso   1.00
H673   H     0.20031   0.53024   0.59707   0.00000  Uiso   1.00
H674   H     0.31743   0.55729   0.92716   0.00000  Uiso   1.00
H675   H     0.11622   0.54889   0.56872   0.00000  Uiso   1.00
H676   H     0.02172   0.57359   0.52622   0.00000  Uiso   1.00
H677   H     0.16046   0.53548   0.86300   0.00000  Uiso   1.00
N678   N     0.14493   0.48556   0.73543   0.00000  Uiso   1.00
N679   N     0.18840   0.51444   0.76458   0.00000  Uiso   1.00
O680   O     0.29769   0.57963   0.75358   0.00000  Uiso   1.00
O681   O     0.05742   0.57038   0.74424   0.00000  Uiso   1.00
O682   O     0.31490   0.50691   0.83380   0.00000  Uiso   1.00
O683   O     0.07463   0.49766   0.82446   0.00000  Uiso   1.00
O684   O     0.27592   0.42962   0.75577   0.00000  Uiso   1.00
O685   O     0.03565   0.42037   0.74643   0.00000  Uiso   1.00
O686   O     0.25870   0.50234   0.67554   0.00000  Uiso   1.00
O687   O     0.01843   0.49309   0.66620   0.00000  Uiso   1.00
Zn688  Zn    0.27119   0.50618   0.75624   0.00000  Uiso   1.00
Zn689  Zn    0.06214   0.49382   0.74377   0.00000  Uiso   1.00
C690   C     0.34795   0.59808   0.74847   0.00000  Uiso   1.00
C691   C     0.39679   0.52912   0.91141   0.00000  Uiso   1.00
C692   C     0.35544   0.65260   0.74726   0.00000  Uiso   1.00
C693   C     0.37142   0.51035   0.85380   0.00000  Uiso   1.00
C694   C     0.64420   0.34733   0.75161   0.00000  Uiso   1.00
C695   C     0.65193   0.40191   0.75115   0.00000  Uiso   1.00
C696   C     0.63000   0.49556   0.64594   0.00000  Uiso   1.00
C697   C     0.61641   0.46677   0.99605   0.00000  Uiso   1.00
C698   C     0.60848   0.49205   0.58763   0.00000  Uiso   1.00
C699   C     0.36156   0.54927   0.94454   0.00000  Uiso   1.00
C700   C     0.38282   0.55861   0.50071   0.00000  Uiso   1.00
C701   C     0.47574   0.52716   0.99168   0.00000  Uiso   1.00
C702   C     0.43805   0.54494   0.52466   0.00000  Uiso   1.00
C703   C     0.48888   0.43738   0.70704   0.00000  Uiso   1.00
C704   C     0.44401   0.42416   0.65320   0.00000  Uiso   1.00
C705   C     0.46131   0.37925   0.61876   0.00000  Uiso   1.00
C706   C     0.45669   0.52586   0.93450   0.00000  Uiso   1.00
C707   C     0.53143   0.50984   0.51263   0.00000  Uiso   1.00
C708   C     0.56482   0.48978   0.97636   0.00000  Uiso   1.00
C709   C     0.54866   0.49707   0.92135   0.00000  Uiso   1.00
C710   C     0.49853   0.52065   0.90246   0.00000  Uiso   1.00
C711   C     0.55518   0.51187   0.56815   0.00000  Uiso   1.00
C712   C     0.63840   0.46797   0.55193   0.00000  Uiso   1.00
H713   H     0.34558   0.45114   0.56699   0.00000  Uiso   1.00
H714   H     0.39749   0.33613   0.74297   0.00000  Uiso   1.00
H715   H     0.50291   0.39052   0.60707   0.00000  Uiso   1.00
H716   H     0.46608   0.34381   0.64199   0.00000  Uiso   1.00
H717   H     0.42716   0.36983   0.58078   0.00000  Uiso   1.00
H718   H     0.40110   0.41197   0.66118   0.00000  Uiso   1.00
H719   H     0.44049   0.45914   0.62915   0.00000  Uiso   1.00
H720   H     0.52979   0.44103   0.69455   0.00000  Uiso   1.00
H721   H     0.48851   0.40480   0.73408   0.00000  Uiso   1.00
H722   H     0.57618   0.48722   0.89356   0.00000  Uiso   1.00
H723   H     0.60210   0.66380   0.75577   0.00000  Uiso   1.00
H724   H     0.51017   0.54797   0.78251   0.00000  Uiso   1.00
H725   H     0.64090   0.45002   0.96828   0.00000  Uiso   1.00
H726   H     0.53365   0.53024   0.59707   0.00000  Uiso   1.00
H727   H     0.65076   0.55729   0.92716   0.00000  Uiso   1.00
H728   H     0.44955   0.54889   0.56872   0.00000  Uiso   1.00
H729   H     0.35505   0.57359   0.52622   0.00000  Uiso   1.00
H730   H     0.49379   0.53548   0.86300   0.00000  Uiso   1.00
N731   N     0.47827   0.48556   0.73543   0.00000  Uiso   1.00
N732   N     0.52173   0.51444   0.76458   0.00000  Uiso   1.00
O733   O     0.63102   0.57963   0.75358   0.00000  Uiso   1.00
O734   O     0.39075   0.57038   0.74424   0.00000  Uiso   1.00
O735   O     0.64823   0.50691   0.83380   0.00000  Uiso   1.00
O736   O     0.40796   0.49766   0.82446   0.00000  Uiso   1.00
O737   O     0.60925   0.42962   0.75577   0.00000  Uiso   1.00
O738   O     0.36898   0.42037   0.74643   0.00000  Uiso   1.00
O739   O     0.59204   0.50234   0.67554   0.00000  Uiso   1.00
O740   O     0.35177   0.49309   0.66620   0.00000  Uiso   1.00
Zn741  Zn    0.60453   0.50618   0.75624   0.00000  Uiso   1.00
Zn742  Zn    0.39547   0.49382   0.74377   0.00000  Uiso   1.00
C743   C     0.68128   0.59808   0.74847   0.00000  Uiso   1.00
C744   C     0.73012   0.52912   0.91141   0.00000  Uiso   1.00
C745   C     0.68877   0.65260   0.74726   0.00000  Uiso   1.00
C746   C     0.70476   0.51035   0.85380   0.00000  Uiso   1.00
C747   C     0.97754   0.34733   0.75161   0.00000  Uiso   1.00
C748   C     0.98526   0.40191   0.75115   0.00000  Uiso   1.00
C749   C     0.96334   0.49556   0.64594   0.00000  Uiso   1.00
C750   C     0.94975   0.46677   0.99605   0.00000  Uiso   1.00
C751   C     0.94182   0.49205   0.58763   0.00000  Uiso   1.00
C752   C     0.69489   0.54927   0.94454   0.00000  Uiso   1.00
C753   C     0.71615   0.55861   0.50071   0.00000  Uiso   1.00
C754   C     0.80907   0.52716   0.99168   0.00000  Uiso   1.00
C755   C     0.77138   0.54494   0.52466   0.00000  Uiso   1.00
C756   C     0.82222   0.43738   0.70704   0.00000  Uiso   1.00
C757   C     0.77734   0.42416   0.65320   0.00000  Uiso   1.00
C758   C     0.79464   0.37925   0.61876   0.00000  Uiso   1.00
C759   C     0.79003   0.52586   0.93450   0.00000  Uiso   1.00
C760   C     0.86476   0.50984   0.51263   0.00000  Uiso   1.00
C761   C     0.89815   0.48978   0.97636   0.00000  Uiso   1.00
C762   C     0.88200   0.49707   0.92135   0.00000  Uiso   1.00
C763   C     0.83186   0.52065   0.90246   0.00000  Uiso   1.00
C764   C     0.88851   0.51187   0.56815   0.00000  Uiso   1.00
C765   C     0.97173   0.46797   0.55193   0.00000  Uiso   1.00
H766   H     0.67892   0.45114   0.56699   0.00000  Uiso   1.00
H767   H     0.73083   0.33613   0.74297   0.00000  Uiso   1.00
H768   H     0.83625   0.39052   0.60707   0.00000  Uiso   1.00
H769   H     0.79942   0.34381   0.64199   0.00000  Uiso   1.00
H770   H     0.76049   0.36983   0.58078   0.00000  Uiso   1.00
H771   H     0.73444   0.41197   0.66118   0.00000  Uiso   1.00
H772   H     0.77383   0.45914   0.62915   0.00000  Uiso   1.00
H773   H     0.86312   0.44103   0.69455   0.00000  Uiso   1.00
H774   H     0.82184   0.40480   0.73408   0.00000  Uiso   1.00
H775   H     0.90951   0.48722   0.89356   0.00000  Uiso   1.00
H776   H     0.93544   0.66380   0.75577   0.00000  Uiso   1.00
H777   H     0.84351   0.54797   0.78251   0.00000  Uiso   1.00
H778   H     0.97423   0.45002   0.96828   0.00000  Uiso   1.00
H779   H     0.86698   0.53024   0.59707   0.00000  Uiso   1.00
H780   H     0.98409   0.55729   0.92716   0.00000  Uiso   1.00
H781   H     0.78289   0.54889   0.56872   0.00000  Uiso   1.00
H782   H     0.68838   0.57359   0.52622   0.00000  Uiso   1.00
H783   H     0.82712   0.53548   0.86300   0.00000  Uiso   1.00
N784   N     0.81160   0.48556   0.73543   0.00000  Uiso   1.00
N785   N     0.85507   0.51444   0.76458   0.00000  Uiso   1.00
O786   O     0.96435   0.57963   0.75358   0.00000  Uiso   1.00
O787   O     0.72408   0.57038   0.74424   0.00000  Uiso   1.00
O788   O     0.98157   0.50691   0.83380   0.00000  Uiso   1.00
O789   O     0.74130   0.49766   0.82446   0.00000  Uiso   1.00
O790   O     0.94258   0.42962   0.75577   0.00000  Uiso   1.00
O791   O     0.70231   0.42037   0.74643   0.00000  Uiso   1.00
O792   O     0.92537   0.50234   0.67554   0.00000  Uiso   1.00
O793   O     0.68510   0.49309   0.66620   0.00000  Uiso   1.00
Zn794  Zn    0.93786   0.50618   0.75624   0.00000  Uiso   1.00
Zn795  Zn    0.72881   0.49382   0.74377   0.00000  Uiso   1.00
C796   C     0.01462   0.93141   0.74847   0.00000  Uiso   1.00
C797   C     0.06346   0.86245   0.91141   0.00000  Uiso   1.00
C798   C     0.02211   0.98593   0.74726   0.00000  Uiso   1.00
C799   C     0.03809   0.84368   0.85380   0.00000  Uiso   1.00
C800   C     0.31087   0.68067   0.75161   0.00000  Uiso   1.00
C801   C     0.31860   0.73524   0.75115   0.00000  Uiso   1.00
C802   C     0.29667   0.82889   0.64594   0.00000  Uiso   1.00
C803   C     0.28308   0.80011   0.99605   0.00000  Uiso   1.00
C804   C     0.27515   0.82538   0.58763   0.00000  Uiso   1.00
C805   C     0.02822   0.88260   0.94454   0.00000  Uiso   1.00
C806   C     0.04949   0.89194   0.50071   0.00000  Uiso   1.00
C807   C     0.14241   0.86049   0.99168   0.00000  Uiso   1.00
C808   C     0.10471   0.87827   0.52466   0.00000  Uiso   1.00
C809   C     0.15555   0.77071   0.70704   0.00000  Uiso   1.00
C810   C     0.11067   0.75749   0.65320   0.00000  Uiso   1.00
C811   C     0.12797   0.71258   0.61876   0.00000  Uiso   1.00
C812   C     0.12336   0.85920   0.93450   0.00000  Uiso   1.00
C813   C     0.19810   0.84318   0.51263   0.00000  Uiso   1.00
C814   C     0.23148   0.82312   0.97636   0.00000  Uiso   1.00
C815   C     0.21533   0.83041   0.92135   0.00000  Uiso   1.00
C816   C     0.16519   0.85398   0.90246   0.00000  Uiso   1.00
C817   C     0.22185   0.84521   0.56815   0.00000  Uiso   1.00
C818   C     0.30506   0.80130   0.55193   0.00000  Uiso   1.00
H819   H     0.01225   0.78447   0.56699   0.00000  Uiso   1.00
H820   H     0.06416   0.66946   0.74297   0.00000  Uiso   1.00
H821   H     0.16958   0.72385   0.60707   0.00000  Uiso   1.00
H822   H     0.13275   0.67714   0.64199   0.00000  Uiso   1.00
H823   H     0.09382   0.70316   0.58078   0.00000  Uiso   1.00
H824   H     0.06777   0.74530   0.66118   0.00000  Uiso   1.00
H825   H     0.10716   0.79248   0.62915   0.00000  Uiso   1.00
H826   H     0.19645   0.77436   0.69455   0.00000  Uiso   1.00
H827   H     0.15517   0.73813   0.73408   0.00000  Uiso   1.00
H828   H     0.24284   0.82055   0.89356   0.00000  Uiso   1.00
H829   H     0.26877   0.99713   0.75577   0.00000  Uiso   1.00
H830   H     0.17684   0.88130   0.78251   0.00000  Uiso   1.00
H831   H     0.30757   0.78336   0.96828   0.00000  Uiso   1.00
H832   H     0.20031   0.86358   0.59707   0.00000  Uiso   1.00
H833   H     0.31743   0.89062   0.92716   0.00000  Uiso   1.00
H834   H     0.11622   0.88223   0.56872   0.00000  Uiso   1.00
H835   H     0.02172   0.90692   0.52622   0.00000  Uiso   1.00
H836   H     0.16046   0.86881   0.86300   0.00000  Uiso   1.00
N837   N     0.14493   0.81890   0.73543   0.00000  Uiso   1.00
N838   N     0.18840   0.84777   0.76458   0.00000  Uiso   1.00
O839   O     0.29769   0.91296   0.75358   0.00000  Uiso   1.00
O840   O     0.05742   0.90371   0.74424   0.00000  Uiso   1.00
O841   O     0.31490   0.84024   0.83380   0.00000  Uiso   1.00
O842   O     0.07463   0.83099   0.82446   0.00000  Uiso   1.00
O843   O     0.27592   0.76296   0.75577   0.00000  Uiso   1.00
O844   O     0.03565   0.75371   0.74643   0.00000  Uiso   1.00
O845   O     0.25870   0.83567   0.67554   0.00000  Uiso   1.00
O846   O     0.01843   0.82642   0.66620   0.00000  Uiso   1.00
Zn847  Zn    0.27119   0.83951   0.75624   0.00000  Uiso   1.00
Zn848  Zn    0.06214   0.82716   0.74377   0.00000  Uiso   1.00
C849   C     0.34795   0.93141   0.74847   0.00000  Uiso   1.00
C850   C     0.39679   0.86245   0.91141   0.00000  Uiso   1.00
C851   C     0.35544   0.98593   0.74726   0.00000  Uiso   1.00
C852   C     0.37142   0.84368   0.85380   0.00000  Uiso   1.00
C853   C     0.64420   0.68067   0.75161   0.00000  Uiso   1.00
C854   C     0.65193   0.73524   0.75115   0.00000  Uiso   1.00
C855   C     0.63000   0.82889   0.64594   0.00000  Uiso   1.00
C856   C     0.61641   0.80011   0.99605   0.00000  Uiso   1.00
C857   C     0.60848   0.82538   0.58763   0.00000  Uiso   1.00
C858   C     0.36156   0.88260   0.94454   0.00000  Uiso   1.00
C859   C     0.38282   0.89194   0.50071   0.00000  Uiso   1.00
C860   C     0.47574   0.86049   0.99168   0.00000  Uiso   1.00
C861   C     0.43805   0.87827   0.52466   0.00000  Uiso   1.00
C862   C     0.48888   0.77071   0.70704   0.00000  Uiso   1.00
C863   C     0.44401   0.75749   0.65320   0.00000  Uiso   1.00
C864   C     0.46131   0.71258   0.61876   0.00000  Uiso   1.00
C865   C     0.45669   0.85920   0.93450   0.00000  Uiso   1.00
C866   C     0.53143   0.84318   0.51263   0.00000  Uiso   1.00
C867   C     0.56482   0.82312   0.97636   0.00000  Uiso   1.00
C868   C     0.54866   0.83041   0.92135   0.00000  Uiso   1.00
C869   C     0.49853   0.85398   0.90246   0.00000  Uiso   1.00
C870   C     0.55518   0.84521   0.56815   0.00000  Uiso   1.00
C871   C     0.63840   0.80130   0.55193   0.00000  Uiso   1.00
H872   H     0.34558   0.78447   0.56699   0.00000  Uiso   1.00
H873   H     0.39749   0.66946   0.74297   0.00000  Uiso   1.00
H874   H     0.50291   0.72385   0.60707   0.00000  Uiso   1.00
H875   H     0.46608   0.67714   0.64199   0.00000  Uiso   1.00
H876   H     0.42716   0.70316   0.58078   0.00000  Uiso   1.00
H877   H     0.40110   0.74530   0.66118   0.00000  Uiso   1.00
H878   H     0.44049   0.79248   0.62915   0.00000  Uiso   1.00
H879   H     0.52979   0.77436   0.69455   0.00000  Uiso   1.00
H880   H     0.48851   0.73813   0.73408   0.00000  Uiso   1.00
H881   H     0.57618   0.82055   0.89356   0.00000  Uiso   1.00
H882   H     0.60210   0.99713   0.75577   0.00000  Uiso   1.00
H883   H     0.51017   0.88130   0.78251   0.00000  Uiso   1.00
H884   H     0.64090   0.78336   0.96828   0.00000  Uiso   1.00
H885   H     0.53365   0.86358   0.59707   0.00000  Uiso   1.00
H886   H     0.65076   0.89062   0.92716   0.00000  Uiso   1.00
H887   H     0.44955   0.88223   0.56872   0.00000  Uiso   1.00
H888   H     0.35505   0.90692   0.52622   0.00000  Uiso   1.00
H889   H     0.49379   0.86881   0.86300   0.00000  Uiso   1.00
N890   N     0.47827   0.81890   0.73543   0.00000  Uiso   1.00
N891   N     0.52173   0.84777   0.76458   0.00000  Uiso   1.00
O892   O     0.63102   0.91296   0.75358   0.00000  Uiso   1.00
O893   O     0.39075   0.90371   0.74424   0.00000  Uiso   1.00
O894   O     0.64823   0.84024   0.83380   0.00000  Uiso   1.00
O895   O     0.40796   0.83099   0.82446   0.00000  Uiso   1.00
O896   O     0.60925   0.76296   0.75577   0.00000  Uiso   1.00
O897   O     0.36898   0.75371   0.74643   0.00000  Uiso   1.00
O898   O     0.59204   0.83567   0.67554   0.00000  Uiso   1.00
O899   O     0.35177   0.82642   0.66620   0.00000  Uiso   1.00
Zn900  Zn    0.60453   0.83951   0.75624   0.00000  Uiso   1.00
Zn901  Zn    0.39547   0.82716   0.74377   0.00000  Uiso   1.00
C902   C     0.68128   0.93141   0.74847   0.00000  Uiso   1.00
C903   C     0.73012   0.86245   0.91141   0.00000  Uiso   1.00
C904   C     0.68877   0.98593   0.74726   0.00000  Uiso   1.00
C905   C     0.70476   0.84368   0.85380   0.00000  Uiso   1.00
C906   C     0.97754   0.68067   0.75161   0.00000  Uiso   1.00
C907   C     0.98526   0.73524   0.75115   0.00000  Uiso   1.00
C908   C     0.96334   0.82889   0.64594   0.00000  Uiso   1.00
C909   C     0.94975   0.80011   0.99605   0.00000  Uiso   1.00
C910   C     0.94182   0.82538   0.58763   0.00000  Uiso   1.00
C911   C     0.69489   0.88260   0.94454   0.00000  Uiso   1.00
C912   C     0.71615   0.89194   0.50071   0.00000  Uiso   1.00
C913   C     0.80907   0.86049   0.99168   0.00000  Uiso   1.00
C914   C     0.77138   0.87827   0.52466   0.00000  Uiso   1.00
C915   C     0.82222   0.77071   0.70704   0.00000  Uiso   1.00
C916   C     0.77734   0.75749   0.65320   0.00000  Uiso   1.00
C917   C     0.79464   0.71258   0.61876   0.00000  Uiso   1.00
C918   C     0.79003   0.85920   0.93450   0.00000  Uiso   1.00
C919   C     0.86476   0.84318   0.51263   0.00000  Uiso   1.00
C920   C     0.89815   0.82312   0.97636   0.00000  Uiso   1.00
C921   C     0.88200   0.83041   0.92135   0.00000  Uiso   1.00
C922   C     0.83186   0.85398   0.90246   0.00000  Uiso   1.00
C923   C     0.88851   0.84521   0.56815   0.00000  Uiso   1.00
C924   C     0.97173   0.80130   0.55193   0.00000  Uiso   1.00
H925   H     0.67892   0.78447   0.56699   0.00000  Uiso   1.00
H926   H     0.73083   0.66946   0.74297   0.00000  Uiso   1.00
H927   H     0.83625   0.72385   0.60707   0.00000  Uiso   1.00
H928   H     0.79942   0.67714   0.64199   0.00000  Uiso   1.00
H929   H     0.76049   0.70316   0.58078   0.00000  Uiso   1.00
H930   H     0.73444   0.74530   0.66118   0.00000  Uiso   1.00
H931   H     0.77383   0.79248   0.62915   0.00000  Uiso   1.00
H932   H     0.86312   0.77436   0.69455   0.00000  Uiso   1.00
H933   H     0.82184   0.73813   0.73408   0.00000  Uiso   1.00
H934   H     0.90951   0.82055   0.89356   0.00000  Uiso   1.00
H935   H     0.93544   0.99713   0.75577   0.00000  Uiso   1.00
H936   H     0.84351   0.88130   0.78251   0.00000  Uiso   1.00
H937   H     0.97423   0.78336   0.96828   0.00000  Uiso   1.00
H938   H     0.86698   0.86358   0.59707   0.00000  Uiso   1.00
H939   H     0.98409   0.89062   0.92716   0.00000  Uiso   1.00
H940   H     0.78289   0.88223   0.56872   0.00000  Uiso   1.00
H941   H     0.68838   0.90692   0.52622   0.00000  Uiso   1.00
H942   H     0.82712   0.86881   0.86300   0.00000  Uiso   1.00
N943   N     0.81160   0.81890   0.73543   0.00000  Uiso   1.00
N944   N     0.85507   0.84777   0.76458   0.00000  Uiso   1.00
O945   O     0.96435   0.91296   0.75358   0.00000  Uiso   1.00
O946   O     0.72408   0.90371   0.74424   0.00000  Uiso   1.00
O947   O     0.98157   0.84024   0.83380   0.00000  Uiso   1.00
O948   O     0.74130   0.83099   0.82446   0.00000  Uiso   1.00
O949   O     0.94258   0.76296   0.75577   0.00000  Uiso   1.00
O950   O     0.70231   0.75371   0.74643   0.00000  Uiso   1.00
O951   O     0.92537   0.83567   0.67554   0.00000  Uiso   1.00
O952   O     0.68510   0.82642   0.66620   0.00000  Uiso   1.00
Zn953  Zn    0.93786   0.83951   0.75624   0.00000  Uiso   1.00
Zn954  Zn    0.72881   0.82716   0.74377   0.00000  Uiso   1.00
loop_
_geom_bond_atom_site_label_1
_geom_bond_atom_site_label_2
_geom_bond_distance
_geom_bond_site_symmetry_2
_ccdc_geom_bond_type
C1     O45     1.295   .     A
C1     C3      1.403   .     S
C1     O150    1.286   1_455 S
C2     C4      1.478   .     S
C2     C17     1.421   .     A
C2     C10     1.398   .     A
C3     C270    1.336   1_455 S
C3     H184    1.088   .     S
C4     O47     1.295   .     A
C4     O152    1.318   1_455 S
C5     C6      1.403   .     S
C5     C374    1.336   1_545 S
C5     H352    1.088   1_545 S
C6     O48     1.295   .     A
C6     O102    1.285   .     S
C7     C9      1.437   .     S
C7     O50     1.296   .     A
C7     O104    1.301   .     S
C8     H36     1.084   .     S
C8     C19     1.399   .     A
C8     C500    1.385   .     S
C9     C22     1.393   .     A
C9     C23     1.396   .     A
C10    C488    1.391   .     S
C10    H144    1.080   1_455 S
C11    C13     1.394   .     A
C11    H40     1.083   .     S
C11    C487    1.391   1_554 S
C12    C17     1.406   .     A
C12    C490    1.419   .     S
C12    C495    1.421   .     S
C13    H39     1.077   .     S
C13    C489    1.419   1_554 S
C14    H31     1.079   .     S
C14    N42     1.453   .     S
C14    C15     1.532   .     S
C14    H32     1.111   .     S
C15    H29     1.105   .     S
C15    C16     1.528   .     S
C15    H30     1.112   .     S
C16    H28     1.111   .     S
C16    H27     1.111   .     S
C16    H26     1.111   .     S
C17    C21     1.411   .     A
C18    C22     1.382   .     A
C18    C489    1.421   1_554 S
C18    C496    1.422   1_554 S
C19    C20     1.379   .     A
C19    C495    1.422   .     S
C20    C21     1.375   .     A
C20    H33     1.081   .     S
C21    H41     1.069   .     S
C22    H37     1.075   .     S
C23    C485    1.385   1_554 S
C23    H77     1.081   .     S
H24    C129    1.081   1_455 S
H25    C321    1.088   1_545 S
H34    C164    1.088   .     S
H35    N43     1.027   .     S
H38    C63     1.080   .     S
N42    Zn53    2.037   .     S
N42    N43     1.284   .     D
N43    Zn52    2.037   .     S
O44    Zn52    1.958   .     S
O44    C54     1.286   .     S
O45    Zn53    1.977   .     S
O46    Zn52    1.997   .     S
O46    C57     1.318   .     S
O47    Zn53    1.978   .     S
O48    Zn52    1.977   .     S
O49    Zn53    1.958   .     S
O49    C112    1.285   1_455 S
O50    Zn52    1.978   .     S
O51    Zn53    1.997   .     S
O51    C113    1.301   1_455 S
C54    O98     1.295   .     A
C54    C56     1.403   .     S
C55    C57     1.478   .     S
C55    C70     1.421   .     A
C55    C63     1.398   .     A
C56    C164    1.336   .     S
C56    H237    1.088   .     S
C57    O100    1.295   .     A
C58    C59     1.403   .     S
C58    C427    1.336   1_545 S
C58    H405    1.088   1_545 S
C59    O101    1.295   .     A
C59    O155    1.285   .     S
C60    C62     1.437   .     S
C60    O103    1.296   .     A
C60    O157    1.301   .     S
C61    H89     1.084   .     S
C61    C72     1.399   .     A
C61    C553    1.385   .     S
C62    C75     1.393   .     A
C62    C76     1.396   .     A
C63    C541    1.391   .     S
C64    C66     1.394   .     A
C64    H93     1.083   .     S
C64    C540    1.391   1_554 S
C65    C70     1.406   .     A
C65    C543    1.419   .     S
C65    C548    1.421   .     S
C66    H92     1.077   .     S
C66    C542    1.419   1_554 S
C67    H84     1.079   .     S
C67    N95     1.453   .     S
C67    C68     1.532   .     S
C67    H85     1.111   .     S
C68    H82     1.105   .     S
C68    C69     1.528   .     S
C68    H83     1.112   .     S
C69    H81     1.111   .     S
C69    H80     1.111   .     S
C69    H79     1.111   .     S
C70    C74     1.411   .     A
C71    C75     1.382   .     A
C71    C542    1.421   1_554 S
C71    C549    1.422   1_554 S
C72    C73     1.379   .     A
C72    C548    1.422   .     S
C73    C74     1.375   .     A
C73    H86     1.081   .     S
C74    H94     1.069   .     S
C75    H90     1.075   .     S
C76    C538    1.385   1_554 S
C76    H130    1.081   .     S
H78    C374    1.088   1_545 S
H87    C217    1.088   .     S
H88    N96     1.027   .     S
H91    C116    1.080   .     S
N95    Zn106   2.037   .     S
N95    N96     1.284   .     D
N96    Zn105   2.037   .     S
O97    Zn105   1.958   .     S
O97    C107    1.286   .     S
O98    Zn106   1.977   .     S
O99    Zn105   1.997   .     S
O99    C110    1.318   .     S
O100   Zn106   1.978   .     S
O101   Zn105   1.977   .     S
O102   Zn106   1.958   .     S
O103   Zn105   1.978   .     S
O104   Zn106   1.997   .     S
C107   O151    1.295   .     A
C107   C109    1.403   .     S
C108   C110    1.478   .     S
C108   C123    1.421   .     A
C108   C116    1.398   .     A
C109   C217    1.336   .     S
C109   H290    1.088   .     S
C110   O153    1.295   .     A
C111   C112    1.403   .     S
C111   C321    1.336   1_645 S
C111   H458    1.088   1_545 S
C112   O154    1.295   .     A
C112   O49     1.285   1_655 S
C113   C115    1.437   .     S
C113   O156    1.296   .     A
C113   O51     1.301   1_655 S
C114   H142    1.084   .     S
C114   C125    1.399   .     A
C114   C606    1.385   .     S
C115   C128    1.393   .     A
C115   C129    1.396   .     A
C116   C594    1.391   .     S
C117   C119    1.394   .     A
C117   H146    1.083   .     S
C117   C593    1.391   1_554 S
C118   C123    1.406   .     A
C118   C596    1.419   .     S
C118   C601    1.421   .     S
C119   H145    1.077   .     S
C119   C595    1.419   1_554 S
C120   H137    1.079   .     S
C120   N148    1.453   .     S
C120   C121    1.532   .     S
C120   H138    1.111   .     S
C121   H135    1.105   .     S
C121   C122    1.528   .     S
C121   H136    1.112   .     S
C122   H134    1.111   .     S
C122   H133    1.111   .     S
C122   H132    1.111   .     S
C123   C127    1.411   .     A
C124   C128    1.382   .     A
C124   C595    1.421   1_554 S
C124   C602    1.422   1_554 S
C125   C126    1.379   .     A
C125   C601    1.422   .     S
C126   C127    1.375   .     A
C126   H139    1.081   .     S
C127   H147    1.069   .     S
C128   H143    1.075   .     S
C129   C591    1.385   1_554 S
C129   H24     1.081   1_655 S
H131   C427    1.088   1_545 S
H140   C270    1.088   .     S
H141   N149    1.027   .     S
H144   C10     1.080   1_655 S
N148   Zn159   2.037   .     S
N148   N149    1.284   .     D
N149   Zn158   2.037   .     S
O150   Zn158   1.958   .     S
O150   C1      1.286   1_655 S
O151   Zn159   1.977   .     S
O152   Zn158   1.997   .     S
O152   C4      1.318   1_655 S
O153   Zn159   1.978   .     S
O154   Zn158   1.977   .     S
O155   Zn159   1.958   .     S
O156   Zn158   1.978   .     S
O157   Zn159   1.997   .     S
C160   O204    1.295   .     A
C160   C162    1.403   .     S
C160   O309    1.286   1_455 S
C161   C163    1.478   .     S
C161   C176    1.421   .     A
C161   C169    1.398   .     A
C162   C429    1.336   1_455 S
C162   H343    1.088   .     S
C163   O206    1.295   .     A
C163   O311    1.318   1_455 S
C164   C165    1.403   .     S
C165   O207    1.295   .     A
C165   O261    1.285   .     S
C166   C168    1.437   .     S
C166   O209    1.296   .     A
C166   O263    1.301   .     S
C167   H195    1.084   .     S
C167   C178    1.399   .     A
C167   C659    1.385   .     S
C168   C181    1.393   .     A
C168   C182    1.396   .     A
C169   C647    1.391   .     S
C169   H303    1.080   1_455 S
C170   C172    1.394   .     A
C170   H199    1.083   .     S
C170   C646    1.391   1_554 S
C171   C176    1.406   .     A
C171   C649    1.419   .     S
C171   C654    1.421   .     S
C172   H198    1.077   .     S
C172   C648    1.419   1_554 S
C173   H190    1.079   .     S
C173   N201    1.453   .     S
C173   C174    1.532   .     S
C173   H191    1.111   .     S
C174   H188    1.105   .     S
C174   C175    1.528   .     S
C174   H189    1.112   .     S
C175   H187    1.111   .     S
C175   H186    1.111   .     S
C175   H185    1.111   .     S
C176   C180    1.411   .     A
C177   C181    1.382   .     A
C177   C648    1.421   1_554 S
C177   C655    1.422   1_554 S
C178   C179    1.379   .     A
C178   C654    1.422   .     S
C179   C180    1.375   .     A
C179   H192    1.081   .     S
C180   H200    1.069   .     S
C181   H196    1.075   .     S
C182   C644    1.385   1_554 S
C182   H236    1.081   .     S
H183   C288    1.081   1_455 S
H193   C323    1.088   .     S
H194   N202    1.027   .     S
H197   C222    1.080   .     S
N201   Zn212   2.037   .     S
N201   N202    1.284   .     D
N202   Zn211   2.037   .     S
O203   Zn211   1.958   .     S
O203   C213    1.286   .     S
O204   Zn212   1.977   .     S
O205   Zn211   1.997   .     S
O205   C216    1.318   .     S
O206   Zn212   1.978   .     S
O207   Zn211   1.977   .     S
O208   Zn212   1.958   .     S
O208   C271    1.285   1_455 S
O209   Zn211   1.978   .     S
O210   Zn212   1.997   .     S
O210   C272    1.301   1_455 S
C213   O257    1.295   .     A
C213   C215    1.403   .     S
C214   C216    1.478   .     S
C214   C229    1.421   .     A
C214   C222    1.398   .     A
C215   C323    1.336   .     S
C215   H396    1.088   .     S
C216   O259    1.295   .     A
C217   C218    1.403   .     S
C218   O260    1.295   .     A
C218   O314    1.285   .     S
C219   C221    1.437   .     S
C219   O262    1.296   .     A
C219   O316    1.301   .     S
C220   H248    1.084   .     S
C220   C231    1.399   .     A
C220   C712    1.385   .     S
C221   C234    1.393   .     A
C221   C235    1.396   .     A
C222   C700    1.391   .     S
C223   C225    1.394   .     A
C223   H252    1.083   .     S
C223   C699    1.391   1_554 S
C224   C229    1.406   .     A
C224   C702    1.419   .     S
C224   C707    1.421   .     S
C225   H251    1.077   .     S
C225   C701    1.419   1_554 S
C226   H243    1.079   .     S
C226   N254    1.453   .     S
C226   C227    1.532   .     S
C226   H244    1.111   .     S
C227   H241    1.105   .     S
C227   C228    1.528   .     S
C227   H242    1.112   .     S
C228   H240    1.111   .     S
C228   H239    1.111   .     S
C228   H238    1.111   .     S
C229   C233    1.411   .     A
C230   C234    1.382   .     A
C230   C701    1.421   1_554 S
C230   C708    1.422   1_554 S
C231   C232    1.379   .     A
C231   C707    1.422   .     S
C232   C233    1.375   .     A
C232   H245    1.081   .     S
C233   H253    1.069   .     S
C234   H249    1.075   .     S
C235   C697    1.385   1_554 S
C235   H289    1.081   .     S
H246   C376    1.088   .     S
H247   N255    1.027   .     S
H250   C275    1.080   .     S
N254   Zn265   2.037   .     S
N254   N255    1.284   .     D
N255   Zn264   2.037   .     S
O256   Zn264   1.958   .     S
O256   C266    1.286   .     S
O257   Zn265   1.977   .     S
O258   Zn264   1.997   .     S
O258   C269    1.318   .     S
O259   Zn265   1.978   .     S
O260   Zn264   1.977   .     S
O261   Zn265   1.958   .     S
O262   Zn264   1.978   .     S
O263   Zn265   1.997   .     S
C266   O310    1.295   .     A
C266   C268    1.403   .     S
C267   C269    1.478   .     S
C267   C282    1.421   .     A
C267   C275    1.398   .     A
C268   C376    1.336   .     S
C268   H449    1.088   .     S
C269   O312    1.295   .     A
C270   C271    1.403   .     S
C270   C3      1.336   1_655 S
C271   O313    1.295   .     A
C271   O208    1.285   1_655 S
C272   C274    1.437   .     S
C272   O315    1.296   .     A
C272   O210    1.301   1_655 S
C273   H301    1.084   .     S
C273   C284    1.399   .     A
C273   C765    1.385   .     S
C274   C287    1.393   .     A
C274   C288    1.396   .     A
C275   C753    1.391   .     S
C276   C278    1.394   .     A
C276   H305    1.083   .     S
C276   C752    1.391   1_554 S
C277   C282    1.406   .     A
C277   C755    1.419   .     S
C277   C760    1.421   .     S
C278   H304    1.077   .     S
C278   C754    1.419   1_554 S
C279   H296    1.079   .     S
C279   N307    1.453   .     S
C279   C280    1.532   .     S
C279   H297    1.111   .     S
C280   H294    1.105   .     S
C280   C281    1.528   .     S
C280   H295    1.112   .     S
C281   H293    1.111   .     S
C281   H292    1.111   .     S
C281   H291    1.111   .     S
C282   C286    1.411   .     A
C283   C287    1.382   .     A
C283   C754    1.421   1_554 S
C283   C761    1.422   1_554 S
C284   C285    1.379   .     A
C284   C760    1.422   .     S
C285   C286    1.375   .     A
C285   H298    1.081   .     S
C286   H306    1.069   .     S
C287   H302    1.075   .     S
C288   C750    1.385   1_554 S
C288   H183    1.081   1_655 S
H299   C429    1.088   .     S
H300   N308    1.027   .     S
H303   C169    1.080   1_655 S
N307   Zn318   2.037   .     S
N307   N308    1.284   .     D
N308   Zn317   2.037   .     S
O309   Zn317   1.958   .     S
O309   C160    1.286   1_655 S
O310   Zn318   1.977   .     S
O311   Zn317   1.997   .     S
O311   C163    1.318   1_655 S
O312   Zn318   1.978   .     S
O313   Zn317   1.977   .     S
O314   Zn318   1.958   .     S
O315   Zn317   1.978   .     S
O316   Zn318   1.997   .     S
C319   O363    1.295   .     A
C319   C321    1.403   .     S
C319   O468    1.286   1_455 S
C320   C322    1.478   .     S
C320   C335    1.421   .     A
C320   C328    1.398   .     A
C321   C111    1.336   1_465 S
C321   H25     1.088   1_565 S
C322   O365    1.295   .     A
C322   O470    1.318   1_455 S
C323   C324    1.403   .     S
C324   O366    1.295   .     A
C324   O420    1.285   .     S
C325   C327    1.437   .     S
C325   O368    1.296   .     A
C325   O422    1.301   .     S
C326   H354    1.084   .     S
C326   C337    1.399   .     A
C326   C818    1.385   .     S
C327   C340    1.393   .     A
C327   C341    1.396   .     A
C328   C806    1.391   .     S
C328   H462    1.080   1_455 S
C329   C331    1.394   .     A
C329   H358    1.083   .     S
C329   C805    1.391   1_554 S
C330   C335    1.406   .     A
C330   C808    1.419   .     S
C330   C813    1.421   .     S
C331   H357    1.077   .     S
C331   C807    1.419   1_554 S
C332   H349    1.079   .     S
C332   N360    1.453   .     S
C332   C333    1.532   .     S
C332   H350    1.111   .     S
C333   H347    1.105   .     S
C333   C334    1.528   .     S
C333   H348    1.112   .     S
C334   H346    1.111   .     S
C334   H345    1.111   .     S
C334   H344    1.111   .     S
C335   C339    1.411   .     A
C336   C340    1.382   .     A
C336   C807    1.421   1_554 S
C336   C814    1.422   1_554 S
C337   C338    1.379   .     A
C337   C813    1.422   .     S
C338   C339    1.375   .     A
C338   H351    1.081   .     S
C339   H359    1.069   .     S
C340   H355    1.075   .     S
C341   C803    1.385   1_554 S
C341   H395    1.081   .     S
H342   C447    1.081   1_455 S
H352   C5      1.088   1_565 S
H353   N361    1.027   .     S
H356   C381    1.080   .     S
N360   Zn371   2.037   .     S
N360   N361    1.284   .     D
N361   Zn370   2.037   .     S
O362   Zn370   1.958   .     S
O362   C372    1.286   .     S
O363   Zn371   1.977   .     S
O364   Zn370   1.997   .     S
O364   C375    1.318   .     S
O365   Zn371   1.978   .     S
O366   Zn370   1.977   .     S
O367   Zn371   1.958   .     S
O367   C430    1.285   1_455 S
O368   Zn370   1.978   .     S
O369   Zn371   1.997   .     S
O369   C431    1.301   1_455 S
C372   O416    1.295   .     A
C372   C374    1.403   .     S
C373   C375    1.478   .     S
C373   C388    1.421   .     A
C373   C381    1.398   .     A
C374   C5      1.336   1_565 S
C374   H78     1.088   1_565 S
C375   O418    1.295   .     A
C376   C377    1.403   .     S
C377   O419    1.295   .     A
C377   O473    1.285   .     S
C378   C380    1.437   .     S
C378   O421    1.296   .     A
C378   O475    1.301   .     S
C379   H407    1.084   .     S
C379   C390    1.399   .     A
C379   C871    1.385   .     S
C380   C393    1.393   .     A
C380   C394    1.396   .     A
C381   C859    1.391   .     S
C382   C384    1.394   .     A
C382   H411    1.083   .     S
C382   C858    1.391   1_554 S
C383   C388    1.406   .     A
C383   C861    1.419   .     S
C383   C866    1.421   .     S
C384   H410    1.077   .     S
C384   C860    1.419   1_554 S
C385   H402    1.079   .     S
C385   N413    1.453   .     S
C385   C386    1.532   .     S
C385   H403    1.111   .     S
C386   H400    1.105   .     S
C386   C387    1.528   .     S
C386   H401    1.112   .     S
C387   H399    1.111   .     S
C387   H398    1.111   .     S
C387   H397    1.111   .     S
C388   C392    1.411   .     A
C389   C393    1.382   .     A
C389   C860    1.421   1_554 S
C389   C867    1.422   1_554 S
C390   C391    1.379   .     A
C390   C866    1.422   .     S
C391   C392    1.375   .     A
C391   H404    1.081   .     S
C392   H412    1.069   .     S
C393   H408    1.075   .     S
C394   C856    1.385   1_554 S
C394   H448    1.081   .     S
H405   C58     1.088   1_565 S
H406   N414    1.027   .     S
H409   C434    1.080   .     S
N413   Zn424   2.037   .     S
N413   N414    1.284   .     D
N414   Zn423   2.037   .     S
O415   Zn423   1.958   .     S
O415   C425    1.286   .     S
O416   Zn424   1.977   .     S
O417   Zn423   1.997   .     S
O417   C428    1.318   .     S
O418   Zn424   1.978   .     S
O419   Zn423   1.977   .     S
O420   Zn424   1.958   .     S
O421   Zn423   1.978   .     S
O422   Zn424   1.997   .     S
C425   O469    1.295   .     A
C425   C427    1.403   .     S
C426   C428    1.478   .     S
C426   C441    1.421   .     A
C426   C434    1.398   .     A
C427   C58     1.336   1_565 S
C427   H131    1.088   1_565 S
C428   O471    1.295   .     A
C429   C430    1.403   .     S
C429   C162    1.336   1_655 S
C430   O472    1.295   .     A
C430   O367    1.285   1_655 S
C431   C433    1.437   .     S
C431   O474    1.296   .     A
C431   O369    1.301   1_655 S
C432   H460    1.084   .     S
C432   C443    1.399   .     A
C432   C924    1.385   .     S
C433   C446    1.393   .     A
C433   C447    1.396   .     A
C434   C912    1.391   .     S
C435   C437    1.394   .     A
C435   H464    1.083   .     S
C435   C911    1.391   1_554 S
C436   C441    1.406   .     A
C436   C914    1.419   .     S
C436   C919    1.421   .     S
C437   H463    1.077   .     S
C437   C913    1.419   1_554 S
C438   H455    1.079   .     S
C438   N466    1.453   .     S
C438   C439    1.532   .     S
C438   H456    1.111   .     S
C439   H453    1.105   .     S
C439   C440    1.528   .     S
C439   H454    1.112   .     S
C440   H452    1.111   .     S
C440   H451    1.111   .     S
C440   H450    1.111   .     S
C441   C445    1.411   .     A
C442   C446    1.382   .     A
C442   C913    1.421   1_554 S
C442   C920    1.422   1_554 S
C443   C444    1.379   .     A
C443   C919    1.422   .     S
C444   C445    1.375   .     A
C444   H457    1.081   .     S
C445   H465    1.069   .     S
C446   H461    1.075   .     S
C447   C909    1.385   1_554 S
C447   H342    1.081   1_655 S
H458   C111    1.088   1_565 S
H459   N467    1.027   .     S
H462   C328    1.080   1_655 S
N466   Zn477   2.037   .     S
N466   N467    1.284   .     D
N467   Zn476   2.037   .     S
O468   Zn476   1.958   .     S
O468   C319    1.286   1_655 S
O469   Zn477   1.977   .     S
O470   Zn476   1.997   .     S
O470   C322    1.318   1_655 S
O471   Zn477   1.978   .     S
O472   Zn476   1.977   .     S
O473   Zn477   1.958   .     S
O474   Zn476   1.978   .     S
O475   Zn477   1.997   .     S
C478   O522    1.295   .     A
C478   C480    1.403   .     S
C478   O627    1.286   1_455 S
C479   C481    1.478   .     S
C479   C494    1.421   .     A
C479   C487    1.398   .     A
C480   C747    1.336   1_455 S
C480   H661    1.088   .     S
C481   O524    1.295   .     A
C481   O629    1.318   1_455 S
C482   C483    1.403   .     S
C482   C851    1.336   1_545 S
C482   H829    1.088   1_545 S
C483   O525    1.295   .     A
C483   O579    1.285   .     S
C484   C486    1.437   .     S
C484   O527    1.296   .     A
C484   O581    1.301   .     S
C485   H513    1.084   .     S
C485   C496    1.399   .     A
C485   C23     1.385   1_556 S
C486   C499    1.393   .     A
C486   C500    1.396   .     A
C487   C11     1.391   1_556 S
C487   H621    1.080   1_455 S
C488   C490    1.394   .     A
C488   H517    1.083   .     S
C489   C494    1.406   .     A
C489   C13     1.419   1_556 S
C489   C18     1.421   1_556 S
C490   H516    1.077   .     S
C491   H508    1.079   .     S
C491   N519    1.453   .     S
C491   C492    1.532   .     S
C491   H509    1.111   .     S
C492   H506    1.105   .     S
C492   C493    1.528   .     S
C492   H507    1.112   .     S
C493   H505    1.111   .     S
C493   H504    1.111   .     S
C493   H503    1.111   .     S
C494   C498    1.411   .     A
C495   C499    1.382   .     A
C496   C497    1.379   .     A
C496   C18     1.422   1_556 S
C497   C498    1.375   .     A
C497   H510    1.081   .     S
C498   H518    1.069   .     S
C499   H514    1.075   .     S
C500   H554    1.081   .     S
H501   C606    1.081   1_455 S
H502   C798    1.088   1_545 S
H511   C641    1.088   .     S
H512   N520    1.027   .     S
H515   C540    1.080   .     S
N519   Zn530   2.037   .     S
N519   N520    1.284   .     D
N520   Zn529   2.037   .     S
O521   Zn529   1.958   .     S
O521   C531    1.286   .     S
O522   Zn530   1.977   .     S
O523   Zn529   1.997   .     S
O523   C534    1.318   .     S
O524   Zn530   1.978   .     S
O525   Zn529   1.977   .     S
O526   Zn530   1.958   .     S
O526   C589    1.285   1_455 S
O527   Zn529   1.978   .     S
O528   Zn530   1.997   .     S
O528   C590    1.301   1_455 S
C531   O575    1.295   .     A
C531   C533    1.403   .     S
C532   C534    1.478   .     S
C532   C547    1.421   .     A
C532   C540    1.398   .     A
C533   C641    1.336   .     S
C533   H714    1.088   .     S
C534   O577    1.295   .     A
C535   C536    1.403   .     S
C535   C904    1.336   1_545 S
C535   H882    1.088   1_545 S
C536   O578    1.295   .     A
C536   O632    1.285   .     S
C537   C539    1.437   .     S
C537   O580    1.296   .     A
C537   O634    1.301   .     S
C538   H566    1.084   .     S
C538   C549    1.399   .     A
C538   C76     1.385   1_556 S
C539   C552    1.393   .     A
C539   C553    1.396   .     A
C540   C64     1.391   1_556 S
C541   C543    1.394   .     A
C541   H570    1.083   .     S
C542   C547    1.406   .     A
C542   C66     1.419   1_556 S
C542   C71     1.421   1_556 S
C543   H569    1.077   .     S
C544   H561    1.079   .     S
C544   N572    1.453   .     S
C544   C545    1.532   .     S
C544   H562    1.111   .     S
C545   H559    1.105   .     S
C545   C546    1.528   .     S
C545   H560    1.112   .     S
C546   H558    1.111   .     S
C546   H557    1.111   .     S
C546   H556    1.111   .     S
C547   C551    1.411   .     A
C548   C552    1.382   .     A
C549   C550    1.379   .     A
C549   C71     1.422   1_556 S
C550   C551    1.375   .     A
C550   H563    1.081   .     S
C551   H571    1.069   .     S
C552   H567    1.075   .     S
C553   H607    1.081   .     S
H555   C851    1.088   1_545 S
H564   C694    1.088   .     S
H565   N573    1.027   .     S
H568   C593    1.080   .     S
N572   Zn583   2.037   .     S
N572   N573    1.284   .     D
N573   Zn582   2.037   .     S
O574   Zn582   1.958   .     S
O574   C584    1.286   .     S
O575   Zn583   1.977   .     S
O576   Zn582   1.997   .     S
O576   C587    1.318   .     S
O577   Zn583   1.978   .     S
O578   Zn582   1.977   .     S
O579   Zn583   1.958   .     S
O580   Zn582   1.978   .     S
O581   Zn583   1.997   .     S
C584   O628    1.295   .     A
C584   C586    1.403   .     S
C585   C587    1.478   .     S
C585   C600    1.421   .     A
C585   C593    1.398   .     A
C586   C694    1.336   .     S
C586   H767    1.088   .     S
C587   O630    1.295   .     A
C588   C589    1.403   .     S
C588   C798    1.336   1_645 S
C588   H935    1.088   1_545 S
C589   O631    1.295   .     A
C589   O526    1.285   1_655 S
C590   C592    1.437   .     S
C590   O633    1.296   .     A
C590   O528    1.301   1_655 S
C591   H619    1.084   .     S
C591   C602    1.399   .     A
C591   C129    1.385   1_556 S
C592   C605    1.393   .     A
C592   C606    1.396   .     A
C593   C117    1.391   1_556 S
C594   C596    1.394   .     A
C594   H623    1.083   .     S
C595   C600    1.406   .     A
C595   C119    1.419   1_556 S
C595   C124    1.421   1_556 S
C596   H622    1.077   .     S
C597   H614    1.079   .     S
C597   N625    1.453   .     S
C597   C598    1.532   .     S
C597   H615    1.111   .     S
C598   H612    1.105   .     S
C598   C599    1.528   .     S
C598   H613    1.112   .     S
C599   H611    1.111   .     S
C599   H610    1.111   .     S
C599   H609    1.111   .     S
C600   C604    1.411   .     A
C601   C605    1.382   .     A
C602   C603    1.379   .     A
C602   C124    1.422   1_556 S
C603   C604    1.375   .     A
C603   H616    1.081   .     S
C604   H624    1.069   .     S
C605   H620    1.075   .     S
C606   H501    1.081   1_655 S
H608   C904    1.088   1_545 S
H617   C747    1.088   .     S
H618   N626    1.027   .     S
H621   C487    1.080   1_655 S
N625   Zn636   2.037   .     S
N625   N626    1.284   .     D
N626   Zn635   2.037   .     S
O627   Zn635   1.958   .     S
O627   C478    1.286   1_655 S
O628   Zn636   1.977   .     S
O629   Zn635   1.997   .     S
O629   C481    1.318   1_655 S
O630   Zn636   1.978   .     S
O631   Zn635   1.977   .     S
O632   Zn636   1.958   .     S
O633   Zn635   1.978   .     S
O634   Zn636   1.997   .     S
C637   O681    1.295   .     A
C637   C639    1.403   .     S
C637   O786    1.286   1_455 S
C638   C640    1.478   .     S
C638   C653    1.421   .     A
C638   C646    1.398   .     A
C639   C906    1.336   1_455 S
C639   H820    1.088   .     S
C640   O683    1.295   .     A
C640   O788    1.318   1_455 S
C641   C642    1.403   .     S
C642   O684    1.295   .     A
C642   O738    1.285   .     S
C643   C645    1.437   .     S
C643   O686    1.296   .     A
C643   O740    1.301   .     S
C644   H672    1.084   .     S
C644   C655    1.399   .     A
C644   C182    1.385   1_556 S
C645   C658    1.393   .     A
C645   C659    1.396   .     A
C646   C170    1.391   1_556 S
C646   H780    1.080   1_455 S
C647   C649    1.394   .     A
C647   H676    1.083   .     S
C648   C653    1.406   .     A
C648   C172    1.419   1_556 S
C648   C177    1.421   1_556 S
C649   H675    1.077   .     S
C650   H667    1.079   .     S
C650   N678    1.453   .     S
C650   C651    1.532   .     S
C650   H668    1.111   .     S
C651   H665    1.105   .     S
C651   C652    1.528   .     S
C651   H666    1.112   .     S
C652   H664    1.111   .     S
C652   H663    1.111   .     S
C652   H662    1.111   .     S
C653   C657    1.411   .     A
C654   C658    1.382   .     A
C655   C656    1.379   .     A
C655   C177    1.422   1_556 S
C656   C657    1.375   .     A
C656   H669    1.081   .     S
C657   H677    1.069   .     S
C658   H673    1.075   .     S
C659   H713    1.081   .     S
H660   C765    1.081   1_455 S
H670   C800    1.088   .     S
H671   N679    1.027   .     S
H674   C699    1.080   .     S
N678   Zn689   2.037   .     S
N678   N679    1.284   .     D
N679   Zn688   2.037   .     S
O680   Zn688   1.958   .     S
O680   C690    1.286   .     S
O681   Zn689   1.977   .     S
O682   Zn688   1.997   .     S
O682   C693    1.318   .     S
O683   Zn689   1.978   .     S
O684   Zn688   1.977   .     S
O685   Zn689   1.958   .     S
O685   C748    1.285   1_455 S
O686   Zn688   1.978   .     S
O687   Zn689   1.997   .     S
O687   C749    1.301   1_455 S
C690   O734    1.295   .     A
C690   C692    1.403   .     S
C691   C693    1.478   .     S
C691   C706    1.421   .     A
C691   C699    1.398   .     A
C692   C800    1.336   .     S
C692   H873    1.088   .     S
C693   O736    1.295   .     A
C694   C695    1.403   .     S
C695   O737    1.295   .     A
C695   O791    1.285   .     S
C696   C698    1.437   .     S
C696   O739    1.296   .     A
C696   O793    1.301   .     S
C697   H725    1.084   .     S
C697   C708    1.399   .     A
C697   C235    1.385   1_556 S
C698   C711    1.393   .     A
C698   C712    1.396   .     A
C699   C223    1.391   1_556 S
C700   C702    1.394   .     A
C700   H729    1.083   .     S
C701   C706    1.406   .     A
C701   C225    1.419   1_556 S
C701   C230    1.421   1_556 S
C702   H728    1.077   .     S
C703   H720    1.079   .     S
C703   N731    1.453   .     S
C703   C704    1.532   .     S
C703   H721    1.111   .     S
C704   H718    1.105   .     S
C704   C705    1.528   .     S
C704   H719    1.112   .     S
C705   H717    1.111   .     S
C705   H716    1.111   .     S
C705   H715    1.111   .     S
C706   C710    1.411   .     A
C707   C711    1.382   .     A
C708   C709    1.379   .     A
C708   C230    1.422   1_556 S
C709   C710    1.375   .     A
C709   H722    1.081   .     S
C710   H730    1.069   .     S
C711   H726    1.075   .     S
C712   H766    1.081   .     S
H723   C853    1.088   .     S
H724   N732    1.027   .     S
H727   C752    1.080   .     S
N731   Zn742   2.037   .     S
N731   N732    1.284   .     D
N732   Zn741   2.037   .     S
O733   Zn741   1.958   .     S
O733   C743    1.286   .     S
O734   Zn742   1.977   .     S
O735   Zn741   1.997   .     S
O735   C746    1.318   .     S
O736   Zn742   1.978   .     S
O737   Zn741   1.977   .     S
O738   Zn742   1.958   .     S
O739   Zn741   1.978   .     S
O740   Zn742   1.997   .     S
C743   O787    1.295   .     A
C743   C745    1.403   .     S
C744   C746    1.478   .     S
C744   C759    1.421   .     A
C744   C752    1.398   .     A
C745   C853    1.336   .     S
C745   H926    1.088   .     S
C746   O789    1.295   .     A
C747   C748    1.403   .     S
C747   C480    1.336   1_655 S
C748   O790    1.295   .     A
C748   O685    1.285   1_655 S
C749   C751    1.437   .     S
C749   O792    1.296   .     A
C749   O687    1.301   1_655 S
C750   H778    1.084   .     S
C750   C761    1.399   .     A
C750   C288    1.385   1_556 S
C751   C764    1.393   .     A
C751   C765    1.396   .     A
C752   C276    1.391   1_556 S
C753   C755    1.394   .     A
C753   H782    1.083   .     S
C754   C759    1.406   .     A
C754   C278    1.419   1_556 S
C754   C283    1.421   1_556 S
C755   H781    1.077   .     S
C756   H773    1.079   .     S
C756   N784    1.453   .     S
C756   C757    1.532   .     S
C756   H774    1.111   .     S
C757   H771    1.105   .     S
C757   C758    1.528   .     S
C757   H772    1.112   .     S
C758   H770    1.111   .     S
C758   H769    1.111   .     S
C758   H768    1.111   .     S
C759   C763    1.411   .     A
C760   C764    1.382   .     A
C761   C762    1.379   .     A
C761   C283    1.422   1_556 S
C762   C763    1.375   .     A
C762   H775    1.081   .     S
C763   H783    1.069   .     S
C764   H779    1.075   .     S
C765   H660    1.081   1_655 S
H776   C906    1.088   .     S
H777   N785    1.027   .     S
H780   C646    1.080   1_655 S
N784   Zn795   2.037   .     S
N784   N785    1.284   .     D
N785   Zn794   2.037   .     S
O786   Zn794   1.958   .     S
O786   C637    1.286   1_655 S
O787   Zn795   1.977   .     S
O788   Zn794   1.997   .     S
O788   C640    1.318   1_655 S
O789   Zn795   1.978   .     S
O790   Zn794   1.977   .     S
O791   Zn795   1.958   .     S
O792   Zn794   1.978   .     S
O793   Zn795   1.997   .     S
C796   O840    1.295   .     A
C796   C798    1.403   .     S
C796   O945    1.286   1_455 S
C797   C799    1.478   .     S
C797   C812    1.421   .     A
C797   C805    1.398   .     A
C798   C588    1.336   1_465 S
C798   H502    1.088   1_565 S
C799   O842    1.295   .     A
C799   O947    1.318   1_455 S
C800   C801    1.403   .     S
C801   O843    1.295   .     A
C801   O897    1.285   .     S
C802   C804    1.437   .     S
C802   O845    1.296   .     A
C802   O899    1.301   .     S
C803   H831    1.084   .     S
C803   C814    1.399   .     A
C803   C341    1.385   1_556 S
C804   C817    1.393   .     A
C804   C818    1.396   .     A
C805   C329    1.391   1_556 S
C805   H939    1.080   1_455 S
C806   C808    1.394   .     A
C806   H835    1.083   .     S
C807   C812    1.406   .     A
C807   C331    1.419   1_556 S
C807   C336    1.421   1_556 S
C808   H834    1.077   .     S
C809   H826    1.079   .     S
C809   N837    1.453   .     S
C809   C810    1.532   .     S
C809   H827    1.111   .     S
C810   H824    1.105   .     S
C810   C811    1.528   .     S
C810   H825    1.112   .     S
C811   H823    1.111   .     S
C811   H822    1.111   .     S
C811   H821    1.111   .     S
C812   C816    1.411   .     A
C813   C817    1.382   .     A
C814   C815    1.379   .     A
C814   C336    1.422   1_556 S
C815   C816    1.375   .     A
C815   H828    1.081   .     S
C816   H836    1.069   .     S
C817   H832    1.075   .     S
C818   H872    1.081   .     S
H819   C924    1.081   1_455 S
H829   C482    1.088   1_565 S
H830   N838    1.027   .     S
H833   C858    1.080   .     S
N837   Zn848   2.037   .     S
N837   N838    1.284   .     D
N838   Zn847   2.037   .     S
O839   Zn847   1.958   .     S
O839   C849    1.286   .     S
O840   Zn848   1.977   .     S
O841   Zn847   1.997   .     S
O841   C852    1.318   .     S
O842   Zn848   1.978   .     S
O843   Zn847   1.977   .     S
O844   Zn848   1.958   .     S
O844   C907    1.285   1_455 S
O845   Zn847   1.978   .     S
O846   Zn848   1.997   .     S
O846   C908    1.301   1_455 S
C849   O893    1.295   .     A
C849   C851    1.403   .     S
C850   C852    1.478   .     S
C850   C865    1.421   .     A
C850   C858    1.398   .     A
C851   C482    1.336   1_565 S
C851   H555    1.088   1_565 S
C852   O895    1.295   .     A
C853   C854    1.403   .     S
C854   O896    1.295   .     A
C854   O950    1.285   .     S
C855   C857    1.437   .     S
C855   O898    1.296   .     A
C855   O952    1.301   .     S
C856   H884    1.084   .     S
C856   C867    1.399   .     A
C856   C394    1.385   1_556 S
C857   C870    1.393   .     A
C857   C871    1.396   .     A
C858   C382    1.391   1_556 S
C859   C861    1.394   .     A
C859   H888    1.083   .     S
C860   C865    1.406   .     A
C860   C384    1.419   1_556 S
C860   C389    1.421   1_556 S
C861   H887    1.077   .     S
C862   H879    1.079   .     S
C862   N890    1.453   .     S
C862   C863    1.532   .     S
C862   H880    1.111   .     S
C863   H877    1.105   .     S
C863   C864    1.528   .     S
C863   H878    1.112   .     S
C864   H876    1.111   .     S
C864   H875    1.111   .     S
C864   H874    1.111   .     S
C865   C869    1.411   .     A
C866   C870    1.382   .     A
C867   C868    1.379   .     A
C867   C389    1.422   1_556 S
C868   C869    1.375   .     A
C868   H881    1.081   .     S
C869   H889    1.069   .     S
C870   H885    1.075   .     S
C871   H925    1.081   .     S
H882   C535    1.088   1_565 S
H883   N891    1.027   .     S
H886   C911    1.080   .     S
N890   Zn901   2.037   .     S
N890   N891    1.284   .     D
N891   Zn900   2.037   .     S
O892   Zn900   1.958   .     S
O892   C902    1.286   .     S
O893   Zn901   1.977   .     S
O894   Zn900   1.997   .     S
O894   C905    1.318   .     S
O895   Zn901   1.978   .     S
O896   Zn900   1.977   .     S
O897   Zn901   1.958   .     S
O898   Zn900   1.978   .     S
O899   Zn901   1.997   .     S
C902   O946    1.295   .     A
C902   C904    1.403   .     S
C903   C905    1.478   .     S
C903   C918    1.421   .     A
C903   C911    1.398   .     A
C904   C535    1.336   1_565 S
C904   H608    1.088   1_565 S
C905   O948    1.295   .     A
C906   C907    1.403   .     S
C906   C639    1.336   1_655 S
C907   O949    1.295   .     A
C907   O844    1.285   1_655 S
C908   C910    1.437   .     S
C908   O951    1.296   .     A
C908   O846    1.301   1_655 S
C909   H937    1.084   .     S
C909   C920    1.399   .     A
C909   C447    1.385   1_556 S
C910   C923    1.393   .     A
C910   C924    1.396   .     A
C911   C435    1.391   1_556 S
C912   C914    1.394   .     A
C912   H941    1.083   .     S
C913   C918    1.406   .     A
C913   C437    1.419   1_556 S
C913   C442    1.421   1_556 S
C914   H940    1.077   .     S
C915   H932    1.079   .     S
C915   N943    1.453   .     S
C915   C916    1.532   .     S
C915   H933    1.111   .     S
C916   H930    1.105   .     S
C916   C917    1.528   .     S
C916   H931    1.112   .     S
C917   H929    1.111   .     S
C917   H928    1.111   .     S
C917   H927    1.111   .     S
C918   C922    1.411   .     A
C919   C923    1.382   .     A
C920   C921    1.379   .     A
C920   C442    1.422   1_556 S
C921   C922    1.375   .     A
C921   H934    1.081   .     S
C922   H942    1.069   .     S
C923   H938    1.075   .     S
C924   H819    1.081   1_655 S
H935   C588    1.088   1_565 S
H936   N944    1.027   .     S
H939   C805    1.080   1_655 S
N943   Zn954   2.037   .     S
N943   N944    1.284   .     D
N944   Zn953   2.037   .     S
O945   Zn953   1.958   .     S
O945   C796    1.286   1_655 S
O946   Zn954   1.977   .     S
O947   Zn953   1.997   .     S
O947   C799    1.318   1_655 S
O948   Zn954   1.978   .     S
O949   Zn953   1.977   .     S
O950   Zn954   1.958   .     S
O951   Zn953   1.978   .     S
O952   Zn954   1.997   .     S
