data_str_m3_o1_o17_pcu_sym.115
_audit_creation_date              2020-01-03
_audit_creation_method            'Materials Studio'
_symmetry_space_group_name_H-M    'P1'
_symmetry_Int_Tables_number       1
_symmetry_cell_setting            triclinic
loop_
_symmetry_equiv_pos_as_xyz
  x,y,z
_cell_length_a                    31.7860
_cell_length_b                    29.9806
_cell_length_c                    29.8463
_cell_angle_alpha                 90.2412
_cell_angle_beta                  91.3074
_cell_angle_gamma                 89.8601
loop_
_atom_site_label
_atom_site_type_symbol
_atom_site_fract_x
_atom_site_fract_y
_atom_site_fract_z
_atom_site_U_iso_or_equiv
_atom_site_adp_type
_atom_site_occupancy
C1     C     0.08700   0.16672   0.25021   0.00000  Uiso   1.00
C2     C     0.24633   0.16661   0.24979   0.00000  Uiso   1.00
C3     C     0.11707   0.10364   0.02139   0.00000  Uiso   1.00
C4     C     0.21626   0.22970   0.47861   0.00000  Uiso   1.00
C5     C     0.02123   0.15451   0.21075   0.00000  Uiso   1.00
C6     C     0.31211   0.17883   0.28925   0.00000  Uiso   1.00
C7     C     0.31104   0.15433   0.21041   0.00000  Uiso   1.00
C8     C     0.02229   0.17900   0.28959   0.00000  Uiso   1.00
C9     C     0.29052   0.16651   0.24978   0.00000  Uiso   1.00
C10    C     0.04282   0.16683   0.25022   0.00000  Uiso   1.00
C11    C     0.18847   0.02376   0.28230   0.00000  Uiso   1.00
C12    C     0.14486   0.30957   0.21771   0.00000  Uiso   1.00
C13    C     0.14493   0.02355   0.21769   0.00000  Uiso   1.00
C14    C     0.18841   0.30978   0.28231   0.00000  Uiso   1.00
C15    C     0.16642   0.16663   0.16360   0.00000  Uiso   1.00
C16    C     0.16691   0.16670   0.33640   0.00000  Uiso   1.00
C17    C     0.19158   0.19773   0.40766   0.00000  Uiso   1.00
C18    C     0.14175   0.13561   0.09234   0.00000  Uiso   1.00
C19    C     0.16716   0.16660   0.38421   0.00000  Uiso   1.00
C20    C     0.16617   0.16674   0.11579   0.00000  Uiso   1.00
C21    C     0.14320   0.13505   0.40617   0.00000  Uiso   1.00
C22    C     0.19013   0.19828   0.09383   0.00000  Uiso   1.00
C23    C     0.14274   0.13496   0.45247   0.00000  Uiso   1.00
C24    C     0.19060   0.19838   0.04753   0.00000  Uiso   1.00
C25    C     0.16699   0.16666   0.47670   0.00000  Uiso   1.00
C26    C     0.16634   0.16667   0.02330   0.00000  Uiso   1.00
C27    C     0.19189   0.19827   0.45421   0.00000  Uiso   1.00
C28    C     0.14144   0.13506   0.04579   0.00000  Uiso   1.00
C29    C     0.11814   0.10382   0.47464   0.00000  Uiso   1.00
C30    C     0.21519   0.22952   0.02536   0.00000  Uiso   1.00
H31    H     0.21076   0.22084   0.38935   0.00000  Uiso   1.00
H32    H     0.12258   0.11250   0.11065   0.00000  Uiso   1.00
H33    H     0.12444   0.11112   0.38707   0.00000  Uiso   1.00
H34    H     0.20889   0.22222   0.11293   0.00000  Uiso   1.00
H35    H     0.09958   0.07980   0.45550   0.00000  Uiso   1.00
H36    H     0.23375   0.25353   0.04450   0.00000  Uiso   1.00
N37    N     0.16667   0.28573   0.25000   0.00000  Uiso   1.00
N38    N     0.16667   0.04760   0.25000   0.00000  Uiso   1.00
O39    O     0.10559   0.20487   0.25000   0.00000  Uiso   1.00
O40    O     0.22774   0.12846   0.25001   0.00000  Uiso   1.00
O41    O     0.22774   0.20487   0.25001   0.00000  Uiso   1.00
O42    O     0.10559   0.12846   0.25000   0.00000  Uiso   1.00
O43    O     0.16666   0.20489   0.18393   0.00000  Uiso   1.00
O44    O     0.16667   0.12844   0.31608   0.00000  Uiso   1.00
O45    O     0.16667   0.20489   0.31608   0.00000  Uiso   1.00
O46    O     0.16666   0.12844   0.18393   0.00000  Uiso   1.00
Zn47   Zn    0.16667   0.21771   0.25000   0.00000  Uiso   1.00
Zn48   Zn    0.16667   0.11563   0.25000   0.00000  Uiso   1.00
N49    N     0.09158   0.07165   0.04410   0.00000  Uiso   1.00
H50    H     0.07879   0.04849   0.02135   0.00000  Uiso   1.00
H51    H     0.06619   0.08896   0.05759   0.00000  Uiso   1.00
N52    N     0.24175   0.26168   0.45590   0.00000  Uiso   1.00
H53    H     0.25453   0.28485   0.47865   0.00000  Uiso   1.00
H54    H     0.26714   0.24437   0.44242   0.00000  Uiso   1.00
N55    N     0.04385   0.14291   0.17122   0.00000  Uiso   1.00
H56    H     0.03475   0.16479   0.14558   0.00000  Uiso   1.00
H57    H     0.03524   0.11061   0.16145   0.00000  Uiso   1.00
N58    N     0.28948   0.19042   0.32878   0.00000  Uiso   1.00
H59    H     0.29859   0.16854   0.35442   0.00000  Uiso   1.00
H60    H     0.29809   0.22272   0.33855   0.00000  Uiso   1.00
N61    N     0.28824   0.14268   0.16994   0.00000  Uiso   1.00
H62    H     0.26970   0.11473   0.17611   0.00000  Uiso   1.00
H63    H     0.26843   0.16925   0.16106   0.00000  Uiso   1.00
N64    N     0.04509   0.19065   0.33006   0.00000  Uiso   1.00
H65    H     0.06363   0.21860   0.32389   0.00000  Uiso   1.00
H66    H     0.06490   0.16408   0.33894   0.00000  Uiso   1.00
N67    N     0.21090   0.04572   0.31809   0.00000  Uiso   1.00
H68    H     0.22898   0.07153   0.30559   0.00000  Uiso   1.00
H69    H     0.18927   0.05764   0.34103   0.00000  Uiso   1.00
N70    N     0.12243   0.28762   0.18191   0.00000  Uiso   1.00
H71    H     0.10436   0.26180   0.19441   0.00000  Uiso   1.00
H72    H     0.14407   0.27569   0.15897   0.00000  Uiso   1.00
N73    N     0.12326   0.04527   0.18145   0.00000  Uiso   1.00
H74    H     0.10559   0.07180   0.19349   0.00000  Uiso   1.00
H75    H     0.14569   0.05626   0.15911   0.00000  Uiso   1.00
N76    N     0.21008   0.28806   0.31855   0.00000  Uiso   1.00
H77    H     0.22775   0.26154   0.30651   0.00000  Uiso   1.00
H78    H     0.18764   0.27707   0.34089   0.00000  Uiso   1.00
C79    C     0.42033   0.16672   0.25021   0.00000  Uiso   1.00
C80    C     0.57967   0.16661   0.24979   0.00000  Uiso   1.00
C81    C     0.45041   0.10364   0.02139   0.00000  Uiso   1.00
C82    C     0.54959   0.22970   0.47861   0.00000  Uiso   1.00
C83    C     0.35456   0.15451   0.21075   0.00000  Uiso   1.00
C84    C     0.64544   0.17883   0.28925   0.00000  Uiso   1.00
C85    C     0.64437   0.15433   0.21041   0.00000  Uiso   1.00
C86    C     0.35562   0.17900   0.28959   0.00000  Uiso   1.00
C87    C     0.62385   0.16651   0.24978   0.00000  Uiso   1.00
C88    C     0.37615   0.16683   0.25022   0.00000  Uiso   1.00
C89    C     0.52180   0.02376   0.28230   0.00000  Uiso   1.00
C90    C     0.47820   0.30957   0.21771   0.00000  Uiso   1.00
C91    C     0.47826   0.02355   0.21769   0.00000  Uiso   1.00
C92    C     0.52174   0.30978   0.28231   0.00000  Uiso   1.00
C93    C     0.49975   0.16663   0.16360   0.00000  Uiso   1.00
C94    C     0.50025   0.16670   0.33640   0.00000  Uiso   1.00
C95    C     0.52492   0.19773   0.40766   0.00000  Uiso   1.00
C96    C     0.47508   0.13561   0.09234   0.00000  Uiso   1.00
C97    C     0.50050   0.16660   0.38421   0.00000  Uiso   1.00
C98    C     0.49950   0.16674   0.11579   0.00000  Uiso   1.00
C99    C     0.47653   0.13505   0.40617   0.00000  Uiso   1.00
C100   C     0.52346   0.19828   0.09383   0.00000  Uiso   1.00
C101   C     0.47607   0.13496   0.45247   0.00000  Uiso   1.00
C102   C     0.52393   0.19838   0.04753   0.00000  Uiso   1.00
C103   C     0.50032   0.16666   0.47670   0.00000  Uiso   1.00
C104   C     0.49967   0.16667   0.02330   0.00000  Uiso   1.00
C105   C     0.52522   0.19827   0.45421   0.00000  Uiso   1.00
C106   C     0.47478   0.13506   0.04579   0.00000  Uiso   1.00
C107   C     0.45148   0.10382   0.47464   0.00000  Uiso   1.00
C108   C     0.54852   0.22952   0.02536   0.00000  Uiso   1.00
H109   H     0.54409   0.22084   0.38935   0.00000  Uiso   1.00
H110   H     0.45591   0.11250   0.11065   0.00000  Uiso   1.00
H111   H     0.45777   0.11112   0.38707   0.00000  Uiso   1.00
H112   H     0.54223   0.22222   0.11293   0.00000  Uiso   1.00
H113   H     0.43292   0.07980   0.45550   0.00000  Uiso   1.00
H114   H     0.56708   0.25353   0.04450   0.00000  Uiso   1.00
N115   N     0.50000   0.28573   0.25000   0.00000  Uiso   1.00
N116   N     0.50000   0.04760   0.25000   0.00000  Uiso   1.00
O117   O     0.43892   0.20487   0.25000   0.00000  Uiso   1.00
O118   O     0.56108   0.12846   0.25001   0.00000  Uiso   1.00
O119   O     0.56108   0.20487   0.25001   0.00000  Uiso   1.00
O120   O     0.43892   0.12846   0.25000   0.00000  Uiso   1.00
O121   O     0.49999   0.20489   0.18393   0.00000  Uiso   1.00
O122   O     0.50001   0.12844   0.31608   0.00000  Uiso   1.00
O123   O     0.50001   0.20489   0.31608   0.00000  Uiso   1.00
O124   O     0.49999   0.12844   0.18393   0.00000  Uiso   1.00
Zn125  Zn    0.50000   0.21771   0.25000   0.00000  Uiso   1.00
Zn126  Zn    0.50000   0.11563   0.25000   0.00000  Uiso   1.00
N127   N     0.42491   0.07165   0.04410   0.00000  Uiso   1.00
H128   H     0.41212   0.04849   0.02135   0.00000  Uiso   1.00
H129   H     0.39953   0.08896   0.05759   0.00000  Uiso   1.00
N130   N     0.57508   0.26168   0.45590   0.00000  Uiso   1.00
H131   H     0.58787   0.28485   0.47865   0.00000  Uiso   1.00
H132   H     0.60047   0.24437   0.44242   0.00000  Uiso   1.00
N133   N     0.37719   0.14291   0.17122   0.00000  Uiso   1.00
H134   H     0.36808   0.16479   0.14558   0.00000  Uiso   1.00
H135   H     0.36858   0.11061   0.16145   0.00000  Uiso   1.00
N136   N     0.62281   0.19042   0.32878   0.00000  Uiso   1.00
H137   H     0.63192   0.16854   0.35442   0.00000  Uiso   1.00
H138   H     0.63143   0.22272   0.33855   0.00000  Uiso   1.00
N139   N     0.62158   0.14268   0.16994   0.00000  Uiso   1.00
H140   H     0.60304   0.11473   0.17611   0.00000  Uiso   1.00
H141   H     0.60176   0.16925   0.16106   0.00000  Uiso   1.00
N142   N     0.37842   0.19065   0.33006   0.00000  Uiso   1.00
H143   H     0.39696   0.21860   0.32389   0.00000  Uiso   1.00
H144   H     0.39824   0.16408   0.33894   0.00000  Uiso   1.00
N145   N     0.54424   0.04572   0.31809   0.00000  Uiso   1.00
H146   H     0.56231   0.07153   0.30559   0.00000  Uiso   1.00
H147   H     0.52260   0.05764   0.34103   0.00000  Uiso   1.00
N148   N     0.45576   0.28762   0.18191   0.00000  Uiso   1.00
H149   H     0.43769   0.26180   0.19441   0.00000  Uiso   1.00
H150   H     0.47740   0.27569   0.15897   0.00000  Uiso   1.00
N151   N     0.45659   0.04527   0.18145   0.00000  Uiso   1.00
H152   H     0.43892   0.07180   0.19349   0.00000  Uiso   1.00
H153   H     0.47902   0.05626   0.15911   0.00000  Uiso   1.00
N154   N     0.54341   0.28806   0.31855   0.00000  Uiso   1.00
H155   H     0.56108   0.26154   0.30651   0.00000  Uiso   1.00
H156   H     0.52098   0.27707   0.34089   0.00000  Uiso   1.00
C157   C     0.75366   0.16672   0.25021   0.00000  Uiso   1.00
C158   C     0.91300   0.16661   0.24979   0.00000  Uiso   1.00
C159   C     0.78374   0.10364   0.02139   0.00000  Uiso   1.00
C160   C     0.88292   0.22970   0.47861   0.00000  Uiso   1.00
C161   C     0.68789   0.15451   0.21075   0.00000  Uiso   1.00
C162   C     0.97877   0.17883   0.28925   0.00000  Uiso   1.00
C163   C     0.97771   0.15433   0.21041   0.00000  Uiso   1.00
C164   C     0.68896   0.17900   0.28959   0.00000  Uiso   1.00
C165   C     0.95718   0.16651   0.24978   0.00000  Uiso   1.00
C166   C     0.70948   0.16683   0.25022   0.00000  Uiso   1.00
C167   C     0.85514   0.02376   0.28230   0.00000  Uiso   1.00
C168   C     0.81153   0.30957   0.21771   0.00000  Uiso   1.00
C169   C     0.81159   0.02355   0.21769   0.00000  Uiso   1.00
C170   C     0.85507   0.30978   0.28231   0.00000  Uiso   1.00
C171   C     0.83309   0.16663   0.16360   0.00000  Uiso   1.00
C172   C     0.83358   0.16670   0.33640   0.00000  Uiso   1.00
C173   C     0.85825   0.19773   0.40766   0.00000  Uiso   1.00
C174   C     0.80841   0.13561   0.09234   0.00000  Uiso   1.00
C175   C     0.83383   0.16660   0.38421   0.00000  Uiso   1.00
C176   C     0.83284   0.16674   0.11579   0.00000  Uiso   1.00
C177   C     0.80987   0.13505   0.40617   0.00000  Uiso   1.00
C178   C     0.85680   0.19828   0.09383   0.00000  Uiso   1.00
C179   C     0.80940   0.13496   0.45247   0.00000  Uiso   1.00
C180   C     0.85726   0.19838   0.04753   0.00000  Uiso   1.00
C181   C     0.83366   0.16666   0.47670   0.00000  Uiso   1.00
C182   C     0.83301   0.16667   0.02330   0.00000  Uiso   1.00
C183   C     0.85855   0.19827   0.45421   0.00000  Uiso   1.00
C184   C     0.80811   0.13506   0.04579   0.00000  Uiso   1.00
C185   C     0.78481   0.10382   0.47464   0.00000  Uiso   1.00
C186   C     0.88185   0.22952   0.02536   0.00000  Uiso   1.00
H187   H     0.87742   0.22084   0.38935   0.00000  Uiso   1.00
H188   H     0.78924   0.11250   0.11065   0.00000  Uiso   1.00
H189   H     0.79110   0.11112   0.38707   0.00000  Uiso   1.00
H190   H     0.87556   0.22222   0.11293   0.00000  Uiso   1.00
H191   H     0.76625   0.07980   0.45550   0.00000  Uiso   1.00
H192   H     0.90041   0.25353   0.04450   0.00000  Uiso   1.00
N193   N     0.83333   0.28573   0.25000   0.00000  Uiso   1.00
N194   N     0.83333   0.04760   0.25000   0.00000  Uiso   1.00
O195   O     0.77226   0.20487   0.25000   0.00000  Uiso   1.00
O196   O     0.89441   0.12846   0.25001   0.00000  Uiso   1.00
O197   O     0.89441   0.20487   0.25001   0.00000  Uiso   1.00
O198   O     0.77226   0.12846   0.25000   0.00000  Uiso   1.00
O199   O     0.83333   0.20489   0.18393   0.00000  Uiso   1.00
O200   O     0.83334   0.12844   0.31608   0.00000  Uiso   1.00
O201   O     0.83334   0.20489   0.31608   0.00000  Uiso   1.00
O202   O     0.83333   0.12844   0.18393   0.00000  Uiso   1.00
Zn203  Zn    0.83333   0.21771   0.25000   0.00000  Uiso   1.00
Zn204  Zn    0.83333   0.11563   0.25000   0.00000  Uiso   1.00
N205   N     0.75825   0.07165   0.04410   0.00000  Uiso   1.00
H206   H     0.74546   0.04849   0.02135   0.00000  Uiso   1.00
H207   H     0.73286   0.08896   0.05759   0.00000  Uiso   1.00
N208   N     0.90842   0.26168   0.45590   0.00000  Uiso   1.00
H209   H     0.92120   0.28485   0.47865   0.00000  Uiso   1.00
H210   H     0.93381   0.24437   0.44242   0.00000  Uiso   1.00
N211   N     0.71052   0.14291   0.17122   0.00000  Uiso   1.00
H212   H     0.70141   0.16479   0.14558   0.00000  Uiso   1.00
H213   H     0.70191   0.11061   0.16145   0.00000  Uiso   1.00
N214   N     0.95615   0.19042   0.32878   0.00000  Uiso   1.00
H215   H     0.96525   0.16854   0.35442   0.00000  Uiso   1.00
H216   H     0.96476   0.22272   0.33855   0.00000  Uiso   1.00
N217   N     0.95491   0.14268   0.16994   0.00000  Uiso   1.00
H218   H     0.93637   0.11473   0.17611   0.00000  Uiso   1.00
H219   H     0.93510   0.16925   0.16106   0.00000  Uiso   1.00
N220   N     0.71176   0.19065   0.33006   0.00000  Uiso   1.00
H221   H     0.73030   0.21860   0.32389   0.00000  Uiso   1.00
H222   H     0.73157   0.16408   0.33894   0.00000  Uiso   1.00
N223   N     0.87757   0.04572   0.31809   0.00000  Uiso   1.00
H224   H     0.89564   0.07153   0.30559   0.00000  Uiso   1.00
H225   H     0.85593   0.05764   0.34103   0.00000  Uiso   1.00
N226   N     0.78910   0.28762   0.18191   0.00000  Uiso   1.00
H227   H     0.77102   0.26180   0.19441   0.00000  Uiso   1.00
H228   H     0.81073   0.27569   0.15897   0.00000  Uiso   1.00
N229   N     0.78992   0.04527   0.18145   0.00000  Uiso   1.00
H230   H     0.77225   0.07180   0.19349   0.00000  Uiso   1.00
H231   H     0.81236   0.05626   0.15911   0.00000  Uiso   1.00
N232   N     0.87674   0.28806   0.31855   0.00000  Uiso   1.00
H233   H     0.89441   0.26154   0.30651   0.00000  Uiso   1.00
H234   H     0.85431   0.27707   0.34089   0.00000  Uiso   1.00
C235   C     0.08700   0.50006   0.25021   0.00000  Uiso   1.00
C236   C     0.24633   0.49995   0.24979   0.00000  Uiso   1.00
C237   C     0.11707   0.43697   0.02139   0.00000  Uiso   1.00
C238   C     0.21626   0.56303   0.47861   0.00000  Uiso   1.00
C239   C     0.02123   0.48784   0.21075   0.00000  Uiso   1.00
C240   C     0.31211   0.51216   0.28925   0.00000  Uiso   1.00
C241   C     0.31104   0.48767   0.21041   0.00000  Uiso   1.00
C242   C     0.02229   0.51233   0.28959   0.00000  Uiso   1.00
C243   C     0.29052   0.49984   0.24978   0.00000  Uiso   1.00
C244   C     0.04282   0.50016   0.25022   0.00000  Uiso   1.00
C245   C     0.18847   0.35710   0.28230   0.00000  Uiso   1.00
C246   C     0.14486   0.64291   0.21771   0.00000  Uiso   1.00
C247   C     0.14493   0.35688   0.21769   0.00000  Uiso   1.00
C248   C     0.18841   0.64312   0.28231   0.00000  Uiso   1.00
C249   C     0.16642   0.49997   0.16360   0.00000  Uiso   1.00
C250   C     0.16691   0.50003   0.33640   0.00000  Uiso   1.00
C251   C     0.19158   0.53106   0.40766   0.00000  Uiso   1.00
C252   C     0.14175   0.46894   0.09234   0.00000  Uiso   1.00
C253   C     0.16716   0.49993   0.38421   0.00000  Uiso   1.00
C254   C     0.16617   0.50007   0.11579   0.00000  Uiso   1.00
C255   C     0.14320   0.46838   0.40617   0.00000  Uiso   1.00
C256   C     0.19013   0.53162   0.09383   0.00000  Uiso   1.00
C257   C     0.14274   0.46829   0.45247   0.00000  Uiso   1.00
C258   C     0.19060   0.53171   0.04753   0.00000  Uiso   1.00
C259   C     0.16699   0.50000   0.47670   0.00000  Uiso   1.00
C260   C     0.16634   0.50001   0.02330   0.00000  Uiso   1.00
C261   C     0.19189   0.53161   0.45421   0.00000  Uiso   1.00
C262   C     0.14144   0.46839   0.04579   0.00000  Uiso   1.00
C263   C     0.11814   0.43715   0.47464   0.00000  Uiso   1.00
C264   C     0.21519   0.56285   0.02536   0.00000  Uiso   1.00
H265   H     0.21076   0.55417   0.38935   0.00000  Uiso   1.00
H266   H     0.12258   0.44583   0.11065   0.00000  Uiso   1.00
H267   H     0.12444   0.44445   0.38707   0.00000  Uiso   1.00
H268   H     0.20889   0.55555   0.11293   0.00000  Uiso   1.00
H269   H     0.09958   0.41314   0.45550   0.00000  Uiso   1.00
H270   H     0.23375   0.58686   0.04450   0.00000  Uiso   1.00
N271   N     0.16667   0.61907   0.25000   0.00000  Uiso   1.00
N272   N     0.16667   0.38093   0.25000   0.00000  Uiso   1.00
O273   O     0.10559   0.53821   0.25000   0.00000  Uiso   1.00
O274   O     0.22774   0.46179   0.25001   0.00000  Uiso   1.00
O275   O     0.22774   0.53821   0.25001   0.00000  Uiso   1.00
O276   O     0.10559   0.46179   0.25000   0.00000  Uiso   1.00
O277   O     0.16666   0.53823   0.18393   0.00000  Uiso   1.00
O278   O     0.16667   0.46177   0.31608   0.00000  Uiso   1.00
O279   O     0.16667   0.53823   0.31608   0.00000  Uiso   1.00
O280   O     0.16666   0.46177   0.18393   0.00000  Uiso   1.00
Zn281  Zn    0.16667   0.55104   0.25000   0.00000  Uiso   1.00
Zn282  Zn    0.16667   0.44896   0.25000   0.00000  Uiso   1.00
N283   N     0.09158   0.40499   0.04410   0.00000  Uiso   1.00
H284   H     0.07879   0.38183   0.02135   0.00000  Uiso   1.00
H285   H     0.06619   0.42229   0.05759   0.00000  Uiso   1.00
N286   N     0.24175   0.59501   0.45590   0.00000  Uiso   1.00
H287   H     0.25453   0.61818   0.47865   0.00000  Uiso   1.00
H288   H     0.26714   0.57771   0.44242   0.00000  Uiso   1.00
N289   N     0.04385   0.47625   0.17122   0.00000  Uiso   1.00
H290   H     0.03475   0.49813   0.14558   0.00000  Uiso   1.00
H291   H     0.03524   0.44394   0.16145   0.00000  Uiso   1.00
N292   N     0.28948   0.52375   0.32878   0.00000  Uiso   1.00
H293   H     0.29859   0.50187   0.35442   0.00000  Uiso   1.00
H294   H     0.29809   0.55606   0.33855   0.00000  Uiso   1.00
N295   N     0.28824   0.47602   0.16994   0.00000  Uiso   1.00
H296   H     0.26970   0.44806   0.17611   0.00000  Uiso   1.00
H297   H     0.26843   0.50259   0.16106   0.00000  Uiso   1.00
N298   N     0.04509   0.52398   0.33006   0.00000  Uiso   1.00
H299   H     0.06363   0.55194   0.32389   0.00000  Uiso   1.00
H300   H     0.06490   0.49741   0.33894   0.00000  Uiso   1.00
N301   N     0.21090   0.37905   0.31809   0.00000  Uiso   1.00
H302   H     0.22898   0.40486   0.30559   0.00000  Uiso   1.00
H303   H     0.18927   0.39097   0.34103   0.00000  Uiso   1.00
N304   N     0.12243   0.62095   0.18191   0.00000  Uiso   1.00
H305   H     0.10436   0.59514   0.19441   0.00000  Uiso   1.00
H306   H     0.14407   0.60903   0.15897   0.00000  Uiso   1.00
N307   N     0.12326   0.37861   0.18145   0.00000  Uiso   1.00
H308   H     0.10559   0.40513   0.19349   0.00000  Uiso   1.00
H309   H     0.14569   0.38959   0.15911   0.00000  Uiso   1.00
N310   N     0.21008   0.62140   0.31855   0.00000  Uiso   1.00
H311   H     0.22775   0.59487   0.30651   0.00000  Uiso   1.00
H312   H     0.18764   0.61041   0.34089   0.00000  Uiso   1.00
C313   C     0.42033   0.50006   0.25021   0.00000  Uiso   1.00
C314   C     0.57967   0.49995   0.24979   0.00000  Uiso   1.00
C315   C     0.45041   0.43697   0.02139   0.00000  Uiso   1.00
C316   C     0.54959   0.56303   0.47861   0.00000  Uiso   1.00
C317   C     0.35456   0.48784   0.21075   0.00000  Uiso   1.00
C318   C     0.64544   0.51216   0.28925   0.00000  Uiso   1.00
C319   C     0.64437   0.48767   0.21041   0.00000  Uiso   1.00
C320   C     0.35562   0.51233   0.28959   0.00000  Uiso   1.00
C321   C     0.62385   0.49984   0.24978   0.00000  Uiso   1.00
C322   C     0.37615   0.50016   0.25022   0.00000  Uiso   1.00
C323   C     0.52180   0.35710   0.28230   0.00000  Uiso   1.00
C324   C     0.47820   0.64291   0.21771   0.00000  Uiso   1.00
C325   C     0.47826   0.35688   0.21769   0.00000  Uiso   1.00
C326   C     0.52174   0.64312   0.28231   0.00000  Uiso   1.00
C327   C     0.49975   0.49997   0.16360   0.00000  Uiso   1.00
C328   C     0.50025   0.50003   0.33640   0.00000  Uiso   1.00
C329   C     0.52492   0.53106   0.40766   0.00000  Uiso   1.00
C330   C     0.47508   0.46894   0.09234   0.00000  Uiso   1.00
C331   C     0.50050   0.49993   0.38421   0.00000  Uiso   1.00
C332   C     0.49950   0.50007   0.11579   0.00000  Uiso   1.00
C333   C     0.47653   0.46838   0.40617   0.00000  Uiso   1.00
C334   C     0.52346   0.53162   0.09383   0.00000  Uiso   1.00
C335   C     0.47607   0.46829   0.45247   0.00000  Uiso   1.00
C336   C     0.52393   0.53171   0.04753   0.00000  Uiso   1.00
C337   C     0.50032   0.50000   0.47670   0.00000  Uiso   1.00
C338   C     0.49967   0.50001   0.02330   0.00000  Uiso   1.00
C339   C     0.52522   0.53161   0.45421   0.00000  Uiso   1.00
C340   C     0.47478   0.46839   0.04579   0.00000  Uiso   1.00
C341   C     0.45148   0.43715   0.47464   0.00000  Uiso   1.00
C342   C     0.54852   0.56285   0.02536   0.00000  Uiso   1.00
H343   H     0.54409   0.55417   0.38935   0.00000  Uiso   1.00
H344   H     0.45591   0.44583   0.11065   0.00000  Uiso   1.00
H345   H     0.45777   0.44445   0.38707   0.00000  Uiso   1.00
H346   H     0.54223   0.55555   0.11293   0.00000  Uiso   1.00
H347   H     0.43292   0.41314   0.45550   0.00000  Uiso   1.00
H348   H     0.56708   0.58686   0.04450   0.00000  Uiso   1.00
N349   N     0.50000   0.61907   0.25000   0.00000  Uiso   1.00
N350   N     0.50000   0.38093   0.25000   0.00000  Uiso   1.00
O351   O     0.43892   0.53821   0.25000   0.00000  Uiso   1.00
O352   O     0.56108   0.46179   0.25001   0.00000  Uiso   1.00
O353   O     0.56108   0.53821   0.25001   0.00000  Uiso   1.00
O354   O     0.43892   0.46179   0.25000   0.00000  Uiso   1.00
O355   O     0.49999   0.53823   0.18393   0.00000  Uiso   1.00
O356   O     0.50001   0.46177   0.31608   0.00000  Uiso   1.00
O357   O     0.50001   0.53823   0.31608   0.00000  Uiso   1.00
O358   O     0.49999   0.46177   0.18393   0.00000  Uiso   1.00
Zn359  Zn    0.50000   0.55104   0.25000   0.00000  Uiso   1.00
Zn360  Zn    0.50000   0.44896   0.25000   0.00000  Uiso   1.00
N361   N     0.42491   0.40499   0.04410   0.00000  Uiso   1.00
H362   H     0.41212   0.38183   0.02135   0.00000  Uiso   1.00
H363   H     0.39953   0.42229   0.05759   0.00000  Uiso   1.00
N364   N     0.57508   0.59501   0.45590   0.00000  Uiso   1.00
H365   H     0.58787   0.61818   0.47865   0.00000  Uiso   1.00
H366   H     0.60047   0.57771   0.44242   0.00000  Uiso   1.00
N367   N     0.37719   0.47625   0.17122   0.00000  Uiso   1.00
H368   H     0.36808   0.49813   0.14558   0.00000  Uiso   1.00
H369   H     0.36858   0.44394   0.16145   0.00000  Uiso   1.00
N370   N     0.62281   0.52375   0.32878   0.00000  Uiso   1.00
H371   H     0.63192   0.50187   0.35442   0.00000  Uiso   1.00
H372   H     0.63143   0.55606   0.33855   0.00000  Uiso   1.00
N373   N     0.62158   0.47602   0.16994   0.00000  Uiso   1.00
H374   H     0.60304   0.44806   0.17611   0.00000  Uiso   1.00
H375   H     0.60176   0.50259   0.16106   0.00000  Uiso   1.00
N376   N     0.37842   0.52398   0.33006   0.00000  Uiso   1.00
H377   H     0.39696   0.55194   0.32389   0.00000  Uiso   1.00
H378   H     0.39824   0.49741   0.33894   0.00000  Uiso   1.00
N379   N     0.54424   0.37905   0.31809   0.00000  Uiso   1.00
H380   H     0.56231   0.40486   0.30559   0.00000  Uiso   1.00
H381   H     0.52260   0.39097   0.34103   0.00000  Uiso   1.00
N382   N     0.45576   0.62095   0.18191   0.00000  Uiso   1.00
H383   H     0.43769   0.59514   0.19441   0.00000  Uiso   1.00
H384   H     0.47740   0.60903   0.15897   0.00000  Uiso   1.00
N385   N     0.45659   0.37861   0.18145   0.00000  Uiso   1.00
H386   H     0.43892   0.40513   0.19349   0.00000  Uiso   1.00
H387   H     0.47902   0.38959   0.15911   0.00000  Uiso   1.00
N388   N     0.54341   0.62140   0.31855   0.00000  Uiso   1.00
H389   H     0.56108   0.59487   0.30651   0.00000  Uiso   1.00
H390   H     0.52098   0.61041   0.34089   0.00000  Uiso   1.00
C391   C     0.75366   0.50006   0.25021   0.00000  Uiso   1.00
C392   C     0.91300   0.49995   0.24979   0.00000  Uiso   1.00
C393   C     0.78374   0.43697   0.02139   0.00000  Uiso   1.00
C394   C     0.88292   0.56303   0.47861   0.00000  Uiso   1.00
C395   C     0.68789   0.48784   0.21075   0.00000  Uiso   1.00
C396   C     0.97877   0.51216   0.28925   0.00000  Uiso   1.00
C397   C     0.97771   0.48767   0.21041   0.00000  Uiso   1.00
C398   C     0.68896   0.51233   0.28959   0.00000  Uiso   1.00
C399   C     0.95718   0.49984   0.24978   0.00000  Uiso   1.00
C400   C     0.70948   0.50016   0.25022   0.00000  Uiso   1.00
C401   C     0.85514   0.35710   0.28230   0.00000  Uiso   1.00
C402   C     0.81153   0.64291   0.21771   0.00000  Uiso   1.00
C403   C     0.81159   0.35688   0.21769   0.00000  Uiso   1.00
C404   C     0.85507   0.64312   0.28231   0.00000  Uiso   1.00
C405   C     0.83309   0.49997   0.16360   0.00000  Uiso   1.00
C406   C     0.83358   0.50003   0.33640   0.00000  Uiso   1.00
C407   C     0.85825   0.53106   0.40766   0.00000  Uiso   1.00
C408   C     0.80841   0.46894   0.09234   0.00000  Uiso   1.00
C409   C     0.83383   0.49993   0.38421   0.00000  Uiso   1.00
C410   C     0.83284   0.50007   0.11579   0.00000  Uiso   1.00
C411   C     0.80987   0.46838   0.40617   0.00000  Uiso   1.00
C412   C     0.85680   0.53162   0.09383   0.00000  Uiso   1.00
C413   C     0.80940   0.46829   0.45247   0.00000  Uiso   1.00
C414   C     0.85726   0.53171   0.04753   0.00000  Uiso   1.00
C415   C     0.83366   0.50000   0.47670   0.00000  Uiso   1.00
C416   C     0.83301   0.50001   0.02330   0.00000  Uiso   1.00
C417   C     0.85855   0.53161   0.45421   0.00000  Uiso   1.00
C418   C     0.80811   0.46839   0.04579   0.00000  Uiso   1.00
C419   C     0.78481   0.43715   0.47464   0.00000  Uiso   1.00
C420   C     0.88185   0.56285   0.02536   0.00000  Uiso   1.00
H421   H     0.87742   0.55417   0.38935   0.00000  Uiso   1.00
H422   H     0.78924   0.44583   0.11065   0.00000  Uiso   1.00
H423   H     0.79110   0.44445   0.38707   0.00000  Uiso   1.00
H424   H     0.87556   0.55555   0.11293   0.00000  Uiso   1.00
H425   H     0.76625   0.41314   0.45550   0.00000  Uiso   1.00
H426   H     0.90041   0.58686   0.04450   0.00000  Uiso   1.00
N427   N     0.83333   0.61907   0.25000   0.00000  Uiso   1.00
N428   N     0.83333   0.38093   0.25000   0.00000  Uiso   1.00
O429   O     0.77226   0.53821   0.25000   0.00000  Uiso   1.00
O430   O     0.89441   0.46179   0.25001   0.00000  Uiso   1.00
O431   O     0.89441   0.53821   0.25001   0.00000  Uiso   1.00
O432   O     0.77226   0.46179   0.25000   0.00000  Uiso   1.00
O433   O     0.83333   0.53823   0.18393   0.00000  Uiso   1.00
O434   O     0.83334   0.46177   0.31608   0.00000  Uiso   1.00
O435   O     0.83334   0.53823   0.31608   0.00000  Uiso   1.00
O436   O     0.83333   0.46177   0.18393   0.00000  Uiso   1.00
Zn437  Zn    0.83333   0.55104   0.25000   0.00000  Uiso   1.00
Zn438  Zn    0.83333   0.44896   0.25000   0.00000  Uiso   1.00
N439   N     0.75825   0.40499   0.04410   0.00000  Uiso   1.00
H440   H     0.74546   0.38183   0.02135   0.00000  Uiso   1.00
H441   H     0.73286   0.42229   0.05759   0.00000  Uiso   1.00
N442   N     0.90842   0.59501   0.45590   0.00000  Uiso   1.00
H443   H     0.92120   0.61818   0.47865   0.00000  Uiso   1.00
H444   H     0.93381   0.57771   0.44242   0.00000  Uiso   1.00
N445   N     0.71052   0.47625   0.17122   0.00000  Uiso   1.00
H446   H     0.70141   0.49813   0.14558   0.00000  Uiso   1.00
H447   H     0.70191   0.44394   0.16145   0.00000  Uiso   1.00
N448   N     0.95615   0.52375   0.32878   0.00000  Uiso   1.00
H449   H     0.96525   0.50187   0.35442   0.00000  Uiso   1.00
H450   H     0.96476   0.55606   0.33855   0.00000  Uiso   1.00
N451   N     0.95491   0.47602   0.16994   0.00000  Uiso   1.00
H452   H     0.93637   0.44806   0.17611   0.00000  Uiso   1.00
H453   H     0.93510   0.50259   0.16106   0.00000  Uiso   1.00
N454   N     0.71176   0.52398   0.33006   0.00000  Uiso   1.00
H455   H     0.73030   0.55194   0.32389   0.00000  Uiso   1.00
H456   H     0.73157   0.49741   0.33894   0.00000  Uiso   1.00
N457   N     0.87757   0.37905   0.31809   0.00000  Uiso   1.00
H458   H     0.89564   0.40486   0.30559   0.00000  Uiso   1.00
H459   H     0.85593   0.39097   0.34103   0.00000  Uiso   1.00
N460   N     0.78910   0.62095   0.18191   0.00000  Uiso   1.00
H461   H     0.77102   0.59514   0.19441   0.00000  Uiso   1.00
H462   H     0.81073   0.60903   0.15897   0.00000  Uiso   1.00
N463   N     0.78992   0.37861   0.18145   0.00000  Uiso   1.00
H464   H     0.77225   0.40513   0.19349   0.00000  Uiso   1.00
H465   H     0.81236   0.38959   0.15911   0.00000  Uiso   1.00
N466   N     0.87674   0.62140   0.31855   0.00000  Uiso   1.00
H467   H     0.89441   0.59487   0.30651   0.00000  Uiso   1.00
H468   H     0.85431   0.61041   0.34089   0.00000  Uiso   1.00
C469   C     0.08700   0.83339   0.25021   0.00000  Uiso   1.00
C470   C     0.24633   0.83328   0.24979   0.00000  Uiso   1.00
C471   C     0.11707   0.77030   0.02139   0.00000  Uiso   1.00
C472   C     0.21626   0.89636   0.47861   0.00000  Uiso   1.00
C473   C     0.02123   0.82117   0.21075   0.00000  Uiso   1.00
C474   C     0.31211   0.84549   0.28925   0.00000  Uiso   1.00
C475   C     0.31104   0.82100   0.21041   0.00000  Uiso   1.00
C476   C     0.02229   0.84567   0.28959   0.00000  Uiso   1.00
C477   C     0.29052   0.83318   0.24978   0.00000  Uiso   1.00
C478   C     0.04282   0.83349   0.25022   0.00000  Uiso   1.00
C479   C     0.18847   0.69043   0.28230   0.00000  Uiso   1.00
C480   C     0.14486   0.97624   0.21771   0.00000  Uiso   1.00
C481   C     0.14493   0.69022   0.21769   0.00000  Uiso   1.00
C482   C     0.18841   0.97645   0.28231   0.00000  Uiso   1.00
C483   C     0.16642   0.83330   0.16360   0.00000  Uiso   1.00
C484   C     0.16691   0.83337   0.33640   0.00000  Uiso   1.00
C485   C     0.19158   0.86440   0.40766   0.00000  Uiso   1.00
C486   C     0.14175   0.80227   0.09234   0.00000  Uiso   1.00
C487   C     0.16716   0.83326   0.38421   0.00000  Uiso   1.00
C488   C     0.16617   0.83340   0.11579   0.00000  Uiso   1.00
C489   C     0.14320   0.80172   0.40617   0.00000  Uiso   1.00
C490   C     0.19013   0.86495   0.09383   0.00000  Uiso   1.00
C491   C     0.14274   0.80162   0.45247   0.00000  Uiso   1.00
C492   C     0.19060   0.86505   0.04753   0.00000  Uiso   1.00
C493   C     0.16699   0.83333   0.47670   0.00000  Uiso   1.00
C494   C     0.16634   0.83334   0.02330   0.00000  Uiso   1.00
C495   C     0.19189   0.86494   0.45421   0.00000  Uiso   1.00
C496   C     0.14144   0.80173   0.04579   0.00000  Uiso   1.00
C497   C     0.11814   0.77048   0.47464   0.00000  Uiso   1.00
C498   C     0.21519   0.89618   0.02536   0.00000  Uiso   1.00
H499   H     0.21076   0.88750   0.38935   0.00000  Uiso   1.00
H500   H     0.12258   0.77916   0.11065   0.00000  Uiso   1.00
H501   H     0.12444   0.77778   0.38707   0.00000  Uiso   1.00
H502   H     0.20889   0.88889   0.11293   0.00000  Uiso   1.00
H503   H     0.09958   0.74647   0.45550   0.00000  Uiso   1.00
H504   H     0.23375   0.92020   0.04450   0.00000  Uiso   1.00
N505   N     0.16667   0.95240   0.25000   0.00000  Uiso   1.00
N506   N     0.16667   0.71427   0.25000   0.00000  Uiso   1.00
O507   O     0.10559   0.87154   0.25000   0.00000  Uiso   1.00
O508   O     0.22774   0.79513   0.25001   0.00000  Uiso   1.00
O509   O     0.22774   0.87154   0.25001   0.00000  Uiso   1.00
O510   O     0.10559   0.79513   0.25000   0.00000  Uiso   1.00
O511   O     0.16666   0.87156   0.18393   0.00000  Uiso   1.00
O512   O     0.16667   0.79511   0.31608   0.00000  Uiso   1.00
O513   O     0.16667   0.87156   0.31608   0.00000  Uiso   1.00
O514   O     0.16666   0.79511   0.18393   0.00000  Uiso   1.00
Zn515  Zn    0.16667   0.88437   0.25000   0.00000  Uiso   1.00
Zn516  Zn    0.16667   0.78229   0.25000   0.00000  Uiso   1.00
N517   N     0.09158   0.73832   0.04410   0.00000  Uiso   1.00
H518   H     0.07879   0.71516   0.02135   0.00000  Uiso   1.00
H519   H     0.06619   0.75563   0.05759   0.00000  Uiso   1.00
N520   N     0.24175   0.92835   0.45590   0.00000  Uiso   1.00
H521   H     0.25453   0.95152   0.47865   0.00000  Uiso   1.00
H522   H     0.26714   0.91104   0.44242   0.00000  Uiso   1.00
N523   N     0.04385   0.80958   0.17122   0.00000  Uiso   1.00
H524   H     0.03475   0.83146   0.14558   0.00000  Uiso   1.00
H525   H     0.03524   0.77727   0.16145   0.00000  Uiso   1.00
N526   N     0.28948   0.85709   0.32878   0.00000  Uiso   1.00
H527   H     0.29859   0.83520   0.35442   0.00000  Uiso   1.00
H528   H     0.29809   0.88939   0.33855   0.00000  Uiso   1.00
N529   N     0.28824   0.80935   0.16994   0.00000  Uiso   1.00
H530   H     0.26970   0.78140   0.17611   0.00000  Uiso   1.00
H531   H     0.26843   0.83592   0.16106   0.00000  Uiso   1.00
N532   N     0.04509   0.85732   0.33006   0.00000  Uiso   1.00
H533   H     0.06363   0.88527   0.32389   0.00000  Uiso   1.00
H534   H     0.06490   0.83074   0.33894   0.00000  Uiso   1.00
N535   N     0.21090   0.71238   0.31809   0.00000  Uiso   1.00
H536   H     0.22898   0.73820   0.30559   0.00000  Uiso   1.00
H537   H     0.18927   0.72431   0.34103   0.00000  Uiso   1.00
N538   N     0.12243   0.95428   0.18191   0.00000  Uiso   1.00
H539   H     0.10436   0.92847   0.19441   0.00000  Uiso   1.00
H540   H     0.14407   0.94236   0.15897   0.00000  Uiso   1.00
N541   N     0.12326   0.71194   0.18145   0.00000  Uiso   1.00
H542   H     0.10559   0.73846   0.19349   0.00000  Uiso   1.00
H543   H     0.14569   0.72293   0.15911   0.00000  Uiso   1.00
N544   N     0.21008   0.95473   0.31855   0.00000  Uiso   1.00
H545   H     0.22775   0.92820   0.30651   0.00000  Uiso   1.00
H546   H     0.18764   0.94374   0.34089   0.00000  Uiso   1.00
C547   C     0.42033   0.83339   0.25021   0.00000  Uiso   1.00
C548   C     0.57967   0.83328   0.24979   0.00000  Uiso   1.00
C549   C     0.45041   0.77030   0.02139   0.00000  Uiso   1.00
C550   C     0.54959   0.89636   0.47861   0.00000  Uiso   1.00
C551   C     0.35456   0.82117   0.21075   0.00000  Uiso   1.00
C552   C     0.64544   0.84549   0.28925   0.00000  Uiso   1.00
C553   C     0.64437   0.82100   0.21041   0.00000  Uiso   1.00
C554   C     0.35562   0.84567   0.28959   0.00000  Uiso   1.00
C555   C     0.62385   0.83318   0.24978   0.00000  Uiso   1.00
C556   C     0.37615   0.83349   0.25022   0.00000  Uiso   1.00
C557   C     0.52180   0.69043   0.28230   0.00000  Uiso   1.00
C558   C     0.47820   0.97624   0.21771   0.00000  Uiso   1.00
C559   C     0.47826   0.69022   0.21769   0.00000  Uiso   1.00
C560   C     0.52174   0.97645   0.28231   0.00000  Uiso   1.00
C561   C     0.49975   0.83330   0.16360   0.00000  Uiso   1.00
C562   C     0.50025   0.83337   0.33640   0.00000  Uiso   1.00
C563   C     0.52492   0.86440   0.40766   0.00000  Uiso   1.00
C564   C     0.47508   0.80227   0.09234   0.00000  Uiso   1.00
C565   C     0.50050   0.83326   0.38421   0.00000  Uiso   1.00
C566   C     0.49950   0.83340   0.11579   0.00000  Uiso   1.00
C567   C     0.47653   0.80172   0.40617   0.00000  Uiso   1.00
C568   C     0.52346   0.86495   0.09383   0.00000  Uiso   1.00
C569   C     0.47607   0.80162   0.45247   0.00000  Uiso   1.00
C570   C     0.52393   0.86505   0.04753   0.00000  Uiso   1.00
C571   C     0.50032   0.83333   0.47670   0.00000  Uiso   1.00
C572   C     0.49967   0.83334   0.02330   0.00000  Uiso   1.00
C573   C     0.52522   0.86494   0.45421   0.00000  Uiso   1.00
C574   C     0.47478   0.80173   0.04579   0.00000  Uiso   1.00
C575   C     0.45148   0.77048   0.47464   0.00000  Uiso   1.00
C576   C     0.54852   0.89618   0.02536   0.00000  Uiso   1.00
H577   H     0.54409   0.88750   0.38935   0.00000  Uiso   1.00
H578   H     0.45591   0.77916   0.11065   0.00000  Uiso   1.00
H579   H     0.45777   0.77778   0.38707   0.00000  Uiso   1.00
H580   H     0.54223   0.88889   0.11293   0.00000  Uiso   1.00
H581   H     0.43292   0.74647   0.45550   0.00000  Uiso   1.00
H582   H     0.56708   0.92020   0.04450   0.00000  Uiso   1.00
N583   N     0.50000   0.95240   0.25000   0.00000  Uiso   1.00
N584   N     0.50000   0.71427   0.25000   0.00000  Uiso   1.00
O585   O     0.43892   0.87154   0.25000   0.00000  Uiso   1.00
O586   O     0.56108   0.79513   0.25001   0.00000  Uiso   1.00
O587   O     0.56108   0.87154   0.25001   0.00000  Uiso   1.00
O588   O     0.43892   0.79513   0.25000   0.00000  Uiso   1.00
O589   O     0.49999   0.87156   0.18393   0.00000  Uiso   1.00
O590   O     0.50001   0.79511   0.31608   0.00000  Uiso   1.00
O591   O     0.50001   0.87156   0.31608   0.00000  Uiso   1.00
O592   O     0.49999   0.79511   0.18393   0.00000  Uiso   1.00
Zn593  Zn    0.50000   0.88437   0.25000   0.00000  Uiso   1.00
Zn594  Zn    0.50000   0.78229   0.25000   0.00000  Uiso   1.00
N595   N     0.42491   0.73832   0.04410   0.00000  Uiso   1.00
H596   H     0.41212   0.71516   0.02135   0.00000  Uiso   1.00
H597   H     0.39953   0.75563   0.05759   0.00000  Uiso   1.00
N598   N     0.57508   0.92835   0.45590   0.00000  Uiso   1.00
H599   H     0.58787   0.95152   0.47865   0.00000  Uiso   1.00
H600   H     0.60047   0.91104   0.44242   0.00000  Uiso   1.00
N601   N     0.37719   0.80958   0.17122   0.00000  Uiso   1.00
H602   H     0.36808   0.83146   0.14558   0.00000  Uiso   1.00
H603   H     0.36858   0.77727   0.16145   0.00000  Uiso   1.00
N604   N     0.62281   0.85709   0.32878   0.00000  Uiso   1.00
H605   H     0.63192   0.83520   0.35442   0.00000  Uiso   1.00
H606   H     0.63143   0.88939   0.33855   0.00000  Uiso   1.00
N607   N     0.62158   0.80935   0.16994   0.00000  Uiso   1.00
H608   H     0.60304   0.78140   0.17611   0.00000  Uiso   1.00
H609   H     0.60176   0.83592   0.16106   0.00000  Uiso   1.00
N610   N     0.37842   0.85732   0.33006   0.00000  Uiso   1.00
H611   H     0.39696   0.88527   0.32389   0.00000  Uiso   1.00
H612   H     0.39824   0.83074   0.33894   0.00000  Uiso   1.00
N613   N     0.54424   0.71238   0.31809   0.00000  Uiso   1.00
H614   H     0.56231   0.73820   0.30559   0.00000  Uiso   1.00
H615   H     0.52260   0.72431   0.34103   0.00000  Uiso   1.00
N616   N     0.45576   0.95428   0.18191   0.00000  Uiso   1.00
H617   H     0.43769   0.92847   0.19441   0.00000  Uiso   1.00
H618   H     0.47740   0.94236   0.15897   0.00000  Uiso   1.00
N619   N     0.45659   0.71194   0.18145   0.00000  Uiso   1.00
H620   H     0.43892   0.73846   0.19349   0.00000  Uiso   1.00
H621   H     0.47902   0.72293   0.15911   0.00000  Uiso   1.00
N622   N     0.54341   0.95473   0.31855   0.00000  Uiso   1.00
H623   H     0.56108   0.92820   0.30651   0.00000  Uiso   1.00
H624   H     0.52098   0.94374   0.34089   0.00000  Uiso   1.00
C625   C     0.75366   0.83339   0.25021   0.00000  Uiso   1.00
C626   C     0.91300   0.83328   0.24979   0.00000  Uiso   1.00
C627   C     0.78374   0.77030   0.02139   0.00000  Uiso   1.00
C628   C     0.88292   0.89636   0.47861   0.00000  Uiso   1.00
C629   C     0.68789   0.82117   0.21075   0.00000  Uiso   1.00
C630   C     0.97877   0.84549   0.28925   0.00000  Uiso   1.00
C631   C     0.97771   0.82100   0.21041   0.00000  Uiso   1.00
C632   C     0.68896   0.84567   0.28959   0.00000  Uiso   1.00
C633   C     0.95718   0.83318   0.24978   0.00000  Uiso   1.00
C634   C     0.70948   0.83349   0.25022   0.00000  Uiso   1.00
C635   C     0.85514   0.69043   0.28230   0.00000  Uiso   1.00
C636   C     0.81153   0.97624   0.21771   0.00000  Uiso   1.00
C637   C     0.81159   0.69022   0.21769   0.00000  Uiso   1.00
C638   C     0.85507   0.97645   0.28231   0.00000  Uiso   1.00
C639   C     0.83309   0.83330   0.16360   0.00000  Uiso   1.00
C640   C     0.83358   0.83337   0.33640   0.00000  Uiso   1.00
C641   C     0.85825   0.86440   0.40766   0.00000  Uiso   1.00
C642   C     0.80841   0.80227   0.09234   0.00000  Uiso   1.00
C643   C     0.83383   0.83326   0.38421   0.00000  Uiso   1.00
C644   C     0.83284   0.83340   0.11579   0.00000  Uiso   1.00
C645   C     0.80987   0.80172   0.40617   0.00000  Uiso   1.00
C646   C     0.85680   0.86495   0.09383   0.00000  Uiso   1.00
C647   C     0.80940   0.80162   0.45247   0.00000  Uiso   1.00
C648   C     0.85726   0.86505   0.04753   0.00000  Uiso   1.00
C649   C     0.83366   0.83333   0.47670   0.00000  Uiso   1.00
C650   C     0.83301   0.83334   0.02330   0.00000  Uiso   1.00
C651   C     0.85855   0.86494   0.45421   0.00000  Uiso   1.00
C652   C     0.80811   0.80173   0.04579   0.00000  Uiso   1.00
C653   C     0.78481   0.77048   0.47464   0.00000  Uiso   1.00
C654   C     0.88185   0.89618   0.02536   0.00000  Uiso   1.00
H655   H     0.87742   0.88750   0.38935   0.00000  Uiso   1.00
H656   H     0.78924   0.77916   0.11065   0.00000  Uiso   1.00
H657   H     0.79110   0.77778   0.38707   0.00000  Uiso   1.00
H658   H     0.87556   0.88889   0.11293   0.00000  Uiso   1.00
H659   H     0.76625   0.74647   0.45550   0.00000  Uiso   1.00
H660   H     0.90041   0.92020   0.04450   0.00000  Uiso   1.00
N661   N     0.83333   0.95240   0.25000   0.00000  Uiso   1.00
N662   N     0.83333   0.71427   0.25000   0.00000  Uiso   1.00
O663   O     0.77226   0.87154   0.25000   0.00000  Uiso   1.00
O664   O     0.89441   0.79513   0.25001   0.00000  Uiso   1.00
O665   O     0.89441   0.87154   0.25001   0.00000  Uiso   1.00
O666   O     0.77226   0.79513   0.25000   0.00000  Uiso   1.00
O667   O     0.83333   0.87156   0.18393   0.00000  Uiso   1.00
O668   O     0.83334   0.79511   0.31608   0.00000  Uiso   1.00
O669   O     0.83334   0.87156   0.31608   0.00000  Uiso   1.00
O670   O     0.83333   0.79511   0.18393   0.00000  Uiso   1.00
Zn671  Zn    0.83333   0.88437   0.25000   0.00000  Uiso   1.00
Zn672  Zn    0.83333   0.78229   0.25000   0.00000  Uiso   1.00
N673   N     0.75825   0.73832   0.04410   0.00000  Uiso   1.00
H674   H     0.74546   0.71516   0.02135   0.00000  Uiso   1.00
H675   H     0.73286   0.75563   0.05759   0.00000  Uiso   1.00
N676   N     0.90842   0.92835   0.45590   0.00000  Uiso   1.00
H677   H     0.92120   0.95152   0.47865   0.00000  Uiso   1.00
H678   H     0.93381   0.91104   0.44242   0.00000  Uiso   1.00
N679   N     0.71052   0.80958   0.17122   0.00000  Uiso   1.00
H680   H     0.70141   0.83146   0.14558   0.00000  Uiso   1.00
H681   H     0.70191   0.77727   0.16145   0.00000  Uiso   1.00
N682   N     0.95615   0.85709   0.32878   0.00000  Uiso   1.00
H683   H     0.96525   0.83520   0.35442   0.00000  Uiso   1.00
H684   H     0.96476   0.88939   0.33855   0.00000  Uiso   1.00
N685   N     0.95491   0.80935   0.16994   0.00000  Uiso   1.00
H686   H     0.93637   0.78140   0.17611   0.00000  Uiso   1.00
H687   H     0.93510   0.83592   0.16106   0.00000  Uiso   1.00
N688   N     0.71176   0.85732   0.33006   0.00000  Uiso   1.00
H689   H     0.73030   0.88527   0.32389   0.00000  Uiso   1.00
H690   H     0.73157   0.83074   0.33894   0.00000  Uiso   1.00
N691   N     0.87757   0.71238   0.31809   0.00000  Uiso   1.00
H692   H     0.89564   0.73820   0.30559   0.00000  Uiso   1.00
H693   H     0.85593   0.72431   0.34103   0.00000  Uiso   1.00
N694   N     0.78910   0.95428   0.18191   0.00000  Uiso   1.00
H695   H     0.77102   0.92847   0.19441   0.00000  Uiso   1.00
H696   H     0.81073   0.94236   0.15897   0.00000  Uiso   1.00
N697   N     0.78992   0.71194   0.18145   0.00000  Uiso   1.00
H698   H     0.77225   0.73846   0.19349   0.00000  Uiso   1.00
H699   H     0.81236   0.72293   0.15911   0.00000  Uiso   1.00
N700   N     0.87674   0.95473   0.31855   0.00000  Uiso   1.00
H701   H     0.89441   0.92820   0.30651   0.00000  Uiso   1.00
H702   H     0.85431   0.94374   0.34089   0.00000  Uiso   1.00
C703   C     0.08700   0.16672   0.75021   0.00000  Uiso   1.00
C704   C     0.24633   0.16661   0.74979   0.00000  Uiso   1.00
C705   C     0.11707   0.10364   0.52139   0.00000  Uiso   1.00
C706   C     0.21626   0.22970   0.97861   0.00000  Uiso   1.00
C707   C     0.02123   0.15451   0.71075   0.00000  Uiso   1.00
C708   C     0.31211   0.17883   0.78925   0.00000  Uiso   1.00
C709   C     0.31104   0.15433   0.71041   0.00000  Uiso   1.00
C710   C     0.02229   0.17900   0.78959   0.00000  Uiso   1.00
C711   C     0.29052   0.16651   0.74978   0.00000  Uiso   1.00
C712   C     0.04282   0.16683   0.75022   0.00000  Uiso   1.00
C713   C     0.18847   0.02376   0.78230   0.00000  Uiso   1.00
C714   C     0.14486   0.30957   0.71771   0.00000  Uiso   1.00
C715   C     0.14493   0.02355   0.71769   0.00000  Uiso   1.00
C716   C     0.18841   0.30978   0.78231   0.00000  Uiso   1.00
C717   C     0.16642   0.16663   0.66360   0.00000  Uiso   1.00
C718   C     0.16691   0.16670   0.83640   0.00000  Uiso   1.00
C719   C     0.19158   0.19773   0.90766   0.00000  Uiso   1.00
C720   C     0.14175   0.13561   0.59234   0.00000  Uiso   1.00
C721   C     0.16716   0.16660   0.88421   0.00000  Uiso   1.00
C722   C     0.16617   0.16674   0.61579   0.00000  Uiso   1.00
C723   C     0.14320   0.13505   0.90617   0.00000  Uiso   1.00
C724   C     0.19013   0.19828   0.59383   0.00000  Uiso   1.00
C725   C     0.14274   0.13496   0.95247   0.00000  Uiso   1.00
C726   C     0.19060   0.19838   0.54753   0.00000  Uiso   1.00
C727   C     0.16699   0.16666   0.97670   0.00000  Uiso   1.00
C728   C     0.16634   0.16667   0.52330   0.00000  Uiso   1.00
C729   C     0.19189   0.19827   0.95421   0.00000  Uiso   1.00
C730   C     0.14144   0.13506   0.54579   0.00000  Uiso   1.00
C731   C     0.11814   0.10382   0.97464   0.00000  Uiso   1.00
C732   C     0.21519   0.22952   0.52536   0.00000  Uiso   1.00
H733   H     0.21076   0.22084   0.88935   0.00000  Uiso   1.00
H734   H     0.12258   0.11250   0.61065   0.00000  Uiso   1.00
H735   H     0.12444   0.11112   0.88707   0.00000  Uiso   1.00
H736   H     0.20889   0.22222   0.61293   0.00000  Uiso   1.00
H737   H     0.09958   0.07980   0.95550   0.00000  Uiso   1.00
H738   H     0.23375   0.25353   0.54450   0.00000  Uiso   1.00
N739   N     0.16667   0.28573   0.75000   0.00000  Uiso   1.00
N740   N     0.16667   0.04760   0.75000   0.00000  Uiso   1.00
O741   O     0.10559   0.20487   0.75000   0.00000  Uiso   1.00
O742   O     0.22774   0.12846   0.75001   0.00000  Uiso   1.00
O743   O     0.22774   0.20487   0.75001   0.00000  Uiso   1.00
O744   O     0.10559   0.12846   0.75000   0.00000  Uiso   1.00
O745   O     0.16666   0.20489   0.68393   0.00000  Uiso   1.00
O746   O     0.16667   0.12844   0.81608   0.00000  Uiso   1.00
O747   O     0.16667   0.20489   0.81608   0.00000  Uiso   1.00
O748   O     0.16666   0.12844   0.68393   0.00000  Uiso   1.00
Zn749  Zn    0.16667   0.21771   0.75000   0.00000  Uiso   1.00
Zn750  Zn    0.16667   0.11563   0.75000   0.00000  Uiso   1.00
N751   N     0.09158   0.07165   0.54410   0.00000  Uiso   1.00
H752   H     0.07879   0.04849   0.52135   0.00000  Uiso   1.00
H753   H     0.06619   0.08896   0.55759   0.00000  Uiso   1.00
N754   N     0.24175   0.26168   0.95590   0.00000  Uiso   1.00
H755   H     0.25453   0.28485   0.97865   0.00000  Uiso   1.00
H756   H     0.26714   0.24437   0.94242   0.00000  Uiso   1.00
N757   N     0.04385   0.14291   0.67122   0.00000  Uiso   1.00
H758   H     0.03475   0.16479   0.64558   0.00000  Uiso   1.00
H759   H     0.03524   0.11061   0.66145   0.00000  Uiso   1.00
N760   N     0.28948   0.19042   0.82878   0.00000  Uiso   1.00
H761   H     0.29859   0.16854   0.85442   0.00000  Uiso   1.00
H762   H     0.29809   0.22272   0.83855   0.00000  Uiso   1.00
N763   N     0.28824   0.14268   0.66994   0.00000  Uiso   1.00
H764   H     0.26970   0.11473   0.67611   0.00000  Uiso   1.00
H765   H     0.26843   0.16925   0.66106   0.00000  Uiso   1.00
N766   N     0.04509   0.19065   0.83006   0.00000  Uiso   1.00
H767   H     0.06363   0.21860   0.82389   0.00000  Uiso   1.00
H768   H     0.06490   0.16408   0.83894   0.00000  Uiso   1.00
N769   N     0.21090   0.04572   0.81809   0.00000  Uiso   1.00
H770   H     0.22898   0.07153   0.80559   0.00000  Uiso   1.00
H771   H     0.18927   0.05764   0.84103   0.00000  Uiso   1.00
N772   N     0.12243   0.28762   0.68191   0.00000  Uiso   1.00
H773   H     0.10436   0.26180   0.69441   0.00000  Uiso   1.00
H774   H     0.14407   0.27569   0.65897   0.00000  Uiso   1.00
N775   N     0.12326   0.04527   0.68145   0.00000  Uiso   1.00
H776   H     0.10559   0.07180   0.69349   0.00000  Uiso   1.00
H777   H     0.14569   0.05626   0.65911   0.00000  Uiso   1.00
N778   N     0.21008   0.28806   0.81855   0.00000  Uiso   1.00
H779   H     0.22775   0.26154   0.80651   0.00000  Uiso   1.00
H780   H     0.18764   0.27707   0.84089   0.00000  Uiso   1.00
C781   C     0.42033   0.16672   0.75021   0.00000  Uiso   1.00
C782   C     0.57967   0.16661   0.74979   0.00000  Uiso   1.00
C783   C     0.45041   0.10364   0.52139   0.00000  Uiso   1.00
C784   C     0.54959   0.22970   0.97861   0.00000  Uiso   1.00
C785   C     0.35456   0.15451   0.71075   0.00000  Uiso   1.00
C786   C     0.64544   0.17883   0.78925   0.00000  Uiso   1.00
C787   C     0.64437   0.15433   0.71041   0.00000  Uiso   1.00
C788   C     0.35562   0.17900   0.78959   0.00000  Uiso   1.00
C789   C     0.62385   0.16651   0.74978   0.00000  Uiso   1.00
C790   C     0.37615   0.16683   0.75022   0.00000  Uiso   1.00
C791   C     0.52180   0.02376   0.78230   0.00000  Uiso   1.00
C792   C     0.47820   0.30957   0.71771   0.00000  Uiso   1.00
C793   C     0.47826   0.02355   0.71769   0.00000  Uiso   1.00
C794   C     0.52174   0.30978   0.78231   0.00000  Uiso   1.00
C795   C     0.49975   0.16663   0.66360   0.00000  Uiso   1.00
C796   C     0.50025   0.16670   0.83640   0.00000  Uiso   1.00
C797   C     0.52492   0.19773   0.90766   0.00000  Uiso   1.00
C798   C     0.47508   0.13561   0.59234   0.00000  Uiso   1.00
C799   C     0.50050   0.16660   0.88421   0.00000  Uiso   1.00
C800   C     0.49950   0.16674   0.61579   0.00000  Uiso   1.00
C801   C     0.47653   0.13505   0.90617   0.00000  Uiso   1.00
C802   C     0.52346   0.19828   0.59383   0.00000  Uiso   1.00
C803   C     0.47607   0.13496   0.95247   0.00000  Uiso   1.00
C804   C     0.52393   0.19838   0.54753   0.00000  Uiso   1.00
C805   C     0.50032   0.16666   0.97670   0.00000  Uiso   1.00
C806   C     0.49967   0.16667   0.52330   0.00000  Uiso   1.00
C807   C     0.52522   0.19827   0.95421   0.00000  Uiso   1.00
C808   C     0.47478   0.13506   0.54579   0.00000  Uiso   1.00
C809   C     0.45148   0.10382   0.97464   0.00000  Uiso   1.00
C810   C     0.54852   0.22952   0.52536   0.00000  Uiso   1.00
H811   H     0.54409   0.22084   0.88935   0.00000  Uiso   1.00
H812   H     0.45591   0.11250   0.61065   0.00000  Uiso   1.00
H813   H     0.45777   0.11112   0.88707   0.00000  Uiso   1.00
H814   H     0.54223   0.22222   0.61293   0.00000  Uiso   1.00
H815   H     0.43292   0.07980   0.95550   0.00000  Uiso   1.00
H816   H     0.56708   0.25353   0.54450   0.00000  Uiso   1.00
N817   N     0.50000   0.28573   0.75000   0.00000  Uiso   1.00
N818   N     0.50000   0.04760   0.75000   0.00000  Uiso   1.00
O819   O     0.43892   0.20487   0.75000   0.00000  Uiso   1.00
O820   O     0.56108   0.12846   0.75001   0.00000  Uiso   1.00
O821   O     0.56108   0.20487   0.75001   0.00000  Uiso   1.00
O822   O     0.43892   0.12846   0.75000   0.00000  Uiso   1.00
O823   O     0.49999   0.20489   0.68393   0.00000  Uiso   1.00
O824   O     0.50001   0.12844   0.81608   0.00000  Uiso   1.00
O825   O     0.50001   0.20489   0.81608   0.00000  Uiso   1.00
O826   O     0.49999   0.12844   0.68393   0.00000  Uiso   1.00
Zn827  Zn    0.50000   0.21771   0.75000   0.00000  Uiso   1.00
Zn828  Zn    0.50000   0.11563   0.75000   0.00000  Uiso   1.00
N829   N     0.42491   0.07165   0.54410   0.00000  Uiso   1.00
H830   H     0.41212   0.04849   0.52135   0.00000  Uiso   1.00
H831   H     0.39953   0.08896   0.55759   0.00000  Uiso   1.00
N832   N     0.57508   0.26168   0.95590   0.00000  Uiso   1.00
H833   H     0.58787   0.28485   0.97865   0.00000  Uiso   1.00
H834   H     0.60047   0.24437   0.94242   0.00000  Uiso   1.00
N835   N     0.37719   0.14291   0.67122   0.00000  Uiso   1.00
H836   H     0.36808   0.16479   0.64558   0.00000  Uiso   1.00
H837   H     0.36858   0.11061   0.66145   0.00000  Uiso   1.00
N838   N     0.62281   0.19042   0.82878   0.00000  Uiso   1.00
H839   H     0.63192   0.16854   0.85442   0.00000  Uiso   1.00
H840   H     0.63143   0.22272   0.83855   0.00000  Uiso   1.00
N841   N     0.62158   0.14268   0.66994   0.00000  Uiso   1.00
H842   H     0.60304   0.11473   0.67611   0.00000  Uiso   1.00
H843   H     0.60176   0.16925   0.66106   0.00000  Uiso   1.00
N844   N     0.37842   0.19065   0.83006   0.00000  Uiso   1.00
H845   H     0.39696   0.21860   0.82389   0.00000  Uiso   1.00
H846   H     0.39824   0.16408   0.83894   0.00000  Uiso   1.00
N847   N     0.54424   0.04572   0.81809   0.00000  Uiso   1.00
H848   H     0.56231   0.07153   0.80559   0.00000  Uiso   1.00
H849   H     0.52260   0.05764   0.84103   0.00000  Uiso   1.00
N850   N     0.45576   0.28762   0.68191   0.00000  Uiso   1.00
H851   H     0.43769   0.26180   0.69441   0.00000  Uiso   1.00
H852   H     0.47740   0.27569   0.65897   0.00000  Uiso   1.00
N853   N     0.45659   0.04527   0.68145   0.00000  Uiso   1.00
H854   H     0.43892   0.07180   0.69349   0.00000  Uiso   1.00
H855   H     0.47902   0.05626   0.65911   0.00000  Uiso   1.00
N856   N     0.54341   0.28806   0.81855   0.00000  Uiso   1.00
H857   H     0.56108   0.26154   0.80651   0.00000  Uiso   1.00
H858   H     0.52098   0.27707   0.84089   0.00000  Uiso   1.00
C859   C     0.75366   0.16672   0.75021   0.00000  Uiso   1.00
C860   C     0.91300   0.16661   0.74979   0.00000  Uiso   1.00
C861   C     0.78374   0.10364   0.52139   0.00000  Uiso   1.00
C862   C     0.88292   0.22970   0.97861   0.00000  Uiso   1.00
C863   C     0.68789   0.15451   0.71075   0.00000  Uiso   1.00
C864   C     0.97877   0.17883   0.78925   0.00000  Uiso   1.00
C865   C     0.97771   0.15433   0.71041   0.00000  Uiso   1.00
C866   C     0.68896   0.17900   0.78959   0.00000  Uiso   1.00
C867   C     0.95718   0.16651   0.74978   0.00000  Uiso   1.00
C868   C     0.70948   0.16683   0.75022   0.00000  Uiso   1.00
C869   C     0.85514   0.02376   0.78230   0.00000  Uiso   1.00
C870   C     0.81153   0.30957   0.71771   0.00000  Uiso   1.00
C871   C     0.81159   0.02355   0.71769   0.00000  Uiso   1.00
C872   C     0.85507   0.30978   0.78231   0.00000  Uiso   1.00
C873   C     0.83309   0.16663   0.66360   0.00000  Uiso   1.00
C874   C     0.83358   0.16670   0.83640   0.00000  Uiso   1.00
C875   C     0.85825   0.19773   0.90766   0.00000  Uiso   1.00
C876   C     0.80841   0.13561   0.59234   0.00000  Uiso   1.00
C877   C     0.83383   0.16660   0.88421   0.00000  Uiso   1.00
C878   C     0.83284   0.16674   0.61579   0.00000  Uiso   1.00
C879   C     0.80987   0.13505   0.90617   0.00000  Uiso   1.00
C880   C     0.85680   0.19828   0.59383   0.00000  Uiso   1.00
C881   C     0.80940   0.13496   0.95247   0.00000  Uiso   1.00
C882   C     0.85726   0.19838   0.54753   0.00000  Uiso   1.00
C883   C     0.83366   0.16666   0.97670   0.00000  Uiso   1.00
C884   C     0.83301   0.16667   0.52330   0.00000  Uiso   1.00
C885   C     0.85855   0.19827   0.95421   0.00000  Uiso   1.00
C886   C     0.80811   0.13506   0.54579   0.00000  Uiso   1.00
C887   C     0.78481   0.10382   0.97464   0.00000  Uiso   1.00
C888   C     0.88185   0.22952   0.52536   0.00000  Uiso   1.00
H889   H     0.87742   0.22084   0.88935   0.00000  Uiso   1.00
H890   H     0.78924   0.11250   0.61065   0.00000  Uiso   1.00
H891   H     0.79110   0.11112   0.88707   0.00000  Uiso   1.00
H892   H     0.87556   0.22222   0.61293   0.00000  Uiso   1.00
H893   H     0.76625   0.07980   0.95550   0.00000  Uiso   1.00
H894   H     0.90041   0.25353   0.54450   0.00000  Uiso   1.00
N895   N     0.83333   0.28573   0.75000   0.00000  Uiso   1.00
N896   N     0.83333   0.04760   0.75000   0.00000  Uiso   1.00
O897   O     0.77226   0.20487   0.75000   0.00000  Uiso   1.00
O898   O     0.89441   0.12846   0.75001   0.00000  Uiso   1.00
O899   O     0.89441   0.20487   0.75001   0.00000  Uiso   1.00
O900   O     0.77226   0.12846   0.75000   0.00000  Uiso   1.00
O901   O     0.83333   0.20489   0.68393   0.00000  Uiso   1.00
O902   O     0.83334   0.12844   0.81608   0.00000  Uiso   1.00
O903   O     0.83334   0.20489   0.81608   0.00000  Uiso   1.00
O904   O     0.83333   0.12844   0.68393   0.00000  Uiso   1.00
Zn905  Zn    0.83333   0.21771   0.75000   0.00000  Uiso   1.00
Zn906  Zn    0.83333   0.11563   0.75000   0.00000  Uiso   1.00
N907   N     0.75825   0.07165   0.54410   0.00000  Uiso   1.00
H908   H     0.74546   0.04849   0.52135   0.00000  Uiso   1.00
H909   H     0.73286   0.08896   0.55759   0.00000  Uiso   1.00
N910   N     0.90842   0.26168   0.95590   0.00000  Uiso   1.00
H911   H     0.92120   0.28485   0.97865   0.00000  Uiso   1.00
H912   H     0.93381   0.24437   0.94242   0.00000  Uiso   1.00
N913   N     0.71052   0.14291   0.67122   0.00000  Uiso   1.00
H914   H     0.70141   0.16479   0.64558   0.00000  Uiso   1.00
H915   H     0.70191   0.11061   0.66145   0.00000  Uiso   1.00
N916   N     0.95615   0.19042   0.82878   0.00000  Uiso   1.00
H917   H     0.96525   0.16854   0.85442   0.00000  Uiso   1.00
H918   H     0.96476   0.22272   0.83855   0.00000  Uiso   1.00
N919   N     0.95491   0.14268   0.66994   0.00000  Uiso   1.00
H920   H     0.93637   0.11473   0.67611   0.00000  Uiso   1.00
H921   H     0.93510   0.16925   0.66106   0.00000  Uiso   1.00
N922   N     0.71176   0.19065   0.83006   0.00000  Uiso   1.00
H923   H     0.73030   0.21860   0.82389   0.00000  Uiso   1.00
H924   H     0.73157   0.16408   0.83894   0.00000  Uiso   1.00
N925   N     0.87757   0.04572   0.81809   0.00000  Uiso   1.00
H926   H     0.89564   0.07153   0.80559   0.00000  Uiso   1.00
H927   H     0.85593   0.05764   0.84103   0.00000  Uiso   1.00
N928   N     0.78910   0.28762   0.68191   0.00000  Uiso   1.00
H929   H     0.77102   0.26180   0.69441   0.00000  Uiso   1.00
H930   H     0.81073   0.27569   0.65897   0.00000  Uiso   1.00
N931   N     0.78992   0.04527   0.68145   0.00000  Uiso   1.00
H932   H     0.77225   0.07180   0.69349   0.00000  Uiso   1.00
H933   H     0.81236   0.05626   0.65911   0.00000  Uiso   1.00
N934   N     0.87674   0.28806   0.81855   0.00000  Uiso   1.00
H935   H     0.89441   0.26154   0.80651   0.00000  Uiso   1.00
H936   H     0.85431   0.27707   0.84089   0.00000  Uiso   1.00
C937   C     0.08700   0.50006   0.75021   0.00000  Uiso   1.00
C938   C     0.24633   0.49995   0.74979   0.00000  Uiso   1.00
C939   C     0.11707   0.43697   0.52139   0.00000  Uiso   1.00
C940   C     0.21626   0.56303   0.97861   0.00000  Uiso   1.00
C941   C     0.02123   0.48784   0.71075   0.00000  Uiso   1.00
C942   C     0.31211   0.51216   0.78925   0.00000  Uiso   1.00
C943   C     0.31104   0.48767   0.71041   0.00000  Uiso   1.00
C944   C     0.02229   0.51233   0.78959   0.00000  Uiso   1.00
C945   C     0.29052   0.49984   0.74978   0.00000  Uiso   1.00
C946   C     0.04282   0.50016   0.75022   0.00000  Uiso   1.00
C947   C     0.18847   0.35710   0.78230   0.00000  Uiso   1.00
C948   C     0.14486   0.64291   0.71771   0.00000  Uiso   1.00
C949   C     0.14493   0.35688   0.71769   0.00000  Uiso   1.00
C950   C     0.18841   0.64312   0.78231   0.00000  Uiso   1.00
C951   C     0.16642   0.49997   0.66360   0.00000  Uiso   1.00
C952   C     0.16691   0.50003   0.83640   0.00000  Uiso   1.00
C953   C     0.19158   0.53106   0.90766   0.00000  Uiso   1.00
C954   C     0.14175   0.46894   0.59234   0.00000  Uiso   1.00
C955   C     0.16716   0.49993   0.88421   0.00000  Uiso   1.00
C956   C     0.16617   0.50007   0.61579   0.00000  Uiso   1.00
C957   C     0.14320   0.46838   0.90617   0.00000  Uiso   1.00
C958   C     0.19013   0.53162   0.59383   0.00000  Uiso   1.00
C959   C     0.14274   0.46829   0.95247   0.00000  Uiso   1.00
C960   C     0.19060   0.53171   0.54753   0.00000  Uiso   1.00
C961   C     0.16699   0.50000   0.97670   0.00000  Uiso   1.00
C962   C     0.16634   0.50001   0.52330   0.00000  Uiso   1.00
C963   C     0.19189   0.53161   0.95421   0.00000  Uiso   1.00
C964   C     0.14144   0.46839   0.54579   0.00000  Uiso   1.00
C965   C     0.11814   0.43715   0.97464   0.00000  Uiso   1.00
C966   C     0.21519   0.56285   0.52536   0.00000  Uiso   1.00
H967   H     0.21076   0.55417   0.88935   0.00000  Uiso   1.00
H968   H     0.12258   0.44583   0.61065   0.00000  Uiso   1.00
H969   H     0.12444   0.44445   0.88707   0.00000  Uiso   1.00
H970   H     0.20889   0.55555   0.61293   0.00000  Uiso   1.00
H971   H     0.09958   0.41314   0.95550   0.00000  Uiso   1.00
H972   H     0.23375   0.58686   0.54450   0.00000  Uiso   1.00
N973   N     0.16667   0.61907   0.75000   0.00000  Uiso   1.00
N974   N     0.16667   0.38093   0.75000   0.00000  Uiso   1.00
O975   O     0.10559   0.53821   0.75000   0.00000  Uiso   1.00
O976   O     0.22774   0.46179   0.75001   0.00000  Uiso   1.00
O977   O     0.22774   0.53821   0.75001   0.00000  Uiso   1.00
O978   O     0.10559   0.46179   0.75000   0.00000  Uiso   1.00
O979   O     0.16666   0.53823   0.68393   0.00000  Uiso   1.00
O980   O     0.16667   0.46177   0.81608   0.00000  Uiso   1.00
O981   O     0.16667   0.53823   0.81608   0.00000  Uiso   1.00
O982   O     0.16666   0.46177   0.68393   0.00000  Uiso   1.00
Zn983  Zn    0.16667   0.55104   0.75000   0.00000  Uiso   1.00
Zn984  Zn    0.16667   0.44896   0.75000   0.00000  Uiso   1.00
N985   N     0.09158   0.40499   0.54410   0.00000  Uiso   1.00
H986   H     0.07879   0.38183   0.52135   0.00000  Uiso   1.00
H987   H     0.06619   0.42229   0.55759   0.00000  Uiso   1.00
N988   N     0.24175   0.59501   0.95590   0.00000  Uiso   1.00
H989   H     0.25453   0.61818   0.97865   0.00000  Uiso   1.00
H990   H     0.26714   0.57771   0.94242   0.00000  Uiso   1.00
N991   N     0.04385   0.47625   0.67122   0.00000  Uiso   1.00
H992   H     0.03475   0.49813   0.64558   0.00000  Uiso   1.00
H993   H     0.03524   0.44394   0.66145   0.00000  Uiso   1.00
N994   N     0.28948   0.52375   0.82878   0.00000  Uiso   1.00
H995   H     0.29859   0.50187   0.85442   0.00000  Uiso   1.00
H996   H     0.29809   0.55606   0.83855   0.00000  Uiso   1.00
N997   N     0.28824   0.47602   0.66994   0.00000  Uiso   1.00
H998   H     0.26970   0.44806   0.67611   0.00000  Uiso   1.00
H999   H     0.26843   0.50259   0.66106   0.00000  Uiso   1.00
N1000  N     0.04509   0.52398   0.83006   0.00000  Uiso   1.00
H1001  H     0.06363   0.55194   0.82389   0.00000  Uiso   1.00
H1002  H     0.06490   0.49741   0.83894   0.00000  Uiso   1.00
N1003  N     0.21090   0.37905   0.81809   0.00000  Uiso   1.00
H1004  H     0.22898   0.40486   0.80559   0.00000  Uiso   1.00
H1005  H     0.18927   0.39097   0.84103   0.00000  Uiso   1.00
N1006  N     0.12243   0.62095   0.68191   0.00000  Uiso   1.00
H1007  H     0.10436   0.59514   0.69441   0.00000  Uiso   1.00
H1008  H     0.14407   0.60903   0.65897   0.00000  Uiso   1.00
N1009  N     0.12326   0.37861   0.68145   0.00000  Uiso   1.00
H1010  H     0.10559   0.40513   0.69349   0.00000  Uiso   1.00
H1011  H     0.14569   0.38959   0.65911   0.00000  Uiso   1.00
N1012  N     0.21008   0.62140   0.81855   0.00000  Uiso   1.00
H1013  H     0.22775   0.59487   0.80651   0.00000  Uiso   1.00
H1014  H     0.18764   0.61041   0.84089   0.00000  Uiso   1.00
C1015  C     0.42033   0.50006   0.75021   0.00000  Uiso   1.00
C1016  C     0.57967   0.49995   0.74979   0.00000  Uiso   1.00
C1017  C     0.45041   0.43697   0.52139   0.00000  Uiso   1.00
C1018  C     0.54959   0.56303   0.97861   0.00000  Uiso   1.00
C1019  C     0.35456   0.48784   0.71075   0.00000  Uiso   1.00
C1020  C     0.64544   0.51216   0.78925   0.00000  Uiso   1.00
C1021  C     0.64437   0.48767   0.71041   0.00000  Uiso   1.00
C1022  C     0.35562   0.51233   0.78959   0.00000  Uiso   1.00
C1023  C     0.62385   0.49984   0.74978   0.00000  Uiso   1.00
C1024  C     0.37615   0.50016   0.75022   0.00000  Uiso   1.00
C1025  C     0.52180   0.35710   0.78230   0.00000  Uiso   1.00
C1026  C     0.47820   0.64291   0.71771   0.00000  Uiso   1.00
C1027  C     0.47826   0.35688   0.71769   0.00000  Uiso   1.00
C1028  C     0.52174   0.64312   0.78231   0.00000  Uiso   1.00
C1029  C     0.49975   0.49997   0.66360   0.00000  Uiso   1.00
C1030  C     0.50025   0.50003   0.83640   0.00000  Uiso   1.00
C1031  C     0.52492   0.53106   0.90766   0.00000  Uiso   1.00
C1032  C     0.47508   0.46894   0.59234   0.00000  Uiso   1.00
C1033  C     0.50050   0.49993   0.88421   0.00000  Uiso   1.00
C1034  C     0.49950   0.50007   0.61579   0.00000  Uiso   1.00
C1035  C     0.47653   0.46838   0.90617   0.00000  Uiso   1.00
C1036  C     0.52346   0.53162   0.59383   0.00000  Uiso   1.00
C1037  C     0.47607   0.46829   0.95247   0.00000  Uiso   1.00
C1038  C     0.52393   0.53171   0.54753   0.00000  Uiso   1.00
C1039  C     0.50032   0.50000   0.97670   0.00000  Uiso   1.00
C1040  C     0.49967   0.50001   0.52330   0.00000  Uiso   1.00
C1041  C     0.52522   0.53161   0.95421   0.00000  Uiso   1.00
C1042  C     0.47478   0.46839   0.54579   0.00000  Uiso   1.00
C1043  C     0.45148   0.43715   0.97464   0.00000  Uiso   1.00
C1044  C     0.54852   0.56285   0.52536   0.00000  Uiso   1.00
H1045  H     0.54409   0.55417   0.88935   0.00000  Uiso   1.00
H1046  H     0.45591   0.44583   0.61065   0.00000  Uiso   1.00
H1047  H     0.45777   0.44445   0.88707   0.00000  Uiso   1.00
H1048  H     0.54223   0.55555   0.61293   0.00000  Uiso   1.00
H1049  H     0.43292   0.41314   0.95550   0.00000  Uiso   1.00
H1050  H     0.56708   0.58686   0.54450   0.00000  Uiso   1.00
N1051  N     0.50000   0.61907   0.75000   0.00000  Uiso   1.00
N1052  N     0.50000   0.38093   0.75000   0.00000  Uiso   1.00
O1053  O     0.43892   0.53821   0.75000   0.00000  Uiso   1.00
O1054  O     0.56108   0.46179   0.75001   0.00000  Uiso   1.00
O1055  O     0.56108   0.53821   0.75001   0.00000  Uiso   1.00
O1056  O     0.43892   0.46179   0.75000   0.00000  Uiso   1.00
O1057  O     0.49999   0.53823   0.68393   0.00000  Uiso   1.00
O1058  O     0.50001   0.46177   0.81608   0.00000  Uiso   1.00
O1059  O     0.50001   0.53823   0.81608   0.00000  Uiso   1.00
O1060  O     0.49999   0.46177   0.68393   0.00000  Uiso   1.00
Zn1061 Zn    0.50000   0.55104   0.75000   0.00000  Uiso   1.00
Zn1062 Zn    0.50000   0.44896   0.75000   0.00000  Uiso   1.00
N1063  N     0.42491   0.40499   0.54410   0.00000  Uiso   1.00
H1064  H     0.41212   0.38183   0.52135   0.00000  Uiso   1.00
H1065  H     0.39953   0.42229   0.55759   0.00000  Uiso   1.00
N1066  N     0.57508   0.59501   0.95590   0.00000  Uiso   1.00
H1067  H     0.58787   0.61818   0.97865   0.00000  Uiso   1.00
H1068  H     0.60047   0.57771   0.94242   0.00000  Uiso   1.00
N1069  N     0.37719   0.47625   0.67122   0.00000  Uiso   1.00
H1070  H     0.36808   0.49813   0.64558   0.00000  Uiso   1.00
H1071  H     0.36858   0.44394   0.66145   0.00000  Uiso   1.00
N1072  N     0.62281   0.52375   0.82878   0.00000  Uiso   1.00
H1073  H     0.63192   0.50187   0.85442   0.00000  Uiso   1.00
H1074  H     0.63143   0.55606   0.83855   0.00000  Uiso   1.00
N1075  N     0.62158   0.47602   0.66994   0.00000  Uiso   1.00
H1076  H     0.60304   0.44806   0.67611   0.00000  Uiso   1.00
H1077  H     0.60176   0.50259   0.66106   0.00000  Uiso   1.00
N1078  N     0.37842   0.52398   0.83006   0.00000  Uiso   1.00
H1079  H     0.39696   0.55194   0.82389   0.00000  Uiso   1.00
H1080  H     0.39824   0.49741   0.83894   0.00000  Uiso   1.00
N1081  N     0.54424   0.37905   0.81809   0.00000  Uiso   1.00
H1082  H     0.56231   0.40486   0.80559   0.00000  Uiso   1.00
H1083  H     0.52260   0.39097   0.84103   0.00000  Uiso   1.00
N1084  N     0.45576   0.62095   0.68191   0.00000  Uiso   1.00
H1085  H     0.43769   0.59514   0.69441   0.00000  Uiso   1.00
H1086  H     0.47740   0.60903   0.65897   0.00000  Uiso   1.00
N1087  N     0.45659   0.37861   0.68145   0.00000  Uiso   1.00
H1088  H     0.43892   0.40513   0.69349   0.00000  Uiso   1.00
H1089  H     0.47902   0.38959   0.65911   0.00000  Uiso   1.00
N1090  N     0.54341   0.62140   0.81855   0.00000  Uiso   1.00
H1091  H     0.56108   0.59487   0.80651   0.00000  Uiso   1.00
H1092  H     0.52098   0.61041   0.84089   0.00000  Uiso   1.00
C1093  C     0.75366   0.50006   0.75021   0.00000  Uiso   1.00
C1094  C     0.91300   0.49995   0.74979   0.00000  Uiso   1.00
C1095  C     0.78374   0.43697   0.52139   0.00000  Uiso   1.00
C1096  C     0.88292   0.56303   0.97861   0.00000  Uiso   1.00
C1097  C     0.68789   0.48784   0.71075   0.00000  Uiso   1.00
C1098  C     0.97877   0.51216   0.78925   0.00000  Uiso   1.00
C1099  C     0.97771   0.48767   0.71041   0.00000  Uiso   1.00
C1100  C     0.68896   0.51233   0.78959   0.00000  Uiso   1.00
C1101  C     0.95718   0.49984   0.74978   0.00000  Uiso   1.00
C1102  C     0.70948   0.50016   0.75022   0.00000  Uiso   1.00
C1103  C     0.85514   0.35710   0.78230   0.00000  Uiso   1.00
C1104  C     0.81153   0.64291   0.71771   0.00000  Uiso   1.00
C1105  C     0.81159   0.35688   0.71769   0.00000  Uiso   1.00
C1106  C     0.85507   0.64312   0.78231   0.00000  Uiso   1.00
C1107  C     0.83309   0.49997   0.66360   0.00000  Uiso   1.00
C1108  C     0.83358   0.50003   0.83640   0.00000  Uiso   1.00
C1109  C     0.85825   0.53106   0.90766   0.00000  Uiso   1.00
C1110  C     0.80841   0.46894   0.59234   0.00000  Uiso   1.00
C1111  C     0.83383   0.49993   0.88421   0.00000  Uiso   1.00
C1112  C     0.83284   0.50007   0.61579   0.00000  Uiso   1.00
C1113  C     0.80987   0.46838   0.90617   0.00000  Uiso   1.00
C1114  C     0.85680   0.53162   0.59383   0.00000  Uiso   1.00
C1115  C     0.80940   0.46829   0.95247   0.00000  Uiso   1.00
C1116  C     0.85726   0.53171   0.54753   0.00000  Uiso   1.00
C1117  C     0.83366   0.50000   0.97670   0.00000  Uiso   1.00
C1118  C     0.83301   0.50001   0.52330   0.00000  Uiso   1.00
C1119  C     0.85855   0.53161   0.95421   0.00000  Uiso   1.00
C1120  C     0.80811   0.46839   0.54579   0.00000  Uiso   1.00
C1121  C     0.78481   0.43715   0.97464   0.00000  Uiso   1.00
C1122  C     0.88185   0.56285   0.52536   0.00000  Uiso   1.00
H1123  H     0.87742   0.55417   0.88935   0.00000  Uiso   1.00
H1124  H     0.78924   0.44583   0.61065   0.00000  Uiso   1.00
H1125  H     0.79110   0.44445   0.88707   0.00000  Uiso   1.00
H1126  H     0.87556   0.55555   0.61293   0.00000  Uiso   1.00
H1127  H     0.76625   0.41314   0.95550   0.00000  Uiso   1.00
H1128  H     0.90041   0.58686   0.54450   0.00000  Uiso   1.00
N1129  N     0.83333   0.61907   0.75000   0.00000  Uiso   1.00
N1130  N     0.83333   0.38093   0.75000   0.00000  Uiso   1.00
O1131  O     0.77226   0.53821   0.75000   0.00000  Uiso   1.00
O1132  O     0.89441   0.46179   0.75001   0.00000  Uiso   1.00
O1133  O     0.89441   0.53821   0.75001   0.00000  Uiso   1.00
O1134  O     0.77226   0.46179   0.75000   0.00000  Uiso   1.00
O1135  O     0.83333   0.53823   0.68393   0.00000  Uiso   1.00
O1136  O     0.83334   0.46177   0.81608   0.00000  Uiso   1.00
O1137  O     0.83334   0.53823   0.81608   0.00000  Uiso   1.00
O1138  O     0.83333   0.46177   0.68393   0.00000  Uiso   1.00
Zn1139 Zn    0.83333   0.55104   0.75000   0.00000  Uiso   1.00
Zn1140 Zn    0.83333   0.44896   0.75000   0.00000  Uiso   1.00
N1141  N     0.75825   0.40499   0.54410   0.00000  Uiso   1.00
H1142  H     0.74546   0.38183   0.52135   0.00000  Uiso   1.00
H1143  H     0.73286   0.42229   0.55759   0.00000  Uiso   1.00
N1144  N     0.90842   0.59501   0.95590   0.00000  Uiso   1.00
H1145  H     0.92120   0.61818   0.97865   0.00000  Uiso   1.00
H1146  H     0.93381   0.57771   0.94242   0.00000  Uiso   1.00
N1147  N     0.71052   0.47625   0.67122   0.00000  Uiso   1.00
H1148  H     0.70141   0.49813   0.64558   0.00000  Uiso   1.00
H1149  H     0.70191   0.44394   0.66145   0.00000  Uiso   1.00
N1150  N     0.95615   0.52375   0.82878   0.00000  Uiso   1.00
H1151  H     0.96525   0.50187   0.85442   0.00000  Uiso   1.00
H1152  H     0.96476   0.55606   0.83855   0.00000  Uiso   1.00
N1153  N     0.95491   0.47602   0.66994   0.00000  Uiso   1.00
H1154  H     0.93637   0.44806   0.67611   0.00000  Uiso   1.00
H1155  H     0.93510   0.50259   0.66106   0.00000  Uiso   1.00
N1156  N     0.71176   0.52398   0.83006   0.00000  Uiso   1.00
H1157  H     0.73030   0.55194   0.82389   0.00000  Uiso   1.00
H1158  H     0.73157   0.49741   0.83894   0.00000  Uiso   1.00
N1159  N     0.87757   0.37905   0.81809   0.00000  Uiso   1.00
H1160  H     0.89564   0.40486   0.80559   0.00000  Uiso   1.00
H1161  H     0.85593   0.39097   0.84103   0.00000  Uiso   1.00
N1162  N     0.78910   0.62095   0.68191   0.00000  Uiso   1.00
H1163  H     0.77102   0.59514   0.69441   0.00000  Uiso   1.00
H1164  H     0.81073   0.60903   0.65897   0.00000  Uiso   1.00
N1165  N     0.78992   0.37861   0.68145   0.00000  Uiso   1.00
H1166  H     0.77225   0.40513   0.69349   0.00000  Uiso   1.00
H1167  H     0.81236   0.38959   0.65911   0.00000  Uiso   1.00
N1168  N     0.87674   0.62140   0.81855   0.00000  Uiso   1.00
H1169  H     0.89441   0.59487   0.80651   0.00000  Uiso   1.00
H1170  H     0.85431   0.61041   0.84089   0.00000  Uiso   1.00
C1171  C     0.08700   0.83339   0.75021   0.00000  Uiso   1.00
C1172  C     0.24633   0.83328   0.74979   0.00000  Uiso   1.00
C1173  C     0.11707   0.77030   0.52139   0.00000  Uiso   1.00
C1174  C     0.21626   0.89636   0.97861   0.00000  Uiso   1.00
C1175  C     0.02123   0.82117   0.71075   0.00000  Uiso   1.00
C1176  C     0.31211   0.84549   0.78925   0.00000  Uiso   1.00
C1177  C     0.31104   0.82100   0.71041   0.00000  Uiso   1.00
C1178  C     0.02229   0.84567   0.78959   0.00000  Uiso   1.00
C1179  C     0.29052   0.83318   0.74978   0.00000  Uiso   1.00
C1180  C     0.04282   0.83349   0.75022   0.00000  Uiso   1.00
C1181  C     0.18847   0.69043   0.78230   0.00000  Uiso   1.00
C1182  C     0.14486   0.97624   0.71771   0.00000  Uiso   1.00
C1183  C     0.14493   0.69022   0.71769   0.00000  Uiso   1.00
C1184  C     0.18841   0.97645   0.78231   0.00000  Uiso   1.00
C1185  C     0.16642   0.83330   0.66360   0.00000  Uiso   1.00
C1186  C     0.16691   0.83337   0.83640   0.00000  Uiso   1.00
C1187  C     0.19158   0.86440   0.90766   0.00000  Uiso   1.00
C1188  C     0.14175   0.80227   0.59234   0.00000  Uiso   1.00
C1189  C     0.16716   0.83326   0.88421   0.00000  Uiso   1.00
C1190  C     0.16617   0.83340   0.61579   0.00000  Uiso   1.00
C1191  C     0.14320   0.80172   0.90617   0.00000  Uiso   1.00
C1192  C     0.19013   0.86495   0.59383   0.00000  Uiso   1.00
C1193  C     0.14274   0.80162   0.95247   0.00000  Uiso   1.00
C1194  C     0.19060   0.86505   0.54753   0.00000  Uiso   1.00
C1195  C     0.16699   0.83333   0.97670   0.00000  Uiso   1.00
C1196  C     0.16634   0.83334   0.52330   0.00000  Uiso   1.00
C1197  C     0.19189   0.86494   0.95421   0.00000  Uiso   1.00
C1198  C     0.14144   0.80173   0.54579   0.00000  Uiso   1.00
C1199  C     0.11814   0.77048   0.97464   0.00000  Uiso   1.00
C1200  C     0.21519   0.89618   0.52536   0.00000  Uiso   1.00
H1201  H     0.21076   0.88750   0.88935   0.00000  Uiso   1.00
H1202  H     0.12258   0.77916   0.61065   0.00000  Uiso   1.00
H1203  H     0.12444   0.77778   0.88707   0.00000  Uiso   1.00
H1204  H     0.20889   0.88889   0.61293   0.00000  Uiso   1.00
H1205  H     0.09958   0.74647   0.95550   0.00000  Uiso   1.00
H1206  H     0.23375   0.92020   0.54450   0.00000  Uiso   1.00
N1207  N     0.16667   0.95240   0.75000   0.00000  Uiso   1.00
N1208  N     0.16667   0.71427   0.75000   0.00000  Uiso   1.00
O1209  O     0.10559   0.87154   0.75000   0.00000  Uiso   1.00
O1210  O     0.22774   0.79513   0.75001   0.00000  Uiso   1.00
O1211  O     0.22774   0.87154   0.75001   0.00000  Uiso   1.00
O1212  O     0.10559   0.79513   0.75000   0.00000  Uiso   1.00
O1213  O     0.16666   0.87156   0.68393   0.00000  Uiso   1.00
O1214  O     0.16667   0.79511   0.81608   0.00000  Uiso   1.00
O1215  O     0.16667   0.87156   0.81608   0.00000  Uiso   1.00
O1216  O     0.16666   0.79511   0.68393   0.00000  Uiso   1.00
Zn1217 Zn    0.16667   0.88437   0.75000   0.00000  Uiso   1.00
Zn1218 Zn    0.16667   0.78229   0.75000   0.00000  Uiso   1.00
N1219  N     0.09158   0.73832   0.54410   0.00000  Uiso   1.00
H1220  H     0.07879   0.71516   0.52135   0.00000  Uiso   1.00
H1221  H     0.06619   0.75563   0.55759   0.00000  Uiso   1.00
N1222  N     0.24175   0.92835   0.95590   0.00000  Uiso   1.00
H1223  H     0.25453   0.95152   0.97865   0.00000  Uiso   1.00
H1224  H     0.26714   0.91104   0.94242   0.00000  Uiso   1.00
N1225  N     0.04385   0.80958   0.67122   0.00000  Uiso   1.00
H1226  H     0.03475   0.83146   0.64558   0.00000  Uiso   1.00
H1227  H     0.03524   0.77727   0.66145   0.00000  Uiso   1.00
N1228  N     0.28948   0.85709   0.82878   0.00000  Uiso   1.00
H1229  H     0.29859   0.83520   0.85442   0.00000  Uiso   1.00
H1230  H     0.29809   0.88939   0.83855   0.00000  Uiso   1.00
N1231  N     0.28824   0.80935   0.66994   0.00000  Uiso   1.00
H1232  H     0.26970   0.78140   0.67611   0.00000  Uiso   1.00
H1233  H     0.26843   0.83592   0.66106   0.00000  Uiso   1.00
N1234  N     0.04509   0.85732   0.83006   0.00000  Uiso   1.00
H1235  H     0.06363   0.88527   0.82389   0.00000  Uiso   1.00
H1236  H     0.06490   0.83074   0.83894   0.00000  Uiso   1.00
N1237  N     0.21090   0.71238   0.81809   0.00000  Uiso   1.00
H1238  H     0.22898   0.73820   0.80559   0.00000  Uiso   1.00
H1239  H     0.18927   0.72431   0.84103   0.00000  Uiso   1.00
N1240  N     0.12243   0.95428   0.68191   0.00000  Uiso   1.00
H1241  H     0.10436   0.92847   0.69441   0.00000  Uiso   1.00
H1242  H     0.14407   0.94236   0.65897   0.00000  Uiso   1.00
N1243  N     0.12326   0.71194   0.68145   0.00000  Uiso   1.00
H1244  H     0.10559   0.73846   0.69349   0.00000  Uiso   1.00
H1245  H     0.14569   0.72293   0.65911   0.00000  Uiso   1.00
N1246  N     0.21008   0.95473   0.81855   0.00000  Uiso   1.00
H1247  H     0.22775   0.92820   0.80651   0.00000  Uiso   1.00
H1248  H     0.18764   0.94374   0.84089   0.00000  Uiso   1.00
C1249  C     0.42033   0.83339   0.75021   0.00000  Uiso   1.00
C1250  C     0.57967   0.83328   0.74979   0.00000  Uiso   1.00
C1251  C     0.45041   0.77030   0.52139   0.00000  Uiso   1.00
C1252  C     0.54959   0.89636   0.97861   0.00000  Uiso   1.00
C1253  C     0.35456   0.82117   0.71075   0.00000  Uiso   1.00
C1254  C     0.64544   0.84549   0.78925   0.00000  Uiso   1.00
C1255  C     0.64437   0.82100   0.71041   0.00000  Uiso   1.00
C1256  C     0.35562   0.84567   0.78959   0.00000  Uiso   1.00
C1257  C     0.62385   0.83318   0.74978   0.00000  Uiso   1.00
C1258  C     0.37615   0.83349   0.75022   0.00000  Uiso   1.00
C1259  C     0.52180   0.69043   0.78230   0.00000  Uiso   1.00
C1260  C     0.47820   0.97624   0.71771   0.00000  Uiso   1.00
C1261  C     0.47826   0.69022   0.71769   0.00000  Uiso   1.00
C1262  C     0.52174   0.97645   0.78231   0.00000  Uiso   1.00
C1263  C     0.49975   0.83330   0.66360   0.00000  Uiso   1.00
C1264  C     0.50025   0.83337   0.83640   0.00000  Uiso   1.00
C1265  C     0.52492   0.86440   0.90766   0.00000  Uiso   1.00
C1266  C     0.47508   0.80227   0.59234   0.00000  Uiso   1.00
C1267  C     0.50050   0.83326   0.88421   0.00000  Uiso   1.00
C1268  C     0.49950   0.83340   0.61579   0.00000  Uiso   1.00
C1269  C     0.47653   0.80172   0.90617   0.00000  Uiso   1.00
C1270  C     0.52346   0.86495   0.59383   0.00000  Uiso   1.00
C1271  C     0.47607   0.80162   0.95247   0.00000  Uiso   1.00
C1272  C     0.52393   0.86505   0.54753   0.00000  Uiso   1.00
C1273  C     0.50032   0.83333   0.97670   0.00000  Uiso   1.00
C1274  C     0.49967   0.83334   0.52330   0.00000  Uiso   1.00
C1275  C     0.52522   0.86494   0.95421   0.00000  Uiso   1.00
C1276  C     0.47478   0.80173   0.54579   0.00000  Uiso   1.00
C1277  C     0.45148   0.77048   0.97464   0.00000  Uiso   1.00
C1278  C     0.54852   0.89618   0.52536   0.00000  Uiso   1.00
H1279  H     0.54409   0.88750   0.88935   0.00000  Uiso   1.00
H1280  H     0.45591   0.77916   0.61065   0.00000  Uiso   1.00
H1281  H     0.45777   0.77778   0.88707   0.00000  Uiso   1.00
H1282  H     0.54223   0.88889   0.61293   0.00000  Uiso   1.00
H1283  H     0.43292   0.74647   0.95550   0.00000  Uiso   1.00
H1284  H     0.56708   0.92020   0.54450   0.00000  Uiso   1.00
N1285  N     0.50000   0.95240   0.75000   0.00000  Uiso   1.00
N1286  N     0.50000   0.71427   0.75000   0.00000  Uiso   1.00
O1287  O     0.43892   0.87154   0.75000   0.00000  Uiso   1.00
O1288  O     0.56108   0.79513   0.75001   0.00000  Uiso   1.00
O1289  O     0.56108   0.87154   0.75001   0.00000  Uiso   1.00
O1290  O     0.43892   0.79513   0.75000   0.00000  Uiso   1.00
O1291  O     0.49999   0.87156   0.68393   0.00000  Uiso   1.00
O1292  O     0.50001   0.79511   0.81608   0.00000  Uiso   1.00
O1293  O     0.50001   0.87156   0.81608   0.00000  Uiso   1.00
O1294  O     0.49999   0.79511   0.68393   0.00000  Uiso   1.00
Zn1295 Zn    0.50000   0.88437   0.75000   0.00000  Uiso   1.00
Zn1296 Zn    0.50000   0.78229   0.75000   0.00000  Uiso   1.00
N1297  N     0.42491   0.73832   0.54410   0.00000  Uiso   1.00
H1298  H     0.41212   0.71516   0.52135   0.00000  Uiso   1.00
H1299  H     0.39953   0.75563   0.55759   0.00000  Uiso   1.00
N1300  N     0.57508   0.92835   0.95590   0.00000  Uiso   1.00
H1301  H     0.58787   0.95152   0.97865   0.00000  Uiso   1.00
H1302  H     0.60047   0.91104   0.94242   0.00000  Uiso   1.00
N1303  N     0.37719   0.80958   0.67122   0.00000  Uiso   1.00
H1304  H     0.36808   0.83146   0.64558   0.00000  Uiso   1.00
H1305  H     0.36858   0.77727   0.66145   0.00000  Uiso   1.00
N1306  N     0.62281   0.85709   0.82878   0.00000  Uiso   1.00
H1307  H     0.63192   0.83520   0.85442   0.00000  Uiso   1.00
H1308  H     0.63143   0.88939   0.83855   0.00000  Uiso   1.00
N1309  N     0.62158   0.80935   0.66994   0.00000  Uiso   1.00
H1310  H     0.60304   0.78140   0.67611   0.00000  Uiso   1.00
H1311  H     0.60176   0.83592   0.66106   0.00000  Uiso   1.00
N1312  N     0.37842   0.85732   0.83006   0.00000  Uiso   1.00
H1313  H     0.39696   0.88527   0.82389   0.00000  Uiso   1.00
H1314  H     0.39824   0.83074   0.83894   0.00000  Uiso   1.00
N1315  N     0.54424   0.71238   0.81809   0.00000  Uiso   1.00
H1316  H     0.56231   0.73820   0.80559   0.00000  Uiso   1.00
H1317  H     0.52260   0.72431   0.84103   0.00000  Uiso   1.00
N1318  N     0.45576   0.95428   0.68191   0.00000  Uiso   1.00
H1319  H     0.43769   0.92847   0.69441   0.00000  Uiso   1.00
H1320  H     0.47740   0.94236   0.65897   0.00000  Uiso   1.00
N1321  N     0.45659   0.71194   0.68145   0.00000  Uiso   1.00
H1322  H     0.43892   0.73846   0.69349   0.00000  Uiso   1.00
H1323  H     0.47902   0.72293   0.65911   0.00000  Uiso   1.00
N1324  N     0.54341   0.95473   0.81855   0.00000  Uiso   1.00
H1325  H     0.56108   0.92820   0.80651   0.00000  Uiso   1.00
H1326  H     0.52098   0.94374   0.84089   0.00000  Uiso   1.00
C1327  C     0.75366   0.83339   0.75021   0.00000  Uiso   1.00
C1328  C     0.91300   0.83328   0.74979   0.00000  Uiso   1.00
C1329  C     0.78374   0.77030   0.52139   0.00000  Uiso   1.00
C1330  C     0.88292   0.89636   0.97861   0.00000  Uiso   1.00
C1331  C     0.68789   0.82117   0.71075   0.00000  Uiso   1.00
C1332  C     0.97877   0.84549   0.78925   0.00000  Uiso   1.00
C1333  C     0.97771   0.82100   0.71041   0.00000  Uiso   1.00
C1334  C     0.68896   0.84567   0.78959   0.00000  Uiso   1.00
C1335  C     0.95718   0.83318   0.74978   0.00000  Uiso   1.00
C1336  C     0.70948   0.83349   0.75022   0.00000  Uiso   1.00
C1337  C     0.85514   0.69043   0.78230   0.00000  Uiso   1.00
C1338  C     0.81153   0.97624   0.71771   0.00000  Uiso   1.00
C1339  C     0.81159   0.69022   0.71769   0.00000  Uiso   1.00
C1340  C     0.85507   0.97645   0.78231   0.00000  Uiso   1.00
C1341  C     0.83309   0.83330   0.66360   0.00000  Uiso   1.00
C1342  C     0.83358   0.83337   0.83640   0.00000  Uiso   1.00
C1343  C     0.85825   0.86440   0.90766   0.00000  Uiso   1.00
C1344  C     0.80841   0.80227   0.59234   0.00000  Uiso   1.00
C1345  C     0.83383   0.83326   0.88421   0.00000  Uiso   1.00
C1346  C     0.83284   0.83340   0.61579   0.00000  Uiso   1.00
C1347  C     0.80987   0.80172   0.90617   0.00000  Uiso   1.00
C1348  C     0.85680   0.86495   0.59383   0.00000  Uiso   1.00
C1349  C     0.80940   0.80162   0.95247   0.00000  Uiso   1.00
C1350  C     0.85726   0.86505   0.54753   0.00000  Uiso   1.00
C1351  C     0.83366   0.83333   0.97670   0.00000  Uiso   1.00
C1352  C     0.83301   0.83334   0.52330   0.00000  Uiso   1.00
C1353  C     0.85855   0.86494   0.95421   0.00000  Uiso   1.00
C1354  C     0.80811   0.80173   0.54579   0.00000  Uiso   1.00
C1355  C     0.78481   0.77048   0.97464   0.00000  Uiso   1.00
C1356  C     0.88185   0.89618   0.52536   0.00000  Uiso   1.00
H1357  H     0.87742   0.88750   0.88935   0.00000  Uiso   1.00
H1358  H     0.78924   0.77916   0.61065   0.00000  Uiso   1.00
H1359  H     0.79110   0.77778   0.88707   0.00000  Uiso   1.00
H1360  H     0.87556   0.88889   0.61293   0.00000  Uiso   1.00
H1361  H     0.76625   0.74647   0.95550   0.00000  Uiso   1.00
H1362  H     0.90041   0.92020   0.54450   0.00000  Uiso   1.00
N1363  N     0.83333   0.95240   0.75000   0.00000  Uiso   1.00
N1364  N     0.83333   0.71427   0.75000   0.00000  Uiso   1.00
O1365  O     0.77226   0.87154   0.75000   0.00000  Uiso   1.00
O1366  O     0.89441   0.79513   0.75001   0.00000  Uiso   1.00
O1367  O     0.89441   0.87154   0.75001   0.00000  Uiso   1.00
O1368  O     0.77226   0.79513   0.75000   0.00000  Uiso   1.00
O1369  O     0.83333   0.87156   0.68393   0.00000  Uiso   1.00
O1370  O     0.83334   0.79511   0.81608   0.00000  Uiso   1.00
O1371  O     0.83334   0.87156   0.81608   0.00000  Uiso   1.00
O1372  O     0.83333   0.79511   0.68393   0.00000  Uiso   1.00
Zn1373 Zn    0.83333   0.88437   0.75000   0.00000  Uiso   1.00
Zn1374 Zn    0.83333   0.78229   0.75000   0.00000  Uiso   1.00
N1375  N     0.75825   0.73832   0.54410   0.00000  Uiso   1.00
H1376  H     0.74546   0.71516   0.52135   0.00000  Uiso   1.00
H1377  H     0.73286   0.75563   0.55759   0.00000  Uiso   1.00
N1378  N     0.90842   0.92835   0.95590   0.00000  Uiso   1.00
H1379  H     0.92120   0.95152   0.97865   0.00000  Uiso   1.00
H1380  H     0.93381   0.91104   0.94242   0.00000  Uiso   1.00
N1381  N     0.71052   0.80958   0.67122   0.00000  Uiso   1.00
H1382  H     0.70141   0.83146   0.64558   0.00000  Uiso   1.00
H1383  H     0.70191   0.77727   0.66145   0.00000  Uiso   1.00
N1384  N     0.95615   0.85709   0.82878   0.00000  Uiso   1.00
H1385  H     0.96525   0.83520   0.85442   0.00000  Uiso   1.00
H1386  H     0.96476   0.88939   0.83855   0.00000  Uiso   1.00
N1387  N     0.95491   0.80935   0.66994   0.00000  Uiso   1.00
H1388  H     0.93637   0.78140   0.67611   0.00000  Uiso   1.00
H1389  H     0.93510   0.83592   0.66106   0.00000  Uiso   1.00
N1390  N     0.71176   0.85732   0.83006   0.00000  Uiso   1.00
H1391  H     0.73030   0.88527   0.82389   0.00000  Uiso   1.00
H1392  H     0.73157   0.83074   0.83894   0.00000  Uiso   1.00
N1393  N     0.87757   0.71238   0.81809   0.00000  Uiso   1.00
H1394  H     0.89564   0.73820   0.80559   0.00000  Uiso   1.00
H1395  H     0.85593   0.72431   0.84103   0.00000  Uiso   1.00
N1396  N     0.78910   0.95428   0.68191   0.00000  Uiso   1.00
H1397  H     0.77102   0.92847   0.69441   0.00000  Uiso   1.00
H1398  H     0.81073   0.94236   0.65897   0.00000  Uiso   1.00
N1399  N     0.78992   0.71194   0.68145   0.00000  Uiso   1.00
H1400  H     0.77225   0.73846   0.69349   0.00000  Uiso   1.00
H1401  H     0.81236   0.72293   0.65911   0.00000  Uiso   1.00
N1402  N     0.87674   0.95473   0.81855   0.00000  Uiso   1.00
H1403  H     0.89441   0.92820   0.80651   0.00000  Uiso   1.00
H1404  H     0.85431   0.94374   0.84089   0.00000  Uiso   1.00
loop_
_geom_bond_atom_site_label_1
_geom_bond_atom_site_label_2
_geom_bond_distance
_geom_bond_site_symmetry_2
_ccdc_geom_bond_type
C1     C10     1.404   .     S
C1     O39     1.289   .     A
C1     O42     1.289   .     A
C2     O41     1.289   .     A
C2     O40     1.289   .     A
C2     C9      1.404   .     S
C3     N49     1.439   .     S
C3     C28     1.411   .     A
C3     C731    1.397   1_554 S
C4     N52     1.439   .     S
C4     C27     1.411   .     A
C4     C732    1.397   .     S
C5     N55     1.437   .     S
C5     C10     1.399   .     A
C5     C163    1.383   1_455 S
C6     N58     1.437   .     S
C6     C9      1.399   .     A
C6     C86     1.383   .     S
C7     N61     1.437   .     S
C7     C9      1.403   .     A
C7     C83     1.383   .     S
C8     N64     1.437   .     S
C8     C10     1.403   .     A
C8     C162    1.383   1_455 S
C11    N67     1.430   .     S
C11    N38     1.376   .     A
C11    C482    1.418   1_545 S
C12    N37     1.376   .     A
C12    N70     1.430   .     S
C12    C247    1.418   .     S
C13    N38     1.376   .     A
C13    N73     1.428   .     S
C13    C480    1.418   1_545 S
C14    N37     1.376   .     A
C14    N76     1.428   .     S
C14    C245    1.418   .     S
C15    C20     1.427   .     S
C15    O43     1.295   .     A
C15    O46     1.298   .     A
C16    O44     1.295   .     A
C16    O45     1.298   .     A
C16    C19     1.427   .     S
C17    C27     1.389   .     A
C17    H31     1.082   .     S
C17    C19     1.392   .     A
C18    C28     1.389   .     A
C18    H32     1.082   .     S
C18    C20     1.392   .     A
C19    C21     1.391   .     A
C20    C22     1.391   .     A
C21    H33     1.086   .     S
C21    C23     1.383   .     A
C22    H34     1.086   .     S
C22    C24     1.383   .     A
C23    C29     1.397   .     A
C23    C25     1.412   .     A
C24    C26     1.412   .     A
C24    C30     1.397   .     A
C25    C27     1.417   .     A
C25    C728    1.392   .     S
C26    C28     1.417   .     A
C26    C727    1.392   1_554 S
C29    H35     1.084   .     S
C29    C705    1.397   .     S
C30    H36     1.084   .     S
C30    C706    1.397   1_554 S
N37    Zn47    2.039   .     S
N38    Zn48    2.039   .     S
O39    Zn47    1.980   .     S
O40    Zn48    1.980   .     S
O41    Zn47    1.978   .     S
O42    Zn48    1.978   .     S
O43    Zn47    2.008   .     S
O44    Zn48    2.008   .     S
O45    Zn47    2.011   .     S
O46    Zn48    2.011   .     S
N49    H51     1.046   .     S
N49    H50     1.046   .     S
N52    H54     1.046   .     S
N52    H53     1.046   .     S
N55    H56     1.046   .     S
N55    H57     1.046   .     S
N58    H60     1.046   .     S
N58    H59     1.046   .     S
N61    H63     1.046   .     S
N61    H62     1.045   .     S
N64    H66     1.046   .     S
N64    H65     1.045   .     S
N67    H68     1.040   .     S
N67    H69     1.043   .     S
N70    H71     1.040   .     S
N70    H72     1.043   .     S
N73    H74     1.040   .     S
N73    H75     1.042   .     S
N76    H78     1.042   .     S
N76    H77     1.040   .     S
C79    C88     1.404   .     S
C79    O117    1.289   .     A
C79    O120    1.289   .     A
C80    O119    1.289   .     A
C80    O118    1.289   .     A
C80    C87     1.404   .     S
C81    N127    1.439   .     S
C81    C106    1.411   .     A
C81    C809    1.397   1_554 S
C82    N130    1.439   .     S
C82    C105    1.411   .     A
C82    C810    1.397   .     S
C83    N133    1.437   .     S
C83    C88     1.399   .     A
C84    N136    1.437   .     S
C84    C87     1.399   .     A
C84    C164    1.383   .     S
C85    N139    1.437   .     S
C85    C87     1.403   .     A
C85    C161    1.383   .     S
C86    N142    1.437   .     S
C86    C88     1.403   .     A
C89    N145    1.430   .     S
C89    N116    1.376   .     A
C89    C560    1.418   1_545 S
C90    N115    1.376   .     A
C90    N148    1.430   .     S
C90    C325    1.418   .     S
C91    N116    1.376   .     A
C91    N151    1.428   .     S
C91    C558    1.418   1_545 S
C92    N115    1.376   .     A
C92    N154    1.428   .     S
C92    C323    1.418   .     S
C93    C98     1.427   .     S
C93    O121    1.295   .     A
C93    O124    1.298   .     A
C94    O122    1.295   .     A
C94    O123    1.298   .     A
C94    C97     1.427   .     S
C95    C105    1.389   .     A
C95    H109    1.082   .     S
C95    C97     1.392   .     A
C96    C106    1.389   .     A
C96    H110    1.082   .     S
C96    C98     1.392   .     A
C97    C99     1.391   .     A
C98    C100    1.391   .     A
C99    H111    1.086   .     S
C99    C101    1.383   .     A
C100   H112    1.086   .     S
C100   C102    1.383   .     A
C101   C107    1.397   .     A
C101   C103    1.412   .     A
C102   C104    1.412   .     A
C102   C108    1.397   .     A
C103   C105    1.417   .     A
C103   C806    1.392   .     S
C104   C106    1.417   .     A
C104   C805    1.392   1_554 S
C107   H113    1.084   .     S
C107   C783    1.397   .     S
C108   H114    1.084   .     S
C108   C784    1.397   1_554 S
N115   Zn125   2.039   .     S
N116   Zn126   2.039   .     S
O117   Zn125   1.980   .     S
O118   Zn126   1.980   .     S
O119   Zn125   1.978   .     S
O120   Zn126   1.978   .     S
O121   Zn125   2.008   .     S
O122   Zn126   2.008   .     S
O123   Zn125   2.011   .     S
O124   Zn126   2.011   .     S
N127   H129    1.046   .     S
N127   H128    1.046   .     S
N130   H132    1.046   .     S
N130   H131    1.046   .     S
N133   H134    1.046   .     S
N133   H135    1.046   .     S
N136   H138    1.046   .     S
N136   H137    1.046   .     S
N139   H141    1.046   .     S
N139   H140    1.045   .     S
N142   H144    1.046   .     S
N142   H143    1.045   .     S
N145   H146    1.040   .     S
N145   H147    1.043   .     S
N148   H149    1.040   .     S
N148   H150    1.043   .     S
N151   H152    1.040   .     S
N151   H153    1.042   .     S
N154   H156    1.042   .     S
N154   H155    1.040   .     S
C157   C166    1.404   .     S
C157   O195    1.289   .     A
C157   O198    1.289   .     A
C158   O197    1.289   .     A
C158   O196    1.289   .     A
C158   C165    1.404   .     S
C159   N205    1.439   .     S
C159   C184    1.411   .     A
C159   C887    1.397   1_554 S
C160   N208    1.439   .     S
C160   C183    1.411   .     A
C160   C888    1.397   .     S
C161   N211    1.437   .     S
C161   C166    1.399   .     A
C162   N214    1.437   .     S
C162   C165    1.399   .     A
C162   C8      1.383   1_655 S
C163   N217    1.437   .     S
C163   C165    1.403   .     A
C163   C5      1.383   1_655 S
C164   N220    1.437   .     S
C164   C166    1.403   .     A
C167   N223    1.430   .     S
C167   N194    1.376   .     A
C167   C638    1.418   1_545 S
C168   N193    1.376   .     A
C168   N226    1.430   .     S
C168   C403    1.418   .     S
C169   N194    1.376   .     A
C169   N229    1.428   .     S
C169   C636    1.418   1_545 S
C170   N193    1.376   .     A
C170   N232    1.428   .     S
C170   C401    1.418   .     S
C171   C176    1.427   .     S
C171   O199    1.295   .     A
C171   O202    1.298   .     A
C172   O200    1.295   .     A
C172   O201    1.298   .     A
C172   C175    1.427   .     S
C173   C183    1.389   .     A
C173   H187    1.082   .     S
C173   C175    1.392   .     A
C174   C184    1.389   .     A
C174   H188    1.082   .     S
C174   C176    1.392   .     A
C175   C177    1.391   .     A
C176   C178    1.391   .     A
C177   H189    1.086   .     S
C177   C179    1.383   .     A
C178   H190    1.086   .     S
C178   C180    1.383   .     A
C179   C185    1.397   .     A
C179   C181    1.412   .     A
C180   C182    1.412   .     A
C180   C186    1.397   .     A
C181   C183    1.417   .     A
C181   C884    1.392   .     S
C182   C184    1.417   .     A
C182   C883    1.392   1_554 S
C185   H191    1.084   .     S
C185   C861    1.397   .     S
C186   H192    1.084   .     S
C186   C862    1.397   1_554 S
N193   Zn203   2.039   .     S
N194   Zn204   2.039   .     S
O195   Zn203   1.980   .     S
O196   Zn204   1.980   .     S
O197   Zn203   1.978   .     S
O198   Zn204   1.978   .     S
O199   Zn203   2.008   .     S
O200   Zn204   2.008   .     S
O201   Zn203   2.011   .     S
O202   Zn204   2.011   .     S
N205   H207    1.046   .     S
N205   H206    1.046   .     S
N208   H210    1.046   .     S
N208   H209    1.046   .     S
N211   H212    1.046   .     S
N211   H213    1.046   .     S
N214   H216    1.046   .     S
N214   H215    1.046   .     S
N217   H219    1.046   .     S
N217   H218    1.045   .     S
N220   H222    1.046   .     S
N220   H221    1.045   .     S
N223   H224    1.040   .     S
N223   H225    1.043   .     S
N226   H227    1.040   .     S
N226   H228    1.043   .     S
N229   H230    1.040   .     S
N229   H231    1.042   .     S
N232   H234    1.042   .     S
N232   H233    1.040   .     S
C235   C244    1.404   .     S
C235   O273    1.289   .     A
C235   O276    1.289   .     A
C236   O275    1.289   .     A
C236   O274    1.289   .     A
C236   C243    1.404   .     S
C237   N283    1.439   .     S
C237   C262    1.411   .     A
C237   C965    1.397   1_554 S
C238   N286    1.439   .     S
C238   C261    1.411   .     A
C238   C966    1.397   .     S
C239   N289    1.437   .     S
C239   C244    1.399   .     A
C239   C397    1.383   1_455 S
C240   N292    1.437   .     S
C240   C243    1.399   .     A
C240   C320    1.383   .     S
C241   N295    1.437   .     S
C241   C243    1.403   .     A
C241   C317    1.383   .     S
C242   N298    1.437   .     S
C242   C244    1.403   .     A
C242   C396    1.383   1_455 S
C245   N301    1.430   .     S
C245   N272    1.376   .     A
C246   N271    1.376   .     A
C246   N304    1.430   .     S
C246   C481    1.418   .     S
C247   N272    1.376   .     A
C247   N307    1.428   .     S
C248   N271    1.376   .     A
C248   N310    1.428   .     S
C248   C479    1.418   .     S
C249   C254    1.427   .     S
C249   O277    1.295   .     A
C249   O280    1.298   .     A
C250   O278    1.295   .     A
C250   O279    1.298   .     A
C250   C253    1.427   .     S
C251   C261    1.389   .     A
C251   H265    1.082   .     S
C251   C253    1.392   .     A
C252   C262    1.389   .     A
C252   H266    1.082   .     S
C252   C254    1.392   .     A
C253   C255    1.391   .     A
C254   C256    1.391   .     A
C255   H267    1.086   .     S
C255   C257    1.383   .     A
C256   H268    1.086   .     S
C256   C258    1.383   .     A
C257   C263    1.397   .     A
C257   C259    1.412   .     A
C258   C260    1.412   .     A
C258   C264    1.397   .     A
C259   C261    1.417   .     A
C259   C962    1.392   .     S
C260   C262    1.417   .     A
C260   C961    1.392   1_554 S
C263   H269    1.084   .     S
C263   C939    1.397   .     S
C264   H270    1.084   .     S
C264   C940    1.397   1_554 S
N271   Zn281   2.039   .     S
N272   Zn282   2.039   .     S
O273   Zn281   1.980   .     S
O274   Zn282   1.980   .     S
O275   Zn281   1.978   .     S
O276   Zn282   1.978   .     S
O277   Zn281   2.008   .     S
O278   Zn282   2.008   .     S
O279   Zn281   2.011   .     S
O280   Zn282   2.011   .     S
N283   H285    1.046   .     S
N283   H284    1.046   .     S
N286   H288    1.046   .     S
N286   H287    1.046   .     S
N289   H290    1.046   .     S
N289   H291    1.046   .     S
N292   H294    1.046   .     S
N292   H293    1.046   .     S
N295   H297    1.046   .     S
N295   H296    1.045   .     S
N298   H300    1.046   .     S
N298   H299    1.045   .     S
N301   H302    1.040   .     S
N301   H303    1.043   .     S
N304   H305    1.040   .     S
N304   H306    1.043   .     S
N307   H308    1.040   .     S
N307   H309    1.042   .     S
N310   H312    1.042   .     S
N310   H311    1.040   .     S
C313   C322    1.404   .     S
C313   O351    1.289   .     A
C313   O354    1.289   .     A
C314   O353    1.289   .     A
C314   O352    1.289   .     A
C314   C321    1.404   .     S
C315   N361    1.439   .     S
C315   C340    1.411   .     A
C315   C1043   1.397   1_554 S
C316   N364    1.439   .     S
C316   C339    1.411   .     A
C316   C1044   1.397   .     S
C317   N367    1.437   .     S
C317   C322    1.399   .     A
C318   N370    1.437   .     S
C318   C321    1.399   .     A
C318   C398    1.383   .     S
C319   N373    1.437   .     S
C319   C321    1.403   .     A
C319   C395    1.383   .     S
C320   N376    1.437   .     S
C320   C322    1.403   .     A
C323   N379    1.430   .     S
C323   N350    1.376   .     A
C324   N349    1.376   .     A
C324   N382    1.430   .     S
C324   C559    1.418   .     S
C325   N350    1.376   .     A
C325   N385    1.428   .     S
C326   N349    1.376   .     A
C326   N388    1.428   .     S
C326   C557    1.418   .     S
C327   C332    1.427   .     S
C327   O355    1.295   .     A
C327   O358    1.298   .     A
C328   O356    1.295   .     A
C328   O357    1.298   .     A
C328   C331    1.427   .     S
C329   C339    1.389   .     A
C329   H343    1.082   .     S
C329   C331    1.392   .     A
C330   C340    1.389   .     A
C330   H344    1.082   .     S
C330   C332    1.392   .     A
C331   C333    1.391   .     A
C332   C334    1.391   .     A
C333   H345    1.086   .     S
C333   C335    1.383   .     A
C334   H346    1.086   .     S
C334   C336    1.383   .     A
C335   C341    1.397   .     A
C335   C337    1.412   .     A
C336   C338    1.412   .     A
C336   C342    1.397   .     A
C337   C339    1.417   .     A
C337   C1040   1.392   .     S
C338   C340    1.417   .     A
C338   C1039   1.392   1_554 S
C341   H347    1.084   .     S
C341   C1017   1.397   .     S
C342   H348    1.084   .     S
C342   C1018   1.397   1_554 S
N349   Zn359   2.039   .     S
N350   Zn360   2.039   .     S
O351   Zn359   1.980   .     S
O352   Zn360   1.980   .     S
O353   Zn359   1.978   .     S
O354   Zn360   1.978   .     S
O355   Zn359   2.008   .     S
O356   Zn360   2.008   .     S
O357   Zn359   2.011   .     S
O358   Zn360   2.011   .     S
N361   H363    1.046   .     S
N361   H362    1.046   .     S
N364   H366    1.046   .     S
N364   H365    1.046   .     S
N367   H368    1.046   .     S
N367   H369    1.046   .     S
N370   H372    1.046   .     S
N370   H371    1.046   .     S
N373   H375    1.046   .     S
N373   H374    1.045   .     S
N376   H378    1.046   .     S
N376   H377    1.045   .     S
N379   H380    1.040   .     S
N379   H381    1.043   .     S
N382   H383    1.040   .     S
N382   H384    1.043   .     S
N385   H386    1.040   .     S
N385   H387    1.042   .     S
N388   H390    1.042   .     S
N388   H389    1.040   .     S
C391   C400    1.404   .     S
C391   O429    1.289   .     A
C391   O432    1.289   .     A
C392   O431    1.289   .     A
C392   O430    1.289   .     A
C392   C399    1.404   .     S
C393   N439    1.439   .     S
C393   C418    1.411   .     A
C393   C1121   1.397   1_554 S
C394   N442    1.439   .     S
C394   C417    1.411   .     A
C394   C1122   1.397   .     S
C395   N445    1.437   .     S
C395   C400    1.399   .     A
C396   N448    1.437   .     S
C396   C399    1.399   .     A
C396   C242    1.383   1_655 S
C397   N451    1.437   .     S
C397   C399    1.403   .     A
C397   C239    1.383   1_655 S
C398   N454    1.437   .     S
C398   C400    1.403   .     A
C401   N457    1.430   .     S
C401   N428    1.376   .     A
C402   N427    1.376   .     A
C402   N460    1.430   .     S
C402   C637    1.418   .     S
C403   N428    1.376   .     A
C403   N463    1.428   .     S
C404   N427    1.376   .     A
C404   N466    1.428   .     S
C404   C635    1.418   .     S
C405   C410    1.427   .     S
C405   O433    1.295   .     A
C405   O436    1.298   .     A
C406   O434    1.295   .     A
C406   O435    1.298   .     A
C406   C409    1.427   .     S
C407   C417    1.389   .     A
C407   H421    1.082   .     S
C407   C409    1.392   .     A
C408   C418    1.389   .     A
C408   H422    1.082   .     S
C408   C410    1.392   .     A
C409   C411    1.391   .     A
C410   C412    1.391   .     A
C411   H423    1.086   .     S
C411   C413    1.383   .     A
C412   H424    1.086   .     S
C412   C414    1.383   .     A
C413   C419    1.397   .     A
C413   C415    1.412   .     A
C414   C416    1.412   .     A
C414   C420    1.397   .     A
C415   C417    1.417   .     A
C415   C1118   1.392   .     S
C416   C418    1.417   .     A
C416   C1117   1.392   1_554 S
C419   H425    1.084   .     S
C419   C1095   1.397   .     S
C420   H426    1.084   .     S
C420   C1096   1.397   1_554 S
N427   Zn437   2.039   .     S
N428   Zn438   2.039   .     S
O429   Zn437   1.980   .     S
O430   Zn438   1.980   .     S
O431   Zn437   1.978   .     S
O432   Zn438   1.978   .     S
O433   Zn437   2.008   .     S
O434   Zn438   2.008   .     S
O435   Zn437   2.011   .     S
O436   Zn438   2.011   .     S
N439   H441    1.046   .     S
N439   H440    1.046   .     S
N442   H444    1.046   .     S
N442   H443    1.046   .     S
N445   H446    1.046   .     S
N445   H447    1.046   .     S
N448   H450    1.046   .     S
N448   H449    1.046   .     S
N451   H453    1.046   .     S
N451   H452    1.045   .     S
N454   H456    1.046   .     S
N454   H455    1.045   .     S
N457   H458    1.040   .     S
N457   H459    1.043   .     S
N460   H461    1.040   .     S
N460   H462    1.043   .     S
N463   H464    1.040   .     S
N463   H465    1.042   .     S
N466   H468    1.042   .     S
N466   H467    1.040   .     S
C469   C478    1.404   .     S
C469   O507    1.289   .     A
C469   O510    1.289   .     A
C470   O509    1.289   .     A
C470   O508    1.289   .     A
C470   C477    1.404   .     S
C471   N517    1.439   .     S
C471   C496    1.411   .     A
C471   C1199   1.397   1_554 S
C472   N520    1.439   .     S
C472   C495    1.411   .     A
C472   C1200   1.397   .     S
C473   N523    1.437   .     S
C473   C478    1.399   .     A
C473   C631    1.383   1_455 S
C474   N526    1.437   .     S
C474   C477    1.399   .     A
C474   C554    1.383   .     S
C475   N529    1.437   .     S
C475   C477    1.403   .     A
C475   C551    1.383   .     S
C476   N532    1.437   .     S
C476   C478    1.403   .     A
C476   C630    1.383   1_455 S
C479   N535    1.430   .     S
C479   N506    1.376   .     A
C480   N505    1.376   .     A
C480   N538    1.430   .     S
C480   C13     1.418   1_565 S
C481   N506    1.376   .     A
C481   N541    1.428   .     S
C482   N505    1.376   .     A
C482   N544    1.428   .     S
C482   C11     1.418   1_565 S
C483   C488    1.427   .     S
C483   O511    1.295   .     A
C483   O514    1.298   .     A
C484   O512    1.295   .     A
C484   O513    1.298   .     A
C484   C487    1.427   .     S
C485   C495    1.389   .     A
C485   H499    1.082   .     S
C485   C487    1.392   .     A
C486   C496    1.389   .     A
C486   H500    1.082   .     S
C486   C488    1.392   .     A
C487   C489    1.391   .     A
C488   C490    1.391   .     A
C489   H501    1.086   .     S
C489   C491    1.383   .     A
C490   H502    1.086   .     S
C490   C492    1.383   .     A
C491   C497    1.397   .     A
C491   C493    1.412   .     A
C492   C494    1.412   .     A
C492   C498    1.397   .     A
C493   C495    1.417   .     A
C493   C1196   1.392   .     S
C494   C496    1.417   .     A
C494   C1195   1.392   1_554 S
C497   H503    1.084   .     S
C497   C1173   1.397   .     S
C498   H504    1.084   .     S
C498   C1174   1.397   1_554 S
N505   Zn515   2.039   .     S
N506   Zn516   2.039   .     S
O507   Zn515   1.980   .     S
O508   Zn516   1.980   .     S
O509   Zn515   1.978   .     S
O510   Zn516   1.978   .     S
O511   Zn515   2.008   .     S
O512   Zn516   2.008   .     S
O513   Zn515   2.011   .     S
O514   Zn516   2.011   .     S
N517   H519    1.046   .     S
N517   H518    1.046   .     S
N520   H522    1.046   .     S
N520   H521    1.046   .     S
N523   H524    1.046   .     S
N523   H525    1.046   .     S
N526   H528    1.046   .     S
N526   H527    1.046   .     S
N529   H531    1.046   .     S
N529   H530    1.045   .     S
N532   H534    1.046   .     S
N532   H533    1.045   .     S
N535   H536    1.040   .     S
N535   H537    1.043   .     S
N538   H539    1.040   .     S
N538   H540    1.043   .     S
N541   H542    1.040   .     S
N541   H543    1.042   .     S
N544   H546    1.042   .     S
N544   H545    1.040   .     S
C547   C556    1.404   .     S
C547   O585    1.289   .     A
C547   O588    1.289   .     A
C548   O587    1.289   .     A
C548   O586    1.289   .     A
C548   C555    1.404   .     S
C549   N595    1.439   .     S
C549   C574    1.411   .     A
C549   C1277   1.397   1_554 S
C550   N598    1.439   .     S
C550   C573    1.411   .     A
C550   C1278   1.397   .     S
C551   N601    1.437   .     S
C551   C556    1.399   .     A
C552   N604    1.437   .     S
C552   C555    1.399   .     A
C552   C632    1.383   .     S
C553   N607    1.437   .     S
C553   C555    1.403   .     A
C553   C629    1.383   .     S
C554   N610    1.437   .     S
C554   C556    1.403   .     A
C557   N613    1.430   .     S
C557   N584    1.376   .     A
C558   N583    1.376   .     A
C558   N616    1.430   .     S
C558   C91     1.418   1_565 S
C559   N584    1.376   .     A
C559   N619    1.428   .     S
C560   N583    1.376   .     A
C560   N622    1.428   .     S
C560   C89     1.418   1_565 S
C561   C566    1.427   .     S
C561   O589    1.295   .     A
C561   O592    1.298   .     A
C562   O590    1.295   .     A
C562   O591    1.298   .     A
C562   C565    1.427   .     S
C563   C573    1.389   .     A
C563   H577    1.082   .     S
C563   C565    1.392   .     A
C564   C574    1.389   .     A
C564   H578    1.082   .     S
C564   C566    1.392   .     A
C565   C567    1.391   .     A
C566   C568    1.391   .     A
C567   H579    1.086   .     S
C567   C569    1.383   .     A
C568   H580    1.086   .     S
C568   C570    1.383   .     A
C569   C575    1.397   .     A
C569   C571    1.412   .     A
C570   C572    1.412   .     A
C570   C576    1.397   .     A
C571   C573    1.417   .     A
C571   C1274   1.392   .     S
C572   C574    1.417   .     A
C572   C1273   1.392   1_554 S
C575   H581    1.084   .     S
C575   C1251   1.397   .     S
C576   H582    1.084   .     S
C576   C1252   1.397   1_554 S
N583   Zn593   2.039   .     S
N584   Zn594   2.039   .     S
O585   Zn593   1.980   .     S
O586   Zn594   1.980   .     S
O587   Zn593   1.978   .     S
O588   Zn594   1.978   .     S
O589   Zn593   2.008   .     S
O590   Zn594   2.008   .     S
O591   Zn593   2.011   .     S
O592   Zn594   2.011   .     S
N595   H597    1.046   .     S
N595   H596    1.046   .     S
N598   H600    1.046   .     S
N598   H599    1.046   .     S
N601   H602    1.046   .     S
N601   H603    1.046   .     S
N604   H606    1.046   .     S
N604   H605    1.046   .     S
N607   H609    1.046   .     S
N607   H608    1.045   .     S
N610   H612    1.046   .     S
N610   H611    1.045   .     S
N613   H614    1.040   .     S
N613   H615    1.043   .     S
N616   H617    1.040   .     S
N616   H618    1.043   .     S
N619   H620    1.040   .     S
N619   H621    1.042   .     S
N622   H624    1.042   .     S
N622   H623    1.040   .     S
C625   C634    1.404   .     S
C625   O663    1.289   .     A
C625   O666    1.289   .     A
C626   O665    1.289   .     A
C626   O664    1.289   .     A
C626   C633    1.404   .     S
C627   N673    1.439   .     S
C627   C652    1.411   .     A
C627   C1355   1.397   1_554 S
C628   N676    1.439   .     S
C628   C651    1.411   .     A
C628   C1356   1.397   .     S
C629   N679    1.437   .     S
C629   C634    1.399   .     A
C630   N682    1.437   .     S
C630   C633    1.399   .     A
C630   C476    1.383   1_655 S
C631   N685    1.437   .     S
C631   C633    1.403   .     A
C631   C473    1.383   1_655 S
C632   N688    1.437   .     S
C632   C634    1.403   .     A
C635   N691    1.430   .     S
C635   N662    1.376   .     A
C636   N661    1.376   .     A
C636   N694    1.430   .     S
C636   C169    1.418   1_565 S
C637   N662    1.376   .     A
C637   N697    1.428   .     S
C638   N661    1.376   .     A
C638   N700    1.428   .     S
C638   C167    1.418   1_565 S
C639   C644    1.427   .     S
C639   O667    1.295   .     A
C639   O670    1.298   .     A
C640   O668    1.295   .     A
C640   O669    1.298   .     A
C640   C643    1.427   .     S
C641   C651    1.389   .     A
C641   H655    1.082   .     S
C641   C643    1.392   .     A
C642   C652    1.389   .     A
C642   H656    1.082   .     S
C642   C644    1.392   .     A
C643   C645    1.391   .     A
C644   C646    1.391   .     A
C645   H657    1.086   .     S
C645   C647    1.383   .     A
C646   H658    1.086   .     S
C646   C648    1.383   .     A
C647   C653    1.397   .     A
C647   C649    1.412   .     A
C648   C650    1.412   .     A
C648   C654    1.397   .     A
C649   C651    1.417   .     A
C649   C1352   1.392   .     S
C650   C652    1.417   .     A
C650   C1351   1.392   1_554 S
C653   H659    1.084   .     S
C653   C1329   1.397   .     S
C654   H660    1.084   .     S
C654   C1330   1.397   1_554 S
N661   Zn671   2.039   .     S
N662   Zn672   2.039   .     S
O663   Zn671   1.980   .     S
O664   Zn672   1.980   .     S
O665   Zn671   1.978   .     S
O666   Zn672   1.978   .     S
O667   Zn671   2.008   .     S
O668   Zn672   2.008   .     S
O669   Zn671   2.011   .     S
O670   Zn672   2.011   .     S
N673   H675    1.046   .     S
N673   H674    1.046   .     S
N676   H678    1.046   .     S
N676   H677    1.046   .     S
N679   H680    1.046   .     S
N679   H681    1.046   .     S
N682   H684    1.046   .     S
N682   H683    1.046   .     S
N685   H687    1.046   .     S
N685   H686    1.045   .     S
N688   H690    1.046   .     S
N688   H689    1.045   .     S
N691   H692    1.040   .     S
N691   H693    1.043   .     S
N694   H695    1.040   .     S
N694   H696    1.043   .     S
N697   H698    1.040   .     S
N697   H699    1.042   .     S
N700   H702    1.042   .     S
N700   H701    1.040   .     S
C703   C712    1.404   .     S
C703   O741    1.289   .     A
C703   O744    1.289   .     A
C704   O743    1.289   .     A
C704   O742    1.289   .     A
C704   C711    1.404   .     S
C705   N751    1.439   .     S
C705   C730    1.411   .     A
C706   N754    1.439   .     S
C706   C729    1.411   .     A
C706   C30     1.397   1_556 S
C707   N757    1.437   .     S
C707   C712    1.399   .     A
C707   C865    1.383   1_455 S
C708   N760    1.437   .     S
C708   C711    1.399   .     A
C708   C788    1.383   .     S
C709   N763    1.437   .     S
C709   C711    1.403   .     A
C709   C785    1.383   .     S
C710   N766    1.437   .     S
C710   C712    1.403   .     A
C710   C864    1.383   1_455 S
C713   N769    1.430   .     S
C713   N740    1.376   .     A
C713   C1184   1.418   1_545 S
C714   N739    1.376   .     A
C714   N772    1.430   .     S
C714   C949    1.418   .     S
C715   N740    1.376   .     A
C715   N775    1.428   .     S
C715   C1182   1.418   1_545 S
C716   N739    1.376   .     A
C716   N778    1.428   .     S
C716   C947    1.418   .     S
C717   C722    1.427   .     S
C717   O745    1.295   .     A
C717   O748    1.298   .     A
C718   O746    1.295   .     A
C718   O747    1.298   .     A
C718   C721    1.427   .     S
C719   C729    1.389   .     A
C719   H733    1.082   .     S
C719   C721    1.392   .     A
C720   C730    1.389   .     A
C720   H734    1.082   .     S
C720   C722    1.392   .     A
C721   C723    1.391   .     A
C722   C724    1.391   .     A
C723   H735    1.086   .     S
C723   C725    1.383   .     A
C724   H736    1.086   .     S
C724   C726    1.383   .     A
C725   C731    1.397   .     A
C725   C727    1.412   .     A
C726   C728    1.412   .     A
C726   C732    1.397   .     A
C727   C729    1.417   .     A
C727   C26     1.392   1_556 S
C728   C730    1.417   .     A
C731   H737    1.084   .     S
C731   C3      1.397   1_556 S
C732   H738    1.084   .     S
N739   Zn749   2.039   .     S
N740   Zn750   2.039   .     S
O741   Zn749   1.980   .     S
O742   Zn750   1.980   .     S
O743   Zn749   1.978   .     S
O744   Zn750   1.978   .     S
O745   Zn749   2.008   .     S
O746   Zn750   2.008   .     S
O747   Zn749   2.011   .     S
O748   Zn750   2.011   .     S
N751   H753    1.046   .     S
N751   H752    1.046   .     S
N754   H756    1.046   .     S
N754   H755    1.046   .     S
N757   H758    1.046   .     S
N757   H759    1.046   .     S
N760   H762    1.046   .     S
N760   H761    1.046   .     S
N763   H765    1.046   .     S
N763   H764    1.045   .     S
N766   H768    1.046   .     S
N766   H767    1.045   .     S
N769   H770    1.040   .     S
N769   H771    1.043   .     S
N772   H773    1.040   .     S
N772   H774    1.043   .     S
N775   H776    1.040   .     S
N775   H777    1.042   .     S
N778   H780    1.042   .     S
N778   H779    1.040   .     S
C781   C790    1.404   .     S
C781   O819    1.289   .     A
C781   O822    1.289   .     A
C782   O821    1.289   .     A
C782   O820    1.289   .     A
C782   C789    1.404   .     S
C783   N829    1.439   .     S
C783   C808    1.411   .     A
C784   N832    1.439   .     S
C784   C807    1.411   .     A
C784   C108    1.397   1_556 S
C785   N835    1.437   .     S
C785   C790    1.399   .     A
C786   N838    1.437   .     S
C786   C789    1.399   .     A
C786   C866    1.383   .     S
C787   N841    1.437   .     S
C787   C789    1.403   .     A
C787   C863    1.383   .     S
C788   N844    1.437   .     S
C788   C790    1.403   .     A
C791   N847    1.430   .     S
C791   N818    1.376   .     A
C791   C1262   1.418   1_545 S
C792   N817    1.376   .     A
C792   N850    1.430   .     S
C792   C1027   1.418   .     S
C793   N818    1.376   .     A
C793   N853    1.428   .     S
C793   C1260   1.418   1_545 S
C794   N817    1.376   .     A
C794   N856    1.428   .     S
C794   C1025   1.418   .     S
C795   C800    1.427   .     S
C795   O823    1.295   .     A
C795   O826    1.298   .     A
C796   O824    1.295   .     A
C796   O825    1.298   .     A
C796   C799    1.427   .     S
C797   C807    1.389   .     A
C797   H811    1.082   .     S
C797   C799    1.392   .     A
C798   C808    1.389   .     A
C798   H812    1.082   .     S
C798   C800    1.392   .     A
C799   C801    1.391   .     A
C800   C802    1.391   .     A
C801   H813    1.086   .     S
C801   C803    1.383   .     A
C802   H814    1.086   .     S
C802   C804    1.383   .     A
C803   C809    1.397   .     A
C803   C805    1.412   .     A
C804   C806    1.412   .     A
C804   C810    1.397   .     A
C805   C807    1.417   .     A
C805   C104    1.392   1_556 S
C806   C808    1.417   .     A
C809   H815    1.084   .     S
C809   C81     1.397   1_556 S
C810   H816    1.084   .     S
N817   Zn827   2.039   .     S
N818   Zn828   2.039   .     S
O819   Zn827   1.980   .     S
O820   Zn828   1.980   .     S
O821   Zn827   1.978   .     S
O822   Zn828   1.978   .     S
O823   Zn827   2.008   .     S
O824   Zn828   2.008   .     S
O825   Zn827   2.011   .     S
O826   Zn828   2.011   .     S
N829   H831    1.046   .     S
N829   H830    1.046   .     S
N832   H834    1.046   .     S
N832   H833    1.046   .     S
N835   H836    1.046   .     S
N835   H837    1.046   .     S
N838   H840    1.046   .     S
N838   H839    1.046   .     S
N841   H843    1.046   .     S
N841   H842    1.045   .     S
N844   H846    1.046   .     S
N844   H845    1.045   .     S
N847   H848    1.040   .     S
N847   H849    1.043   .     S
N850   H851    1.040   .     S
N850   H852    1.043   .     S
N853   H854    1.040   .     S
N853   H855    1.042   .     S
N856   H858    1.042   .     S
N856   H857    1.040   .     S
C859   C868    1.404   .     S
C859   O897    1.289   .     A
C859   O900    1.289   .     A
C860   O899    1.289   .     A
C860   O898    1.289   .     A
C860   C867    1.404   .     S
C861   N907    1.439   .     S
C861   C886    1.411   .     A
C862   N910    1.439   .     S
C862   C885    1.411   .     A
C862   C186    1.397   1_556 S
C863   N913    1.437   .     S
C863   C868    1.399   .     A
C864   N916    1.437   .     S
C864   C867    1.399   .     A
C864   C710    1.383   1_655 S
C865   N919    1.437   .     S
C865   C867    1.403   .     A
C865   C707    1.383   1_655 S
C866   N922    1.437   .     S
C866   C868    1.403   .     A
C869   N925    1.430   .     S
C869   N896    1.376   .     A
C869   C1340   1.418   1_545 S
C870   N895    1.376   .     A
C870   N928    1.430   .     S
C870   C1105   1.418   .     S
C871   N896    1.376   .     A
C871   N931    1.428   .     S
C871   C1338   1.418   1_545 S
C872   N895    1.376   .     A
C872   N934    1.428   .     S
C872   C1103   1.418   .     S
C873   C878    1.427   .     S
C873   O901    1.295   .     A
C873   O904    1.298   .     A
C874   O902    1.295   .     A
C874   O903    1.298   .     A
C874   C877    1.427   .     S
C875   C885    1.389   .     A
C875   H889    1.082   .     S
C875   C877    1.392   .     A
C876   C886    1.389   .     A
C876   H890    1.082   .     S
C876   C878    1.392   .     A
C877   C879    1.391   .     A
C878   C880    1.391   .     A
C879   H891    1.086   .     S
C879   C881    1.383   .     A
C880   H892    1.086   .     S
C880   C882    1.383   .     A
C881   C887    1.397   .     A
C881   C883    1.412   .     A
C882   C884    1.412   .     A
C882   C888    1.397   .     A
C883   C885    1.417   .     A
C883   C182    1.392   1_556 S
C884   C886    1.417   .     A
C887   H893    1.084   .     S
C887   C159    1.397   1_556 S
C888   H894    1.084   .     S
N895   Zn905   2.039   .     S
N896   Zn906   2.039   .     S
O897   Zn905   1.980   .     S
O898   Zn906   1.980   .     S
O899   Zn905   1.978   .     S
O900   Zn906   1.978   .     S
O901   Zn905   2.008   .     S
O902   Zn906   2.008   .     S
O903   Zn905   2.011   .     S
O904   Zn906   2.011   .     S
N907   H909    1.046   .     S
N907   H908    1.046   .     S
N910   H912    1.046   .     S
N910   H911    1.046   .     S
N913   H914    1.046   .     S
N913   H915    1.046   .     S
N916   H918    1.046   .     S
N916   H917    1.046   .     S
N919   H921    1.046   .     S
N919   H920    1.045   .     S
N922   H924    1.046   .     S
N922   H923    1.045   .     S
N925   H926    1.040   .     S
N925   H927    1.043   .     S
N928   H929    1.040   .     S
N928   H930    1.043   .     S
N931   H932    1.040   .     S
N931   H933    1.042   .     S
N934   H936    1.042   .     S
N934   H935    1.040   .     S
C937   C946    1.404   .     S
C937   O975    1.289   .     A
C937   O978    1.289   .     A
C938   O977    1.289   .     A
C938   O976    1.289   .     A
C938   C945    1.404   .     S
C939   N985    1.439   .     S
C939   C964    1.411   .     A
C940   N988    1.439   .     S
C940   C963    1.411   .     A
C940   C264    1.397   1_556 S
C941   N991    1.437   .     S
C941   C946    1.399   .     A
C941   C1099   1.383   1_455 S
C942   N994    1.437   .     S
C942   C945    1.399   .     A
C942   C1022   1.383   .     S
C943   N997    1.437   .     S
C943   C945    1.403   .     A
C943   C1019   1.383   .     S
C944   N1000   1.437   .     S
C944   C946    1.403   .     A
C944   C1098   1.383   1_455 S
C947   N1003   1.430   .     S
C947   N974    1.376   .     A
C948   N973    1.376   .     A
C948   N1006   1.430   .     S
C948   C1183   1.418   .     S
C949   N974    1.376   .     A
C949   N1009   1.428   .     S
C950   N973    1.376   .     A
C950   N1012   1.428   .     S
C950   C1181   1.418   .     S
C951   C956    1.427   .     S
C951   O979    1.295   .     A
C951   O982    1.298   .     A
C952   O980    1.295   .     A
C952   O981    1.298   .     A
C952   C955    1.427   .     S
C953   C963    1.389   .     A
C953   H967    1.082   .     S
C953   C955    1.392   .     A
C954   C964    1.389   .     A
C954   H968    1.082   .     S
C954   C956    1.392   .     A
C955   C957    1.391   .     A
C956   C958    1.391   .     A
C957   H969    1.086   .     S
C957   C959    1.383   .     A
C958   H970    1.086   .     S
C958   C960    1.383   .     A
C959   C965    1.397   .     A
C959   C961    1.412   .     A
C960   C962    1.412   .     A
C960   C966    1.397   .     A
C961   C963    1.417   .     A
C961   C260    1.392   1_556 S
C962   C964    1.417   .     A
C965   H971    1.084   .     S
C965   C237    1.397   1_556 S
C966   H972    1.084   .     S
N973   Zn983   2.039   .     S
N974   Zn984   2.039   .     S
O975   Zn983   1.980   .     S
O976   Zn984   1.980   .     S
O977   Zn983   1.978   .     S
O978   Zn984   1.978   .     S
O979   Zn983   2.008   .     S
O980   Zn984   2.008   .     S
O981   Zn983   2.011   .     S
O982   Zn984   2.011   .     S
N985   H987    1.046   .     S
N985   H986    1.046   .     S
N988   H990    1.046   .     S
N988   H989    1.046   .     S
N991   H992    1.046   .     S
N991   H993    1.046   .     S
N994   H996    1.046   .     S
N994   H995    1.046   .     S
N997   H999    1.046   .     S
N997   H998    1.045   .     S
N1000  H1002   1.046   .     S
N1000  H1001   1.045   .     S
N1003  H1004   1.040   .     S
N1003  H1005   1.043   .     S
N1006  H1007   1.040   .     S
N1006  H1008   1.043   .     S
N1009  H1010   1.040   .     S
N1009  H1011   1.042   .     S
N1012  H1014   1.042   .     S
N1012  H1013   1.040   .     S
C1015  C1024   1.404   .     S
C1015  O1053   1.289   .     A
C1015  O1056   1.289   .     A
C1016  O1055   1.289   .     A
C1016  O1054   1.289   .     A
C1016  C1023   1.404   .     S
C1017  N1063   1.439   .     S
C1017  C1042   1.411   .     A
C1018  N1066   1.439   .     S
C1018  C1041   1.411   .     A
C1018  C342    1.397   1_556 S
C1019  N1069   1.437   .     S
C1019  C1024   1.399   .     A
C1020  N1072   1.437   .     S
C1020  C1023   1.399   .     A
C1020  C1100   1.383   .     S
C1021  N1075   1.437   .     S
C1021  C1023   1.403   .     A
C1021  C1097   1.383   .     S
C1022  N1078   1.437   .     S
C1022  C1024   1.403   .     A
C1025  N1081   1.430   .     S
C1025  N1052   1.376   .     A
C1026  N1051   1.376   .     A
C1026  N1084   1.430   .     S
C1026  C1261   1.418   .     S
C1027  N1052   1.376   .     A
C1027  N1087   1.428   .     S
C1028  N1051   1.376   .     A
C1028  N1090   1.428   .     S
C1028  C1259   1.418   .     S
C1029  C1034   1.427   .     S
C1029  O1057   1.295   .     A
C1029  O1060   1.298   .     A
C1030  O1058   1.295   .     A
C1030  O1059   1.298   .     A
C1030  C1033   1.427   .     S
C1031  C1041   1.389   .     A
C1031  H1045   1.082   .     S
C1031  C1033   1.392   .     A
C1032  C1042   1.389   .     A
C1032  H1046   1.082   .     S
C1032  C1034   1.392   .     A
C1033  C1035   1.391   .     A
C1034  C1036   1.391   .     A
C1035  H1047   1.086   .     S
C1035  C1037   1.383   .     A
C1036  H1048   1.086   .     S
C1036  C1038   1.383   .     A
C1037  C1043   1.397   .     A
C1037  C1039   1.412   .     A
C1038  C1040   1.412   .     A
C1038  C1044   1.397   .     A
C1039  C1041   1.417   .     A
C1039  C338    1.392   1_556 S
C1040  C1042   1.417   .     A
C1043  H1049   1.084   .     S
C1043  C315    1.397   1_556 S
C1044  H1050   1.084   .     S
N1051  Zn1061  2.039   .     S
N1052  Zn1062  2.039   .     S
O1053  Zn1061  1.980   .     S
O1054  Zn1062  1.980   .     S
O1055  Zn1061  1.978   .     S
O1056  Zn1062  1.978   .     S
O1057  Zn1061  2.008   .     S
O1058  Zn1062  2.008   .     S
O1059  Zn1061  2.011   .     S
O1060  Zn1062  2.011   .     S
N1063  H1065   1.046   .     S
N1063  H1064   1.046   .     S
N1066  H1068   1.046   .     S
N1066  H1067   1.046   .     S
N1069  H1070   1.046   .     S
N1069  H1071   1.046   .     S
N1072  H1074   1.046   .     S
N1072  H1073   1.046   .     S
N1075  H1077   1.046   .     S
N1075  H1076   1.045   .     S
N1078  H1080   1.046   .     S
N1078  H1079   1.045   .     S
N1081  H1082   1.040   .     S
N1081  H1083   1.043   .     S
N1084  H1085   1.040   .     S
N1084  H1086   1.043   .     S
N1087  H1088   1.040   .     S
N1087  H1089   1.042   .     S
N1090  H1092   1.042   .     S
N1090  H1091   1.040   .     S
C1093  C1102   1.404   .     S
C1093  O1131   1.289   .     A
C1093  O1134   1.289   .     A
C1094  O1133   1.289   .     A
C1094  O1132   1.289   .     A
C1094  C1101   1.404   .     S
C1095  N1141   1.439   .     S
C1095  C1120   1.411   .     A
C1096  N1144   1.439   .     S
C1096  C1119   1.411   .     A
C1096  C420    1.397   1_556 S
C1097  N1147   1.437   .     S
C1097  C1102   1.399   .     A
C1098  N1150   1.437   .     S
C1098  C1101   1.399   .     A
C1098  C944    1.383   1_655 S
C1099  N1153   1.437   .     S
C1099  C1101   1.403   .     A
C1099  C941    1.383   1_655 S
C1100  N1156   1.437   .     S
C1100  C1102   1.403   .     A
C1103  N1159   1.430   .     S
C1103  N1130   1.376   .     A
C1104  N1129   1.376   .     A
C1104  N1162   1.430   .     S
C1104  C1339   1.418   .     S
C1105  N1130   1.376   .     A
C1105  N1165   1.428   .     S
C1106  N1129   1.376   .     A
C1106  N1168   1.428   .     S
C1106  C1337   1.418   .     S
C1107  C1112   1.427   .     S
C1107  O1135   1.295   .     A
C1107  O1138   1.298   .     A
C1108  O1136   1.295   .     A
C1108  O1137   1.298   .     A
C1108  C1111   1.427   .     S
C1109  C1119   1.389   .     A
C1109  H1123   1.082   .     S
C1109  C1111   1.392   .     A
C1110  C1120   1.389   .     A
C1110  H1124   1.082   .     S
C1110  C1112   1.392   .     A
C1111  C1113   1.391   .     A
C1112  C1114   1.391   .     A
C1113  H1125   1.086   .     S
C1113  C1115   1.383   .     A
C1114  H1126   1.086   .     S
C1114  C1116   1.383   .     A
C1115  C1121   1.397   .     A
C1115  C1117   1.412   .     A
C1116  C1118   1.412   .     A
C1116  C1122   1.397   .     A
C1117  C1119   1.417   .     A
C1117  C416    1.392   1_556 S
C1118  C1120   1.417   .     A
C1121  H1127   1.084   .     S
C1121  C393    1.397   1_556 S
C1122  H1128   1.084   .     S
N1129  Zn1139  2.039   .     S
N1130  Zn1140  2.039   .     S
O1131  Zn1139  1.980   .     S
O1132  Zn1140  1.980   .     S
O1133  Zn1139  1.978   .     S
O1134  Zn1140  1.978   .     S
O1135  Zn1139  2.008   .     S
O1136  Zn1140  2.008   .     S
O1137  Zn1139  2.011   .     S
O1138  Zn1140  2.011   .     S
N1141  H1143   1.046   .     S
N1141  H1142   1.046   .     S
N1144  H1146   1.046   .     S
N1144  H1145   1.046   .     S
N1147  H1148   1.046   .     S
N1147  H1149   1.046   .     S
N1150  H1152   1.046   .     S
N1150  H1151   1.046   .     S
N1153  H1155   1.046   .     S
N1153  H1154   1.045   .     S
N1156  H1158   1.046   .     S
N1156  H1157   1.045   .     S
N1159  H1160   1.040   .     S
N1159  H1161   1.043   .     S
N1162  H1163   1.040   .     S
N1162  H1164   1.043   .     S
N1165  H1166   1.040   .     S
N1165  H1167   1.042   .     S
N1168  H1170   1.042   .     S
N1168  H1169   1.040   .     S
C1171  C1180   1.404   .     S
C1171  O1209   1.289   .     A
C1171  O1212   1.289   .     A
C1172  O1211   1.289   .     A
C1172  O1210   1.289   .     A
C1172  C1179   1.404   .     S
C1173  N1219   1.439   .     S
C1173  C1198   1.411   .     A
C1174  N1222   1.439   .     S
C1174  C1197   1.411   .     A
C1174  C498    1.397   1_556 S
C1175  N1225   1.437   .     S
C1175  C1180   1.399   .     A
C1175  C1333   1.383   1_455 S
C1176  N1228   1.437   .     S
C1176  C1179   1.399   .     A
C1176  C1256   1.383   .     S
C1177  N1231   1.437   .     S
C1177  C1179   1.403   .     A
C1177  C1253   1.383   .     S
C1178  N1234   1.437   .     S
C1178  C1180   1.403   .     A
C1178  C1332   1.383   1_455 S
C1181  N1237   1.430   .     S
C1181  N1208   1.376   .     A
C1182  N1207   1.376   .     A
C1182  N1240   1.430   .     S
C1182  C715    1.418   1_565 S
C1183  N1208   1.376   .     A
C1183  N1243   1.428   .     S
C1184  N1207   1.376   .     A
C1184  N1246   1.428   .     S
C1184  C713    1.418   1_565 S
C1185  C1190   1.427   .     S
C1185  O1213   1.295   .     A
C1185  O1216   1.298   .     A
C1186  O1214   1.295   .     A
C1186  O1215   1.298   .     A
C1186  C1189   1.427   .     S
C1187  C1197   1.389   .     A
C1187  H1201   1.082   .     S
C1187  C1189   1.392   .     A
C1188  C1198   1.389   .     A
C1188  H1202   1.082   .     S
C1188  C1190   1.392   .     A
C1189  C1191   1.391   .     A
C1190  C1192   1.391   .     A
C1191  H1203   1.086   .     S
C1191  C1193   1.383   .     A
C1192  H1204   1.086   .     S
C1192  C1194   1.383   .     A
C1193  C1199   1.397   .     A
C1193  C1195   1.412   .     A
C1194  C1196   1.412   .     A
C1194  C1200   1.397   .     A
C1195  C1197   1.417   .     A
C1195  C494    1.392   1_556 S
C1196  C1198   1.417   .     A
C1199  H1205   1.084   .     S
C1199  C471    1.397   1_556 S
C1200  H1206   1.084   .     S
N1207  Zn1217  2.039   .     S
N1208  Zn1218  2.039   .     S
O1209  Zn1217  1.980   .     S
O1210  Zn1218  1.980   .     S
O1211  Zn1217  1.978   .     S
O1212  Zn1218  1.978   .     S
O1213  Zn1217  2.008   .     S
O1214  Zn1218  2.008   .     S
O1215  Zn1217  2.011   .     S
O1216  Zn1218  2.011   .     S
N1219  H1221   1.046   .     S
N1219  H1220   1.046   .     S
N1222  H1224   1.046   .     S
N1222  H1223   1.046   .     S
N1225  H1226   1.046   .     S
N1225  H1227   1.046   .     S
N1228  H1230   1.046   .     S
N1228  H1229   1.046   .     S
N1231  H1233   1.046   .     S
N1231  H1232   1.045   .     S
N1234  H1236   1.046   .     S
N1234  H1235   1.045   .     S
N1237  H1238   1.040   .     S
N1237  H1239   1.043   .     S
N1240  H1241   1.040   .     S
N1240  H1242   1.043   .     S
N1243  H1244   1.040   .     S
N1243  H1245   1.042   .     S
N1246  H1248   1.042   .     S
N1246  H1247   1.040   .     S
C1249  C1258   1.404   .     S
C1249  O1287   1.289   .     A
C1249  O1290   1.289   .     A
C1250  O1289   1.289   .     A
C1250  O1288   1.289   .     A
C1250  C1257   1.404   .     S
C1251  N1297   1.439   .     S
C1251  C1276   1.411   .     A
C1252  N1300   1.439   .     S
C1252  C1275   1.411   .     A
C1252  C576    1.397   1_556 S
C1253  N1303   1.437   .     S
C1253  C1258   1.399   .     A
C1254  N1306   1.437   .     S
C1254  C1257   1.399   .     A
C1254  C1334   1.383   .     S
C1255  N1309   1.437   .     S
C1255  C1257   1.403   .     A
C1255  C1331   1.383   .     S
C1256  N1312   1.437   .     S
C1256  C1258   1.403   .     A
C1259  N1315   1.430   .     S
C1259  N1286   1.376   .     A
C1260  N1285   1.376   .     A
C1260  N1318   1.430   .     S
C1260  C793    1.418   1_565 S
C1261  N1286   1.376   .     A
C1261  N1321   1.428   .     S
C1262  N1285   1.376   .     A
C1262  N1324   1.428   .     S
C1262  C791    1.418   1_565 S
C1263  C1268   1.427   .     S
C1263  O1291   1.295   .     A
C1263  O1294   1.298   .     A
C1264  O1292   1.295   .     A
C1264  O1293   1.298   .     A
C1264  C1267   1.427   .     S
C1265  C1275   1.389   .     A
C1265  H1279   1.082   .     S
C1265  C1267   1.392   .     A
C1266  C1276   1.389   .     A
C1266  H1280   1.082   .     S
C1266  C1268   1.392   .     A
C1267  C1269   1.391   .     A
C1268  C1270   1.391   .     A
C1269  H1281   1.086   .     S
C1269  C1271   1.383   .     A
C1270  H1282   1.086   .     S
C1270  C1272   1.383   .     A
C1271  C1277   1.397   .     A
C1271  C1273   1.412   .     A
C1272  C1274   1.412   .     A
C1272  C1278   1.397   .     A
C1273  C1275   1.417   .     A
C1273  C572    1.392   1_556 S
C1274  C1276   1.417   .     A
C1277  H1283   1.084   .     S
C1277  C549    1.397   1_556 S
C1278  H1284   1.084   .     S
N1285  Zn1295  2.039   .     S
N1286  Zn1296  2.039   .     S
O1287  Zn1295  1.980   .     S
O1288  Zn1296  1.980   .     S
O1289  Zn1295  1.978   .     S
O1290  Zn1296  1.978   .     S
O1291  Zn1295  2.008   .     S
O1292  Zn1296  2.008   .     S
O1293  Zn1295  2.011   .     S
O1294  Zn1296  2.011   .     S
N1297  H1299   1.046   .     S
N1297  H1298   1.046   .     S
N1300  H1302   1.046   .     S
N1300  H1301   1.046   .     S
N1303  H1304   1.046   .     S
N1303  H1305   1.046   .     S
N1306  H1308   1.046   .     S
N1306  H1307   1.046   .     S
N1309  H1311   1.046   .     S
N1309  H1310   1.045   .     S
N1312  H1314   1.046   .     S
N1312  H1313   1.045   .     S
N1315  H1316   1.040   .     S
N1315  H1317   1.043   .     S
N1318  H1319   1.040   .     S
N1318  H1320   1.043   .     S
N1321  H1322   1.040   .     S
N1321  H1323   1.042   .     S
N1324  H1326   1.042   .     S
N1324  H1325   1.040   .     S
C1327  C1336   1.404   .     S
C1327  O1365   1.289   .     A
C1327  O1368   1.289   .     A
C1328  O1367   1.289   .     A
C1328  O1366   1.289   .     A
C1328  C1335   1.404   .     S
C1329  N1375   1.439   .     S
C1329  C1354   1.411   .     A
C1330  N1378   1.439   .     S
C1330  C1353   1.411   .     A
C1330  C654    1.397   1_556 S
C1331  N1381   1.437   .     S
C1331  C1336   1.399   .     A
C1332  N1384   1.437   .     S
C1332  C1335   1.399   .     A
C1332  C1178   1.383   1_655 S
C1333  N1387   1.437   .     S
C1333  C1335   1.403   .     A
C1333  C1175   1.383   1_655 S
C1334  N1390   1.437   .     S
C1334  C1336   1.403   .     A
C1337  N1393   1.430   .     S
C1337  N1364   1.376   .     A
C1338  N1363   1.376   .     A
C1338  N1396   1.430   .     S
C1338  C871    1.418   1_565 S
C1339  N1364   1.376   .     A
C1339  N1399   1.428   .     S
C1340  N1363   1.376   .     A
C1340  N1402   1.428   .     S
C1340  C869    1.418   1_565 S
C1341  C1346   1.427   .     S
C1341  O1369   1.295   .     A
C1341  O1372   1.298   .     A
C1342  O1370   1.295   .     A
C1342  O1371   1.298   .     A
C1342  C1345   1.427   .     S
C1343  C1353   1.389   .     A
C1343  H1357   1.082   .     S
C1343  C1345   1.392   .     A
C1344  C1354   1.389   .     A
C1344  H1358   1.082   .     S
C1344  C1346   1.392   .     A
C1345  C1347   1.391   .     A
C1346  C1348   1.391   .     A
C1347  H1359   1.086   .     S
C1347  C1349   1.383   .     A
C1348  H1360   1.086   .     S
C1348  C1350   1.383   .     A
C1349  C1355   1.397   .     A
C1349  C1351   1.412   .     A
C1350  C1352   1.412   .     A
C1350  C1356   1.397   .     A
C1351  C1353   1.417   .     A
C1351  C650    1.392   1_556 S
C1352  C1354   1.417   .     A
C1355  H1361   1.084   .     S
C1355  C627    1.397   1_556 S
C1356  H1362   1.084   .     S
N1363  Zn1373  2.039   .     S
N1364  Zn1374  2.039   .     S
O1365  Zn1373  1.980   .     S
O1366  Zn1374  1.980   .     S
O1367  Zn1373  1.978   .     S
O1368  Zn1374  1.978   .     S
O1369  Zn1373  2.008   .     S
O1370  Zn1374  2.008   .     S
O1371  Zn1373  2.011   .     S
O1372  Zn1374  2.011   .     S
N1375  H1377   1.046   .     S
N1375  H1376   1.046   .     S
N1378  H1380   1.046   .     S
N1378  H1379   1.046   .     S
N1381  H1382   1.046   .     S
N1381  H1383   1.046   .     S
N1384  H1386   1.046   .     S
N1384  H1385   1.046   .     S
N1387  H1389   1.046   .     S
N1387  H1388   1.045   .     S
N1390  H1392   1.046   .     S
N1390  H1391   1.045   .     S
N1393  H1394   1.040   .     S
N1393  H1395   1.043   .     S
N1396  H1397   1.040   .     S
N1396  H1398   1.043   .     S
N1399  H1400   1.040   .     S
N1399  H1401   1.042   .     S
N1402  H1404   1.042   .     S
N1402  H1403   1.040   .     S
