data_str_m3_o10_o18_pcu_sym.94
_audit_creation_date              2020-01-03
_audit_creation_method            'Materials Studio'
_symmetry_space_group_name_H-M    'P1'
_symmetry_Int_Tables_number       1
_symmetry_cell_setting            triclinic
loop_
_symmetry_equiv_pos_as_xyz
  x,y,z
_cell_length_a                    23.7761
_cell_length_b                    25.6948
_cell_length_c                    27.4039
_cell_angle_alpha                 94.7333
_cell_angle_beta                  93.3154
_cell_angle_gamma                 93.1864
loop_
_atom_site_label
_atom_site_type_symbol
_atom_site_fract_x
_atom_site_fract_y
_atom_site_fract_z
_atom_site_U_iso_or_equiv
_atom_site_adp_type
_atom_site_occupancy
C1     C     0.01406   0.26434   0.24645   0.00000  Uiso   1.00
C2     C     0.31227   0.16227   0.15897   0.00000  Uiso   1.00
C3     C     0.03045   0.17245   0.39393   0.00000  Uiso   1.00
C4     C     0.30065   0.15228   0.10646   0.00000  Uiso   1.00
C5     C     0.01265   0.20891   0.47504   0.00000  Uiso   1.00
C6     C     0.30781   0.09687   0.03192   0.00000  Uiso   1.00
C7     C     0.32939   0.19995   0.42539   0.00000  Uiso   1.00
C8     C     0.32966   0.11556   0.07875   0.00000  Uiso   1.00
C9     C     0.07810   0.15007   0.41248   0.00000  Uiso   1.00
C10    C     0.25213   0.17201   0.08671   0.00000  Uiso   1.00
C11    C     0.09627   0.15915   0.46188   0.00000  Uiso   1.00
C12    C     0.31895   0.06884   0.25160   0.00000  Uiso   1.00
C13    C     0.22575   0.14923   0.04278   0.00000  Uiso   1.00
C14    C     0.06373   0.19068   0.49301   0.00000  Uiso   1.00
C15    C     0.25532   0.11251   0.01421   0.00000  Uiso   1.00
C16    C     0.14827   0.14145   0.47989   0.00000  Uiso   1.00
C17    C     0.17050   0.16132   0.02722   0.00000  Uiso   1.00
C18    C     0.08982   0.30261   0.17397   0.00000  Uiso   1.00
C19    C     0.31325   0.00253   0.34626   0.00000  Uiso   1.00
C20    C     0.16065   0.12432   0.19230   0.00000  Uiso   1.00
C21    C     0.17273   0.20885   0.30781   0.00000  Uiso   1.00
C22    C     0.13610   0.19125   0.05799   0.00000  Uiso   1.00
C23    C     0.17894   0.10498   0.45207   0.00000  Uiso   1.00
C24    C     0.08337   0.20500   0.04119   0.00000  Uiso   1.00
C25    C     0.23146   0.09076   0.46915   0.00000  Uiso   1.00
C26    C     0.01753   0.31753   0.23644   0.00000  Uiso   1.00
C27    C     0.31498   0.01560   0.25975   0.00000  Uiso   1.00
C28    C     0.02089   0.17023   0.34103   0.00000  Uiso   1.00
H29    H     0.05852   0.22828   0.06567   0.00000  Uiso   1.00
H30    H     0.16261   0.08499   0.41763   0.00000  Uiso   1.00
H31    H     0.02311   0.01886   0.17007   0.00000  Uiso   1.00
H32    H     0.10980   0.32371   0.14506   0.00000  Uiso   1.00
H33    H     0.07035   0.26471   0.15678   0.00000  Uiso   1.00
H34    H     0.12347   0.29622   0.20229   0.00000  Uiso   1.00
H35    H     0.24448   0.01795   0.30112   0.00000  Uiso   1.00
H36    H     0.28544   0.32070   0.37373   0.00000  Uiso   1.00
H37    H     0.32780   0.04365   0.35856   0.00000  Uiso   1.00
H38    H     0.01690   0.31137   0.34428   0.00000  Uiso   1.00
H39    H     0.12356   0.09832   0.17794   0.00000  Uiso   1.00
H40    H     0.25330   0.06229   0.44709   0.00000  Uiso   1.00
H41    H     0.16877   0.15220   0.16442   0.00000  Uiso   1.00
H42    H     0.19588   0.09890   0.19811   0.00000  Uiso   1.00
H43    H     0.16514   0.18088   0.33578   0.00000  Uiso   1.00
H44    H     0.20967   0.23516   0.32196   0.00000  Uiso   1.00
H45    H     0.13723   0.23401   0.30216   0.00000  Uiso   1.00
H46    H     0.23430   0.20346   0.10801   0.00000  Uiso   1.00
H47    H     0.10265   0.12891   0.38664   0.00000  Uiso   1.00
H48    H     0.03428   0.09992   0.09394   0.00000  Uiso   1.00
H49    H     0.29164   0.21680   0.41128   0.00000  Uiso   1.00
H50    H     0.32031   0.23203   0.49889   0.00000  Uiso   1.00
H51    H     0.33046   0.06845   0.01059   0.00000  Uiso   1.00
H52    H     0.14804   0.20384   0.09579   0.00000  Uiso   1.00
N53    N     0.14695   0.15216   0.23739   0.00000  Uiso   1.00
N54    N     0.18638   0.18117   0.26260   0.00000  Uiso   1.00
N55    N     0.04728   0.00063   0.19532   0.00000  Uiso   1.00
N56    N     0.28220   0.00015   0.29902   0.00000  Uiso   1.00
O57    O     0.29719   0.24631   0.25309   0.00000  Uiso   1.00
O58    O     0.03614   0.08702   0.24690   0.00000  Uiso   1.00
O59    O     0.05822   0.23702   0.24501   0.00000  Uiso   1.00
O60    O     0.27512   0.09632   0.25498   0.00000  Uiso   1.00
O61    O     0.30328   0.17397   0.32247   0.00000  Uiso   1.00
O62    O     0.03005   0.15937   0.17753   0.00000  Uiso   1.00
O63    O     0.06431   0.16467   0.31439   0.00000  Uiso   1.00
O64    O     0.26902   0.16866   0.18561   0.00000  Uiso   1.00
Zn65   Zn    0.27033   0.17287   0.25539   0.00000  Uiso   1.00
Zn66   Zn    0.06300   0.16046   0.24460   0.00000  Uiso   1.00
C67    C     0.34740   0.26434   0.24645   0.00000  Uiso   1.00
C68    C     0.64560   0.16227   0.15897   0.00000  Uiso   1.00
C69    C     0.36379   0.17245   0.39393   0.00000  Uiso   1.00
C70    C     0.63398   0.15228   0.10646   0.00000  Uiso   1.00
C71    C     0.34598   0.20891   0.47504   0.00000  Uiso   1.00
C72    C     0.64114   0.09687   0.03192   0.00000  Uiso   1.00
C73    C     0.66273   0.19995   0.42539   0.00000  Uiso   1.00
C74    C     0.66299   0.11556   0.07875   0.00000  Uiso   1.00
C75    C     0.41143   0.15007   0.41248   0.00000  Uiso   1.00
C76    C     0.58546   0.17201   0.08671   0.00000  Uiso   1.00
C77    C     0.42960   0.15915   0.46188   0.00000  Uiso   1.00
C78    C     0.65229   0.06884   0.25160   0.00000  Uiso   1.00
C79    C     0.55908   0.14923   0.04278   0.00000  Uiso   1.00
C80    C     0.39707   0.19068   0.49301   0.00000  Uiso   1.00
C81    C     0.58865   0.11251   0.01421   0.00000  Uiso   1.00
C82    C     0.48160   0.14145   0.47989   0.00000  Uiso   1.00
C83    C     0.50383   0.16132   0.02722   0.00000  Uiso   1.00
C84    C     0.42315   0.30261   0.17397   0.00000  Uiso   1.00
C85    C     0.64658   0.00253   0.34626   0.00000  Uiso   1.00
C86    C     0.49398   0.12432   0.19230   0.00000  Uiso   1.00
C87    C     0.50607   0.20885   0.30781   0.00000  Uiso   1.00
C88    C     0.46944   0.19125   0.05799   0.00000  Uiso   1.00
C89    C     0.51228   0.10498   0.45207   0.00000  Uiso   1.00
C90    C     0.41670   0.20500   0.04119   0.00000  Uiso   1.00
C91    C     0.56479   0.09076   0.46915   0.00000  Uiso   1.00
C92    C     0.35086   0.31753   0.23644   0.00000  Uiso   1.00
C93    C     0.64832   0.01560   0.25975   0.00000  Uiso   1.00
C94    C     0.35422   0.17023   0.34103   0.00000  Uiso   1.00
H95    H     0.39186   0.22828   0.06567   0.00000  Uiso   1.00
H96    H     0.49594   0.08499   0.41763   0.00000  Uiso   1.00
H97    H     0.35645   0.01886   0.17007   0.00000  Uiso   1.00
H98    H     0.44313   0.32371   0.14506   0.00000  Uiso   1.00
H99    H     0.40368   0.26471   0.15678   0.00000  Uiso   1.00
H100   H     0.45681   0.29622   0.20229   0.00000  Uiso   1.00
H101   H     0.57781   0.01795   0.30112   0.00000  Uiso   1.00
H102   H     0.61877   0.32070   0.37373   0.00000  Uiso   1.00
H103   H     0.66113   0.04365   0.35856   0.00000  Uiso   1.00
H104   H     0.35024   0.31137   0.34428   0.00000  Uiso   1.00
H105   H     0.45690   0.09832   0.17794   0.00000  Uiso   1.00
H106   H     0.58663   0.06229   0.44709   0.00000  Uiso   1.00
H107   H     0.50210   0.15220   0.16442   0.00000  Uiso   1.00
H108   H     0.52921   0.09890   0.19811   0.00000  Uiso   1.00
H109   H     0.49848   0.18088   0.33578   0.00000  Uiso   1.00
H110   H     0.54300   0.23516   0.32196   0.00000  Uiso   1.00
H111   H     0.47056   0.23401   0.30216   0.00000  Uiso   1.00
H112   H     0.56763   0.20346   0.10801   0.00000  Uiso   1.00
H113   H     0.43598   0.12891   0.38664   0.00000  Uiso   1.00
H114   H     0.36762   0.09992   0.09394   0.00000  Uiso   1.00
H115   H     0.62497   0.21680   0.41128   0.00000  Uiso   1.00
H116   H     0.65365   0.23203   0.49889   0.00000  Uiso   1.00
H117   H     0.66379   0.06845   0.01059   0.00000  Uiso   1.00
H118   H     0.48137   0.20384   0.09579   0.00000  Uiso   1.00
N119   N     0.48029   0.15216   0.23739   0.00000  Uiso   1.00
N120   N     0.51971   0.18117   0.26260   0.00000  Uiso   1.00
N121   N     0.38061   0.00063   0.19532   0.00000  Uiso   1.00
N122   N     0.61553   0.00015   0.29902   0.00000  Uiso   1.00
O123   O     0.63052   0.24631   0.25309   0.00000  Uiso   1.00
O124   O     0.36948   0.08702   0.24690   0.00000  Uiso   1.00
O125   O     0.39155   0.23702   0.24501   0.00000  Uiso   1.00
O126   O     0.60845   0.09632   0.25498   0.00000  Uiso   1.00
O127   O     0.63662   0.17397   0.32247   0.00000  Uiso   1.00
O128   O     0.36338   0.15937   0.17753   0.00000  Uiso   1.00
O129   O     0.39764   0.16467   0.31439   0.00000  Uiso   1.00
O130   O     0.60236   0.16866   0.18561   0.00000  Uiso   1.00
Zn131  Zn    0.60366   0.17287   0.25539   0.00000  Uiso   1.00
Zn132  Zn    0.39634   0.16046   0.24460   0.00000  Uiso   1.00
C133   C     0.68073   0.26434   0.24645   0.00000  Uiso   1.00
C134   C     0.97893   0.16227   0.15897   0.00000  Uiso   1.00
C135   C     0.69712   0.17245   0.39393   0.00000  Uiso   1.00
C136   C     0.96732   0.15228   0.10646   0.00000  Uiso   1.00
C137   C     0.67932   0.20891   0.47504   0.00000  Uiso   1.00
C138   C     0.97448   0.09687   0.03192   0.00000  Uiso   1.00
C139   C     0.99606   0.19995   0.42539   0.00000  Uiso   1.00
C140   C     0.99633   0.11556   0.07875   0.00000  Uiso   1.00
C141   C     0.74477   0.15007   0.41248   0.00000  Uiso   1.00
C142   C     0.91880   0.17201   0.08671   0.00000  Uiso   1.00
C143   C     0.76293   0.15915   0.46188   0.00000  Uiso   1.00
C144   C     0.98562   0.06884   0.25160   0.00000  Uiso   1.00
C145   C     0.89241   0.14923   0.04278   0.00000  Uiso   1.00
C146   C     0.73040   0.19068   0.49301   0.00000  Uiso   1.00
C147   C     0.92198   0.11251   0.01421   0.00000  Uiso   1.00
C148   C     0.81494   0.14145   0.47989   0.00000  Uiso   1.00
C149   C     0.83716   0.16132   0.02722   0.00000  Uiso   1.00
C150   C     0.75648   0.30261   0.17397   0.00000  Uiso   1.00
C151   C     0.97991   0.00253   0.34626   0.00000  Uiso   1.00
C152   C     0.82732   0.12432   0.19230   0.00000  Uiso   1.00
C153   C     0.83940   0.20885   0.30781   0.00000  Uiso   1.00
C154   C     0.80277   0.19125   0.05799   0.00000  Uiso   1.00
C155   C     0.84561   0.10498   0.45207   0.00000  Uiso   1.00
C156   C     0.75003   0.20500   0.04119   0.00000  Uiso   1.00
C157   C     0.89813   0.09076   0.46915   0.00000  Uiso   1.00
C158   C     0.68420   0.31753   0.23644   0.00000  Uiso   1.00
C159   C     0.98165   0.01560   0.25975   0.00000  Uiso   1.00
C160   C     0.68755   0.17023   0.34103   0.00000  Uiso   1.00
H161   H     0.72519   0.22828   0.06567   0.00000  Uiso   1.00
H162   H     0.82928   0.08499   0.41763   0.00000  Uiso   1.00
H163   H     0.68978   0.01886   0.17007   0.00000  Uiso   1.00
H164   H     0.77647   0.32371   0.14506   0.00000  Uiso   1.00
H165   H     0.73702   0.26471   0.15678   0.00000  Uiso   1.00
H166   H     0.79014   0.29622   0.20229   0.00000  Uiso   1.00
H167   H     0.91114   0.01795   0.30112   0.00000  Uiso   1.00
H168   H     0.95210   0.32070   0.37373   0.00000  Uiso   1.00
H169   H     0.99447   0.04365   0.35856   0.00000  Uiso   1.00
H170   H     0.68357   0.31137   0.34428   0.00000  Uiso   1.00
H171   H     0.79023   0.09832   0.17794   0.00000  Uiso   1.00
H172   H     0.91997   0.06229   0.44709   0.00000  Uiso   1.00
H173   H     0.83544   0.15220   0.16442   0.00000  Uiso   1.00
H174   H     0.86255   0.09890   0.19811   0.00000  Uiso   1.00
H175   H     0.83181   0.18088   0.33578   0.00000  Uiso   1.00
H176   H     0.87634   0.23516   0.32196   0.00000  Uiso   1.00
H177   H     0.80390   0.23401   0.30216   0.00000  Uiso   1.00
H178   H     0.90097   0.20346   0.10801   0.00000  Uiso   1.00
H179   H     0.76932   0.12891   0.38664   0.00000  Uiso   1.00
H180   H     0.70095   0.09992   0.09394   0.00000  Uiso   1.00
H181   H     0.95831   0.21680   0.41128   0.00000  Uiso   1.00
H182   H     0.98698   0.23203   0.49889   0.00000  Uiso   1.00
H183   H     0.99712   0.06845   0.01059   0.00000  Uiso   1.00
H184   H     0.81470   0.20384   0.09579   0.00000  Uiso   1.00
N185   N     0.81362   0.15216   0.23739   0.00000  Uiso   1.00
N186   N     0.85305   0.18117   0.26260   0.00000  Uiso   1.00
N187   N     0.71394   0.00063   0.19532   0.00000  Uiso   1.00
N188   N     0.94887   0.00015   0.29902   0.00000  Uiso   1.00
O189   O     0.96386   0.24631   0.25309   0.00000  Uiso   1.00
O190   O     0.70281   0.08702   0.24690   0.00000  Uiso   1.00
O191   O     0.72488   0.23702   0.24501   0.00000  Uiso   1.00
O192   O     0.94178   0.09632   0.25498   0.00000  Uiso   1.00
O193   O     0.96995   0.17397   0.32247   0.00000  Uiso   1.00
O194   O     0.69672   0.15937   0.17753   0.00000  Uiso   1.00
O195   O     0.73098   0.16467   0.31439   0.00000  Uiso   1.00
O196   O     0.93569   0.16866   0.18561   0.00000  Uiso   1.00
Zn197  Zn    0.93700   0.17287   0.25539   0.00000  Uiso   1.00
Zn198  Zn    0.72967   0.16046   0.24460   0.00000  Uiso   1.00
C199   C     0.01406   0.59768   0.24645   0.00000  Uiso   1.00
C200   C     0.31227   0.49560   0.15897   0.00000  Uiso   1.00
C201   C     0.03045   0.50578   0.39393   0.00000  Uiso   1.00
C202   C     0.30065   0.48561   0.10646   0.00000  Uiso   1.00
C203   C     0.01265   0.54225   0.47504   0.00000  Uiso   1.00
C204   C     0.30781   0.43021   0.03192   0.00000  Uiso   1.00
C205   C     0.32939   0.53329   0.42539   0.00000  Uiso   1.00
C206   C     0.32966   0.44889   0.07875   0.00000  Uiso   1.00
C207   C     0.07810   0.48341   0.41248   0.00000  Uiso   1.00
C208   C     0.25213   0.50535   0.08671   0.00000  Uiso   1.00
C209   C     0.09627   0.49248   0.46188   0.00000  Uiso   1.00
C210   C     0.31895   0.40217   0.25160   0.00000  Uiso   1.00
C211   C     0.22575   0.48257   0.04278   0.00000  Uiso   1.00
C212   C     0.06373   0.52401   0.49301   0.00000  Uiso   1.00
C213   C     0.25532   0.44584   0.01421   0.00000  Uiso   1.00
C214   C     0.14827   0.47478   0.47989   0.00000  Uiso   1.00
C215   C     0.17050   0.49466   0.02722   0.00000  Uiso   1.00
C216   C     0.08982   0.63594   0.17397   0.00000  Uiso   1.00
C217   C     0.31325   0.33587   0.34626   0.00000  Uiso   1.00
C218   C     0.16065   0.45766   0.19230   0.00000  Uiso   1.00
C219   C     0.17273   0.54218   0.30781   0.00000  Uiso   1.00
C220   C     0.13610   0.52458   0.05799   0.00000  Uiso   1.00
C221   C     0.17894   0.43831   0.45207   0.00000  Uiso   1.00
C222   C     0.08337   0.53833   0.04119   0.00000  Uiso   1.00
C223   C     0.23146   0.42409   0.46915   0.00000  Uiso   1.00
C224   C     0.01753   0.65086   0.23644   0.00000  Uiso   1.00
C225   C     0.31498   0.34893   0.25975   0.00000  Uiso   1.00
C226   C     0.02089   0.50356   0.34103   0.00000  Uiso   1.00
H227   H     0.05852   0.56161   0.06567   0.00000  Uiso   1.00
H228   H     0.16261   0.41832   0.41763   0.00000  Uiso   1.00
H229   H     0.02311   0.35219   0.17007   0.00000  Uiso   1.00
H230   H     0.10980   0.65704   0.14506   0.00000  Uiso   1.00
H231   H     0.07035   0.59804   0.15678   0.00000  Uiso   1.00
H232   H     0.12347   0.62956   0.20229   0.00000  Uiso   1.00
H233   H     0.24448   0.35128   0.30112   0.00000  Uiso   1.00
H234   H     0.28544   0.65403   0.37373   0.00000  Uiso   1.00
H235   H     0.32780   0.37698   0.35856   0.00000  Uiso   1.00
H236   H     0.01690   0.64470   0.34428   0.00000  Uiso   1.00
H237   H     0.12356   0.43165   0.17794   0.00000  Uiso   1.00
H238   H     0.25330   0.39562   0.44709   0.00000  Uiso   1.00
H239   H     0.16877   0.48554   0.16442   0.00000  Uiso   1.00
H240   H     0.19588   0.43224   0.19811   0.00000  Uiso   1.00
H241   H     0.16514   0.51421   0.33578   0.00000  Uiso   1.00
H242   H     0.20967   0.56849   0.32196   0.00000  Uiso   1.00
H243   H     0.13723   0.56734   0.30216   0.00000  Uiso   1.00
H244   H     0.23430   0.53680   0.10801   0.00000  Uiso   1.00
H245   H     0.10265   0.46224   0.38664   0.00000  Uiso   1.00
H246   H     0.03428   0.43325   0.09394   0.00000  Uiso   1.00
H247   H     0.29164   0.55013   0.41128   0.00000  Uiso   1.00
H248   H     0.32031   0.56537   0.49889   0.00000  Uiso   1.00
H249   H     0.33046   0.40179   0.01059   0.00000  Uiso   1.00
H250   H     0.14804   0.53718   0.09579   0.00000  Uiso   1.00
N251   N     0.14695   0.48550   0.23739   0.00000  Uiso   1.00
N252   N     0.18638   0.51450   0.26260   0.00000  Uiso   1.00
N253   N     0.04728   0.33397   0.19532   0.00000  Uiso   1.00
N254   N     0.28220   0.33349   0.29902   0.00000  Uiso   1.00
O255   O     0.29719   0.57964   0.25309   0.00000  Uiso   1.00
O256   O     0.03614   0.42036   0.24690   0.00000  Uiso   1.00
O257   O     0.05822   0.57035   0.24501   0.00000  Uiso   1.00
O258   O     0.27512   0.42965   0.25498   0.00000  Uiso   1.00
O259   O     0.30328   0.50730   0.32247   0.00000  Uiso   1.00
O260   O     0.03005   0.49270   0.17753   0.00000  Uiso   1.00
O261   O     0.06431   0.49801   0.31439   0.00000  Uiso   1.00
O262   O     0.26902   0.50199   0.18561   0.00000  Uiso   1.00
Zn263  Zn    0.27033   0.50621   0.25539   0.00000  Uiso   1.00
Zn264  Zn    0.06300   0.49379   0.24460   0.00000  Uiso   1.00
C265   C     0.34740   0.59768   0.24645   0.00000  Uiso   1.00
C266   C     0.64560   0.49560   0.15897   0.00000  Uiso   1.00
C267   C     0.36379   0.50578   0.39393   0.00000  Uiso   1.00
C268   C     0.63398   0.48561   0.10646   0.00000  Uiso   1.00
C269   C     0.34598   0.54225   0.47504   0.00000  Uiso   1.00
C270   C     0.64114   0.43021   0.03192   0.00000  Uiso   1.00
C271   C     0.66273   0.53329   0.42539   0.00000  Uiso   1.00
C272   C     0.66299   0.44889   0.07875   0.00000  Uiso   1.00
C273   C     0.41143   0.48341   0.41248   0.00000  Uiso   1.00
C274   C     0.58546   0.50535   0.08671   0.00000  Uiso   1.00
C275   C     0.42960   0.49248   0.46188   0.00000  Uiso   1.00
C276   C     0.65229   0.40217   0.25160   0.00000  Uiso   1.00
C277   C     0.55908   0.48257   0.04278   0.00000  Uiso   1.00
C278   C     0.39707   0.52401   0.49301   0.00000  Uiso   1.00
C279   C     0.58865   0.44584   0.01421   0.00000  Uiso   1.00
C280   C     0.48160   0.47478   0.47989   0.00000  Uiso   1.00
C281   C     0.50383   0.49466   0.02722   0.00000  Uiso   1.00
C282   C     0.42315   0.63594   0.17397   0.00000  Uiso   1.00
C283   C     0.64658   0.33587   0.34626   0.00000  Uiso   1.00
C284   C     0.49398   0.45766   0.19230   0.00000  Uiso   1.00
C285   C     0.50607   0.54218   0.30781   0.00000  Uiso   1.00
C286   C     0.46944   0.52458   0.05799   0.00000  Uiso   1.00
C287   C     0.51228   0.43831   0.45207   0.00000  Uiso   1.00
C288   C     0.41670   0.53833   0.04119   0.00000  Uiso   1.00
C289   C     0.56479   0.42409   0.46915   0.00000  Uiso   1.00
C290   C     0.35086   0.65086   0.23644   0.00000  Uiso   1.00
C291   C     0.64832   0.34893   0.25975   0.00000  Uiso   1.00
C292   C     0.35422   0.50356   0.34103   0.00000  Uiso   1.00
H293   H     0.39186   0.56161   0.06567   0.00000  Uiso   1.00
H294   H     0.49594   0.41832   0.41763   0.00000  Uiso   1.00
H295   H     0.35645   0.35219   0.17007   0.00000  Uiso   1.00
H296   H     0.44313   0.65704   0.14506   0.00000  Uiso   1.00
H297   H     0.40368   0.59804   0.15678   0.00000  Uiso   1.00
H298   H     0.45681   0.62956   0.20229   0.00000  Uiso   1.00
H299   H     0.57781   0.35128   0.30112   0.00000  Uiso   1.00
H300   H     0.61877   0.65403   0.37373   0.00000  Uiso   1.00
H301   H     0.66113   0.37698   0.35856   0.00000  Uiso   1.00
H302   H     0.35024   0.64470   0.34428   0.00000  Uiso   1.00
H303   H     0.45690   0.43165   0.17794   0.00000  Uiso   1.00
H304   H     0.58663   0.39562   0.44709   0.00000  Uiso   1.00
H305   H     0.50210   0.48554   0.16442   0.00000  Uiso   1.00
H306   H     0.52921   0.43224   0.19811   0.00000  Uiso   1.00
H307   H     0.49848   0.51421   0.33578   0.00000  Uiso   1.00
H308   H     0.54300   0.56849   0.32196   0.00000  Uiso   1.00
H309   H     0.47056   0.56734   0.30216   0.00000  Uiso   1.00
H310   H     0.56763   0.53680   0.10801   0.00000  Uiso   1.00
H311   H     0.43598   0.46224   0.38664   0.00000  Uiso   1.00
H312   H     0.36762   0.43325   0.09394   0.00000  Uiso   1.00
H313   H     0.62497   0.55013   0.41128   0.00000  Uiso   1.00
H314   H     0.65365   0.56537   0.49889   0.00000  Uiso   1.00
H315   H     0.66379   0.40179   0.01059   0.00000  Uiso   1.00
H316   H     0.48137   0.53718   0.09579   0.00000  Uiso   1.00
N317   N     0.48029   0.48550   0.23739   0.00000  Uiso   1.00
N318   N     0.51971   0.51450   0.26260   0.00000  Uiso   1.00
N319   N     0.38061   0.33397   0.19532   0.00000  Uiso   1.00
N320   N     0.61553   0.33349   0.29902   0.00000  Uiso   1.00
O321   O     0.63052   0.57964   0.25309   0.00000  Uiso   1.00
O322   O     0.36948   0.42036   0.24690   0.00000  Uiso   1.00
O323   O     0.39155   0.57035   0.24501   0.00000  Uiso   1.00
O324   O     0.60845   0.42965   0.25498   0.00000  Uiso   1.00
O325   O     0.63662   0.50730   0.32247   0.00000  Uiso   1.00
O326   O     0.36338   0.49270   0.17753   0.00000  Uiso   1.00
O327   O     0.39764   0.49801   0.31439   0.00000  Uiso   1.00
O328   O     0.60236   0.50199   0.18561   0.00000  Uiso   1.00
Zn329  Zn    0.60366   0.50621   0.25539   0.00000  Uiso   1.00
Zn330  Zn    0.39634   0.49379   0.24460   0.00000  Uiso   1.00
C331   C     0.68073   0.59768   0.24645   0.00000  Uiso   1.00
C332   C     0.97893   0.49560   0.15897   0.00000  Uiso   1.00
C333   C     0.69712   0.50578   0.39393   0.00000  Uiso   1.00
C334   C     0.96732   0.48561   0.10646   0.00000  Uiso   1.00
C335   C     0.67932   0.54225   0.47504   0.00000  Uiso   1.00
C336   C     0.97448   0.43021   0.03192   0.00000  Uiso   1.00
C337   C     0.99606   0.53329   0.42539   0.00000  Uiso   1.00
C338   C     0.99633   0.44889   0.07875   0.00000  Uiso   1.00
C339   C     0.74477   0.48341   0.41248   0.00000  Uiso   1.00
C340   C     0.91880   0.50535   0.08671   0.00000  Uiso   1.00
C341   C     0.76293   0.49248   0.46188   0.00000  Uiso   1.00
C342   C     0.98562   0.40217   0.25160   0.00000  Uiso   1.00
C343   C     0.89241   0.48257   0.04278   0.00000  Uiso   1.00
C344   C     0.73040   0.52401   0.49301   0.00000  Uiso   1.00
C345   C     0.92198   0.44584   0.01421   0.00000  Uiso   1.00
C346   C     0.81494   0.47478   0.47989   0.00000  Uiso   1.00
C347   C     0.83716   0.49466   0.02722   0.00000  Uiso   1.00
C348   C     0.75648   0.63594   0.17397   0.00000  Uiso   1.00
C349   C     0.97991   0.33587   0.34626   0.00000  Uiso   1.00
C350   C     0.82732   0.45766   0.19230   0.00000  Uiso   1.00
C351   C     0.83940   0.54218   0.30781   0.00000  Uiso   1.00
C352   C     0.80277   0.52458   0.05799   0.00000  Uiso   1.00
C353   C     0.84561   0.43831   0.45207   0.00000  Uiso   1.00
C354   C     0.75003   0.53833   0.04119   0.00000  Uiso   1.00
C355   C     0.89813   0.42409   0.46915   0.00000  Uiso   1.00
C356   C     0.68420   0.65086   0.23644   0.00000  Uiso   1.00
C357   C     0.98165   0.34893   0.25975   0.00000  Uiso   1.00
C358   C     0.68755   0.50356   0.34103   0.00000  Uiso   1.00
H359   H     0.72519   0.56161   0.06567   0.00000  Uiso   1.00
H360   H     0.82928   0.41832   0.41763   0.00000  Uiso   1.00
H361   H     0.68978   0.35219   0.17007   0.00000  Uiso   1.00
H362   H     0.77647   0.65704   0.14506   0.00000  Uiso   1.00
H363   H     0.73702   0.59804   0.15678   0.00000  Uiso   1.00
H364   H     0.79014   0.62956   0.20229   0.00000  Uiso   1.00
H365   H     0.91114   0.35128   0.30112   0.00000  Uiso   1.00
H366   H     0.95210   0.65403   0.37373   0.00000  Uiso   1.00
H367   H     0.99447   0.37698   0.35856   0.00000  Uiso   1.00
H368   H     0.68357   0.64470   0.34428   0.00000  Uiso   1.00
H369   H     0.79023   0.43165   0.17794   0.00000  Uiso   1.00
H370   H     0.91997   0.39562   0.44709   0.00000  Uiso   1.00
H371   H     0.83544   0.48554   0.16442   0.00000  Uiso   1.00
H372   H     0.86255   0.43224   0.19811   0.00000  Uiso   1.00
H373   H     0.83181   0.51421   0.33578   0.00000  Uiso   1.00
H374   H     0.87634   0.56849   0.32196   0.00000  Uiso   1.00
H375   H     0.80390   0.56734   0.30216   0.00000  Uiso   1.00
H376   H     0.90097   0.53680   0.10801   0.00000  Uiso   1.00
H377   H     0.76932   0.46224   0.38664   0.00000  Uiso   1.00
H378   H     0.70095   0.43325   0.09394   0.00000  Uiso   1.00
H379   H     0.95831   0.55013   0.41128   0.00000  Uiso   1.00
H380   H     0.98698   0.56537   0.49889   0.00000  Uiso   1.00
H381   H     0.99712   0.40179   0.01059   0.00000  Uiso   1.00
H382   H     0.81470   0.53718   0.09579   0.00000  Uiso   1.00
N383   N     0.81362   0.48550   0.23739   0.00000  Uiso   1.00
N384   N     0.85305   0.51450   0.26260   0.00000  Uiso   1.00
N385   N     0.71394   0.33397   0.19532   0.00000  Uiso   1.00
N386   N     0.94887   0.33349   0.29902   0.00000  Uiso   1.00
O387   O     0.96386   0.57964   0.25309   0.00000  Uiso   1.00
O388   O     0.70281   0.42036   0.24690   0.00000  Uiso   1.00
O389   O     0.72488   0.57035   0.24501   0.00000  Uiso   1.00
O390   O     0.94178   0.42965   0.25498   0.00000  Uiso   1.00
O391   O     0.96995   0.50730   0.32247   0.00000  Uiso   1.00
O392   O     0.69672   0.49270   0.17753   0.00000  Uiso   1.00
O393   O     0.73098   0.49801   0.31439   0.00000  Uiso   1.00
O394   O     0.93569   0.50199   0.18561   0.00000  Uiso   1.00
Zn395  Zn    0.93700   0.50621   0.25539   0.00000  Uiso   1.00
Zn396  Zn    0.72967   0.49379   0.24460   0.00000  Uiso   1.00
C397   C     0.01406   0.93101   0.24645   0.00000  Uiso   1.00
C398   C     0.31227   0.82893   0.15897   0.00000  Uiso   1.00
C399   C     0.03045   0.83912   0.39393   0.00000  Uiso   1.00
C400   C     0.30065   0.81894   0.10646   0.00000  Uiso   1.00
C401   C     0.01265   0.87558   0.47504   0.00000  Uiso   1.00
C402   C     0.30781   0.76354   0.03192   0.00000  Uiso   1.00
C403   C     0.32939   0.86662   0.42539   0.00000  Uiso   1.00
C404   C     0.32966   0.78222   0.07875   0.00000  Uiso   1.00
C405   C     0.07810   0.81674   0.41248   0.00000  Uiso   1.00
C406   C     0.25213   0.83868   0.08671   0.00000  Uiso   1.00
C407   C     0.09627   0.82582   0.46188   0.00000  Uiso   1.00
C408   C     0.31895   0.73551   0.25160   0.00000  Uiso   1.00
C409   C     0.22575   0.81590   0.04278   0.00000  Uiso   1.00
C410   C     0.06373   0.85735   0.49301   0.00000  Uiso   1.00
C411   C     0.25532   0.77917   0.01421   0.00000  Uiso   1.00
C412   C     0.14827   0.80811   0.47989   0.00000  Uiso   1.00
C413   C     0.17050   0.82799   0.02722   0.00000  Uiso   1.00
C414   C     0.08982   0.96927   0.17397   0.00000  Uiso   1.00
C415   C     0.31325   0.66920   0.34626   0.00000  Uiso   1.00
C416   C     0.16065   0.79099   0.19230   0.00000  Uiso   1.00
C417   C     0.17273   0.87551   0.30781   0.00000  Uiso   1.00
C418   C     0.13610   0.85791   0.05799   0.00000  Uiso   1.00
C419   C     0.17894   0.77165   0.45207   0.00000  Uiso   1.00
C420   C     0.08337   0.87166   0.04119   0.00000  Uiso   1.00
C421   C     0.23146   0.75743   0.46915   0.00000  Uiso   1.00
C422   C     0.01753   0.98419   0.23644   0.00000  Uiso   1.00
C423   C     0.31498   0.68226   0.25975   0.00000  Uiso   1.00
C424   C     0.02089   0.83690   0.34103   0.00000  Uiso   1.00
H425   H     0.05852   0.89495   0.06567   0.00000  Uiso   1.00
H426   H     0.16261   0.75166   0.41763   0.00000  Uiso   1.00
H427   H     0.02311   0.68553   0.17007   0.00000  Uiso   1.00
H428   H     0.10980   0.99038   0.14506   0.00000  Uiso   1.00
H429   H     0.07035   0.93138   0.15678   0.00000  Uiso   1.00
H430   H     0.12347   0.96289   0.20229   0.00000  Uiso   1.00
H431   H     0.24448   0.68462   0.30112   0.00000  Uiso   1.00
H432   H     0.28544   0.98736   0.37373   0.00000  Uiso   1.00
H433   H     0.32780   0.71031   0.35856   0.00000  Uiso   1.00
H434   H     0.01690   0.97804   0.34428   0.00000  Uiso   1.00
H435   H     0.12356   0.76499   0.17794   0.00000  Uiso   1.00
H436   H     0.25330   0.72895   0.44709   0.00000  Uiso   1.00
H437   H     0.16877   0.81887   0.16442   0.00000  Uiso   1.00
H438   H     0.19588   0.76557   0.19811   0.00000  Uiso   1.00
H439   H     0.16514   0.84754   0.33578   0.00000  Uiso   1.00
H440   H     0.20967   0.90182   0.32196   0.00000  Uiso   1.00
H441   H     0.13723   0.90067   0.30216   0.00000  Uiso   1.00
H442   H     0.23430   0.87013   0.10801   0.00000  Uiso   1.00
H443   H     0.10265   0.79558   0.38664   0.00000  Uiso   1.00
H444   H     0.03428   0.76658   0.09394   0.00000  Uiso   1.00
H445   H     0.29164   0.88347   0.41128   0.00000  Uiso   1.00
H446   H     0.32031   0.89870   0.49889   0.00000  Uiso   1.00
H447   H     0.33046   0.73512   0.01059   0.00000  Uiso   1.00
H448   H     0.14804   0.87051   0.09579   0.00000  Uiso   1.00
N449   N     0.14695   0.81883   0.23739   0.00000  Uiso   1.00
N450   N     0.18638   0.84784   0.26260   0.00000  Uiso   1.00
N451   N     0.04728   0.66730   0.19532   0.00000  Uiso   1.00
N452   N     0.28220   0.66682   0.29902   0.00000  Uiso   1.00
O453   O     0.29719   0.91298   0.25309   0.00000  Uiso   1.00
O454   O     0.03614   0.75369   0.24690   0.00000  Uiso   1.00
O455   O     0.05822   0.90368   0.24501   0.00000  Uiso   1.00
O456   O     0.27512   0.76298   0.25498   0.00000  Uiso   1.00
O457   O     0.30328   0.84063   0.32247   0.00000  Uiso   1.00
O458   O     0.03005   0.82603   0.17753   0.00000  Uiso   1.00
O459   O     0.06431   0.83134   0.31439   0.00000  Uiso   1.00
O460   O     0.26902   0.83533   0.18561   0.00000  Uiso   1.00
Zn461  Zn    0.27033   0.83954   0.25539   0.00000  Uiso   1.00
Zn462  Zn    0.06300   0.82713   0.24460   0.00000  Uiso   1.00
C463   C     0.34740   0.93101   0.24645   0.00000  Uiso   1.00
C464   C     0.64560   0.82893   0.15897   0.00000  Uiso   1.00
C465   C     0.36379   0.83912   0.39393   0.00000  Uiso   1.00
C466   C     0.63398   0.81894   0.10646   0.00000  Uiso   1.00
C467   C     0.34598   0.87558   0.47504   0.00000  Uiso   1.00
C468   C     0.64114   0.76354   0.03192   0.00000  Uiso   1.00
C469   C     0.66273   0.86662   0.42539   0.00000  Uiso   1.00
C470   C     0.66299   0.78222   0.07875   0.00000  Uiso   1.00
C471   C     0.41143   0.81674   0.41248   0.00000  Uiso   1.00
C472   C     0.58546   0.83868   0.08671   0.00000  Uiso   1.00
C473   C     0.42960   0.82582   0.46188   0.00000  Uiso   1.00
C474   C     0.65229   0.73551   0.25160   0.00000  Uiso   1.00
C475   C     0.55908   0.81590   0.04278   0.00000  Uiso   1.00
C476   C     0.39707   0.85735   0.49301   0.00000  Uiso   1.00
C477   C     0.58865   0.77917   0.01421   0.00000  Uiso   1.00
C478   C     0.48160   0.80811   0.47989   0.00000  Uiso   1.00
C479   C     0.50383   0.82799   0.02722   0.00000  Uiso   1.00
C480   C     0.42315   0.96927   0.17397   0.00000  Uiso   1.00
C481   C     0.64658   0.66920   0.34626   0.00000  Uiso   1.00
C482   C     0.49398   0.79099   0.19230   0.00000  Uiso   1.00
C483   C     0.50607   0.87551   0.30781   0.00000  Uiso   1.00
C484   C     0.46944   0.85791   0.05799   0.00000  Uiso   1.00
C485   C     0.51228   0.77165   0.45207   0.00000  Uiso   1.00
C486   C     0.41670   0.87166   0.04119   0.00000  Uiso   1.00
C487   C     0.56479   0.75743   0.46915   0.00000  Uiso   1.00
C488   C     0.35086   0.98419   0.23644   0.00000  Uiso   1.00
C489   C     0.64832   0.68226   0.25975   0.00000  Uiso   1.00
C490   C     0.35422   0.83690   0.34103   0.00000  Uiso   1.00
H491   H     0.39186   0.89495   0.06567   0.00000  Uiso   1.00
H492   H     0.49594   0.75166   0.41763   0.00000  Uiso   1.00
H493   H     0.35645   0.68553   0.17007   0.00000  Uiso   1.00
H494   H     0.44313   0.99038   0.14506   0.00000  Uiso   1.00
H495   H     0.40368   0.93138   0.15678   0.00000  Uiso   1.00
H496   H     0.45681   0.96289   0.20229   0.00000  Uiso   1.00
H497   H     0.57781   0.68462   0.30112   0.00000  Uiso   1.00
H498   H     0.61877   0.98736   0.37373   0.00000  Uiso   1.00
H499   H     0.66113   0.71031   0.35856   0.00000  Uiso   1.00
H500   H     0.35024   0.97804   0.34428   0.00000  Uiso   1.00
H501   H     0.45690   0.76499   0.17794   0.00000  Uiso   1.00
H502   H     0.58663   0.72895   0.44709   0.00000  Uiso   1.00
H503   H     0.50210   0.81887   0.16442   0.00000  Uiso   1.00
H504   H     0.52921   0.76557   0.19811   0.00000  Uiso   1.00
H505   H     0.49848   0.84754   0.33578   0.00000  Uiso   1.00
H506   H     0.54300   0.90182   0.32196   0.00000  Uiso   1.00
H507   H     0.47056   0.90067   0.30216   0.00000  Uiso   1.00
H508   H     0.56763   0.87013   0.10801   0.00000  Uiso   1.00
H509   H     0.43598   0.79558   0.38664   0.00000  Uiso   1.00
H510   H     0.36762   0.76658   0.09394   0.00000  Uiso   1.00
H511   H     0.62497   0.88347   0.41128   0.00000  Uiso   1.00
H512   H     0.65365   0.89870   0.49889   0.00000  Uiso   1.00
H513   H     0.66379   0.73512   0.01059   0.00000  Uiso   1.00
H514   H     0.48137   0.87051   0.09579   0.00000  Uiso   1.00
N515   N     0.48029   0.81883   0.23739   0.00000  Uiso   1.00
N516   N     0.51971   0.84784   0.26260   0.00000  Uiso   1.00
N517   N     0.38061   0.66730   0.19532   0.00000  Uiso   1.00
N518   N     0.61553   0.66682   0.29902   0.00000  Uiso   1.00
O519   O     0.63052   0.91298   0.25309   0.00000  Uiso   1.00
O520   O     0.36948   0.75369   0.24690   0.00000  Uiso   1.00
O521   O     0.39155   0.90368   0.24501   0.00000  Uiso   1.00
O522   O     0.60845   0.76298   0.25498   0.00000  Uiso   1.00
O523   O     0.63662   0.84063   0.32247   0.00000  Uiso   1.00
O524   O     0.36338   0.82603   0.17753   0.00000  Uiso   1.00
O525   O     0.39764   0.83134   0.31439   0.00000  Uiso   1.00
O526   O     0.60236   0.83533   0.18561   0.00000  Uiso   1.00
Zn527  Zn    0.60366   0.83954   0.25539   0.00000  Uiso   1.00
Zn528  Zn    0.39634   0.82713   0.24460   0.00000  Uiso   1.00
C529   C     0.68073   0.93101   0.24645   0.00000  Uiso   1.00
C530   C     0.97893   0.82893   0.15897   0.00000  Uiso   1.00
C531   C     0.69712   0.83912   0.39393   0.00000  Uiso   1.00
C532   C     0.96732   0.81894   0.10646   0.00000  Uiso   1.00
C533   C     0.67932   0.87558   0.47504   0.00000  Uiso   1.00
C534   C     0.97448   0.76354   0.03192   0.00000  Uiso   1.00
C535   C     0.99606   0.86662   0.42539   0.00000  Uiso   1.00
C536   C     0.99633   0.78222   0.07875   0.00000  Uiso   1.00
C537   C     0.74477   0.81674   0.41248   0.00000  Uiso   1.00
C538   C     0.91880   0.83868   0.08671   0.00000  Uiso   1.00
C539   C     0.76293   0.82582   0.46188   0.00000  Uiso   1.00
C540   C     0.98562   0.73551   0.25160   0.00000  Uiso   1.00
C541   C     0.89241   0.81590   0.04278   0.00000  Uiso   1.00
C542   C     0.73040   0.85735   0.49301   0.00000  Uiso   1.00
C543   C     0.92198   0.77917   0.01421   0.00000  Uiso   1.00
C544   C     0.81494   0.80811   0.47989   0.00000  Uiso   1.00
C545   C     0.83716   0.82799   0.02722   0.00000  Uiso   1.00
C546   C     0.75648   0.96927   0.17397   0.00000  Uiso   1.00
C547   C     0.97991   0.66920   0.34626   0.00000  Uiso   1.00
C548   C     0.82732   0.79099   0.19230   0.00000  Uiso   1.00
C549   C     0.83940   0.87551   0.30781   0.00000  Uiso   1.00
C550   C     0.80277   0.85791   0.05799   0.00000  Uiso   1.00
C551   C     0.84561   0.77165   0.45207   0.00000  Uiso   1.00
C552   C     0.75003   0.87166   0.04119   0.00000  Uiso   1.00
C553   C     0.89813   0.75743   0.46915   0.00000  Uiso   1.00
C554   C     0.68420   0.98419   0.23644   0.00000  Uiso   1.00
C555   C     0.98165   0.68226   0.25975   0.00000  Uiso   1.00
C556   C     0.68755   0.83690   0.34103   0.00000  Uiso   1.00
H557   H     0.72519   0.89495   0.06567   0.00000  Uiso   1.00
H558   H     0.82928   0.75166   0.41763   0.00000  Uiso   1.00
H559   H     0.68978   0.68553   0.17007   0.00000  Uiso   1.00
H560   H     0.77647   0.99038   0.14506   0.00000  Uiso   1.00
H561   H     0.73702   0.93138   0.15678   0.00000  Uiso   1.00
H562   H     0.79014   0.96289   0.20229   0.00000  Uiso   1.00
H563   H     0.91114   0.68462   0.30112   0.00000  Uiso   1.00
H564   H     0.95210   0.98736   0.37373   0.00000  Uiso   1.00
H565   H     0.99447   0.71031   0.35856   0.00000  Uiso   1.00
H566   H     0.68357   0.97804   0.34428   0.00000  Uiso   1.00
H567   H     0.79023   0.76499   0.17794   0.00000  Uiso   1.00
H568   H     0.91997   0.72895   0.44709   0.00000  Uiso   1.00
H569   H     0.83544   0.81887   0.16442   0.00000  Uiso   1.00
H570   H     0.86255   0.76557   0.19811   0.00000  Uiso   1.00
H571   H     0.83181   0.84754   0.33578   0.00000  Uiso   1.00
H572   H     0.87634   0.90182   0.32196   0.00000  Uiso   1.00
H573   H     0.80390   0.90067   0.30216   0.00000  Uiso   1.00
H574   H     0.90097   0.87013   0.10801   0.00000  Uiso   1.00
H575   H     0.76932   0.79558   0.38664   0.00000  Uiso   1.00
H576   H     0.70095   0.76658   0.09394   0.00000  Uiso   1.00
H577   H     0.95831   0.88347   0.41128   0.00000  Uiso   1.00
H578   H     0.98698   0.89870   0.49889   0.00000  Uiso   1.00
H579   H     0.99712   0.73512   0.01059   0.00000  Uiso   1.00
H580   H     0.81470   0.87051   0.09579   0.00000  Uiso   1.00
N581   N     0.81362   0.81883   0.23739   0.00000  Uiso   1.00
N582   N     0.85305   0.84784   0.26260   0.00000  Uiso   1.00
N583   N     0.71394   0.66730   0.19532   0.00000  Uiso   1.00
N584   N     0.94887   0.66682   0.29902   0.00000  Uiso   1.00
O585   O     0.96386   0.91298   0.25309   0.00000  Uiso   1.00
O586   O     0.70281   0.75369   0.24690   0.00000  Uiso   1.00
O587   O     0.72488   0.90368   0.24501   0.00000  Uiso   1.00
O588   O     0.94178   0.76298   0.25498   0.00000  Uiso   1.00
O589   O     0.96995   0.84063   0.32247   0.00000  Uiso   1.00
O590   O     0.69672   0.82603   0.17753   0.00000  Uiso   1.00
O591   O     0.73098   0.83134   0.31439   0.00000  Uiso   1.00
O592   O     0.93569   0.83533   0.18561   0.00000  Uiso   1.00
Zn593  Zn    0.93700   0.83954   0.25539   0.00000  Uiso   1.00
Zn594  Zn    0.72967   0.82713   0.24460   0.00000  Uiso   1.00
C595   C     0.01406   0.26434   0.74645   0.00000  Uiso   1.00
C596   C     0.31227   0.16227   0.65897   0.00000  Uiso   1.00
C597   C     0.03045   0.17245   0.89393   0.00000  Uiso   1.00
C598   C     0.30065   0.15228   0.60646   0.00000  Uiso   1.00
C599   C     0.01265   0.20891   0.97504   0.00000  Uiso   1.00
C600   C     0.30781   0.09687   0.53192   0.00000  Uiso   1.00
C601   C     0.32939   0.19995   0.92539   0.00000  Uiso   1.00
C602   C     0.32966   0.11556   0.57875   0.00000  Uiso   1.00
C603   C     0.07810   0.15007   0.91248   0.00000  Uiso   1.00
C604   C     0.25213   0.17201   0.58671   0.00000  Uiso   1.00
C605   C     0.09627   0.15915   0.96188   0.00000  Uiso   1.00
C606   C     0.31895   0.06884   0.75160   0.00000  Uiso   1.00
C607   C     0.22575   0.14923   0.54278   0.00000  Uiso   1.00
C608   C     0.06373   0.19068   0.99301   0.00000  Uiso   1.00
C609   C     0.25532   0.11251   0.51421   0.00000  Uiso   1.00
C610   C     0.14827   0.14145   0.97989   0.00000  Uiso   1.00
C611   C     0.17050   0.16132   0.52722   0.00000  Uiso   1.00
C612   C     0.08982   0.30261   0.67397   0.00000  Uiso   1.00
C613   C     0.31325   0.00253   0.84626   0.00000  Uiso   1.00
C614   C     0.16065   0.12432   0.69230   0.00000  Uiso   1.00
C615   C     0.17273   0.20885   0.80781   0.00000  Uiso   1.00
C616   C     0.13610   0.19125   0.55799   0.00000  Uiso   1.00
C617   C     0.17894   0.10498   0.95207   0.00000  Uiso   1.00
C618   C     0.08337   0.20500   0.54119   0.00000  Uiso   1.00
C619   C     0.23146   0.09076   0.96915   0.00000  Uiso   1.00
C620   C     0.01753   0.31753   0.73644   0.00000  Uiso   1.00
C621   C     0.31498   0.01560   0.75975   0.00000  Uiso   1.00
C622   C     0.02089   0.17023   0.84103   0.00000  Uiso   1.00
H623   H     0.05852   0.22828   0.56567   0.00000  Uiso   1.00
H624   H     0.16261   0.08499   0.91763   0.00000  Uiso   1.00
H625   H     0.02311   0.01886   0.67007   0.00000  Uiso   1.00
H626   H     0.10980   0.32371   0.64506   0.00000  Uiso   1.00
H627   H     0.07035   0.26471   0.65678   0.00000  Uiso   1.00
H628   H     0.12347   0.29622   0.70229   0.00000  Uiso   1.00
H629   H     0.24448   0.01795   0.80112   0.00000  Uiso   1.00
H630   H     0.28544   0.32070   0.87373   0.00000  Uiso   1.00
H631   H     0.32780   0.04365   0.85856   0.00000  Uiso   1.00
H632   H     0.01690   0.31137   0.84428   0.00000  Uiso   1.00
H633   H     0.12356   0.09832   0.67794   0.00000  Uiso   1.00
H634   H     0.25330   0.06229   0.94709   0.00000  Uiso   1.00
H635   H     0.16877   0.15220   0.66442   0.00000  Uiso   1.00
H636   H     0.19588   0.09890   0.69811   0.00000  Uiso   1.00
H637   H     0.16514   0.18088   0.83578   0.00000  Uiso   1.00
H638   H     0.20967   0.23516   0.82196   0.00000  Uiso   1.00
H639   H     0.13723   0.23401   0.80216   0.00000  Uiso   1.00
H640   H     0.23430   0.20346   0.60801   0.00000  Uiso   1.00
H641   H     0.10265   0.12891   0.88664   0.00000  Uiso   1.00
H642   H     0.03428   0.09992   0.59394   0.00000  Uiso   1.00
H643   H     0.29164   0.21680   0.91128   0.00000  Uiso   1.00
H644   H     0.32031   0.23203   0.99889   0.00000  Uiso   1.00
H645   H     0.33046   0.06845   0.51059   0.00000  Uiso   1.00
H646   H     0.14804   0.20384   0.59579   0.00000  Uiso   1.00
N647   N     0.14695   0.15216   0.73739   0.00000  Uiso   1.00
N648   N     0.18638   0.18117   0.76260   0.00000  Uiso   1.00
N649   N     0.04728   0.00063   0.69532   0.00000  Uiso   1.00
N650   N     0.28220   0.00015   0.79902   0.00000  Uiso   1.00
O651   O     0.29719   0.24631   0.75309   0.00000  Uiso   1.00
O652   O     0.03614   0.08702   0.74690   0.00000  Uiso   1.00
O653   O     0.05822   0.23702   0.74501   0.00000  Uiso   1.00
O654   O     0.27512   0.09632   0.75498   0.00000  Uiso   1.00
O655   O     0.30328   0.17397   0.82247   0.00000  Uiso   1.00
O656   O     0.03005   0.15937   0.67753   0.00000  Uiso   1.00
O657   O     0.06431   0.16467   0.81439   0.00000  Uiso   1.00
O658   O     0.26902   0.16866   0.68561   0.00000  Uiso   1.00
Zn659  Zn    0.27033   0.17287   0.75539   0.00000  Uiso   1.00
Zn660  Zn    0.06300   0.16046   0.74460   0.00000  Uiso   1.00
C661   C     0.34740   0.26434   0.74645   0.00000  Uiso   1.00
C662   C     0.64560   0.16227   0.65897   0.00000  Uiso   1.00
C663   C     0.36379   0.17245   0.89393   0.00000  Uiso   1.00
C664   C     0.63398   0.15228   0.60646   0.00000  Uiso   1.00
C665   C     0.34598   0.20891   0.97504   0.00000  Uiso   1.00
C666   C     0.64114   0.09687   0.53192   0.00000  Uiso   1.00
C667   C     0.66273   0.19995   0.92539   0.00000  Uiso   1.00
C668   C     0.66299   0.11556   0.57875   0.00000  Uiso   1.00
C669   C     0.41143   0.15007   0.91248   0.00000  Uiso   1.00
C670   C     0.58546   0.17201   0.58671   0.00000  Uiso   1.00
C671   C     0.42960   0.15915   0.96188   0.00000  Uiso   1.00
C672   C     0.65229   0.06884   0.75160   0.00000  Uiso   1.00
C673   C     0.55908   0.14923   0.54278   0.00000  Uiso   1.00
C674   C     0.39707   0.19068   0.99301   0.00000  Uiso   1.00
C675   C     0.58865   0.11251   0.51421   0.00000  Uiso   1.00
C676   C     0.48160   0.14145   0.97989   0.00000  Uiso   1.00
C677   C     0.50383   0.16132   0.52722   0.00000  Uiso   1.00
C678   C     0.42315   0.30261   0.67397   0.00000  Uiso   1.00
C679   C     0.64658   0.00253   0.84626   0.00000  Uiso   1.00
C680   C     0.49398   0.12432   0.69230   0.00000  Uiso   1.00
C681   C     0.50607   0.20885   0.80781   0.00000  Uiso   1.00
C682   C     0.46944   0.19125   0.55799   0.00000  Uiso   1.00
C683   C     0.51228   0.10498   0.95207   0.00000  Uiso   1.00
C684   C     0.41670   0.20500   0.54119   0.00000  Uiso   1.00
C685   C     0.56479   0.09076   0.96915   0.00000  Uiso   1.00
C686   C     0.35086   0.31753   0.73644   0.00000  Uiso   1.00
C687   C     0.64832   0.01560   0.75975   0.00000  Uiso   1.00
C688   C     0.35422   0.17023   0.84103   0.00000  Uiso   1.00
H689   H     0.39186   0.22828   0.56567   0.00000  Uiso   1.00
H690   H     0.49594   0.08499   0.91763   0.00000  Uiso   1.00
H691   H     0.35645   0.01886   0.67007   0.00000  Uiso   1.00
H692   H     0.44313   0.32371   0.64506   0.00000  Uiso   1.00
H693   H     0.40368   0.26471   0.65678   0.00000  Uiso   1.00
H694   H     0.45681   0.29622   0.70229   0.00000  Uiso   1.00
H695   H     0.57781   0.01795   0.80112   0.00000  Uiso   1.00
H696   H     0.61877   0.32070   0.87373   0.00000  Uiso   1.00
H697   H     0.66113   0.04365   0.85856   0.00000  Uiso   1.00
H698   H     0.35024   0.31137   0.84428   0.00000  Uiso   1.00
H699   H     0.45690   0.09832   0.67794   0.00000  Uiso   1.00
H700   H     0.58663   0.06229   0.94709   0.00000  Uiso   1.00
H701   H     0.50210   0.15220   0.66442   0.00000  Uiso   1.00
H702   H     0.52921   0.09890   0.69811   0.00000  Uiso   1.00
H703   H     0.49848   0.18088   0.83578   0.00000  Uiso   1.00
H704   H     0.54300   0.23516   0.82196   0.00000  Uiso   1.00
H705   H     0.47056   0.23401   0.80216   0.00000  Uiso   1.00
H706   H     0.56763   0.20346   0.60801   0.00000  Uiso   1.00
H707   H     0.43598   0.12891   0.88664   0.00000  Uiso   1.00
H708   H     0.36762   0.09992   0.59394   0.00000  Uiso   1.00
H709   H     0.62497   0.21680   0.91128   0.00000  Uiso   1.00
H710   H     0.65365   0.23203   0.99889   0.00000  Uiso   1.00
H711   H     0.66379   0.06845   0.51059   0.00000  Uiso   1.00
H712   H     0.48137   0.20384   0.59579   0.00000  Uiso   1.00
N713   N     0.48029   0.15216   0.73739   0.00000  Uiso   1.00
N714   N     0.51971   0.18117   0.76260   0.00000  Uiso   1.00
N715   N     0.38061   0.00063   0.69532   0.00000  Uiso   1.00
N716   N     0.61553   0.00015   0.79902   0.00000  Uiso   1.00
O717   O     0.63052   0.24631   0.75309   0.00000  Uiso   1.00
O718   O     0.36948   0.08702   0.74690   0.00000  Uiso   1.00
O719   O     0.39155   0.23702   0.74501   0.00000  Uiso   1.00
O720   O     0.60845   0.09632   0.75498   0.00000  Uiso   1.00
O721   O     0.63662   0.17397   0.82247   0.00000  Uiso   1.00
O722   O     0.36338   0.15937   0.67753   0.00000  Uiso   1.00
O723   O     0.39764   0.16467   0.81439   0.00000  Uiso   1.00
O724   O     0.60236   0.16866   0.68561   0.00000  Uiso   1.00
Zn725  Zn    0.60366   0.17287   0.75539   0.00000  Uiso   1.00
Zn726  Zn    0.39634   0.16046   0.74460   0.00000  Uiso   1.00
C727   C     0.68073   0.26434   0.74645   0.00000  Uiso   1.00
C728   C     0.97893   0.16227   0.65897   0.00000  Uiso   1.00
C729   C     0.69712   0.17245   0.89393   0.00000  Uiso   1.00
C730   C     0.96732   0.15228   0.60646   0.00000  Uiso   1.00
C731   C     0.67932   0.20891   0.97504   0.00000  Uiso   1.00
C732   C     0.97448   0.09687   0.53192   0.00000  Uiso   1.00
C733   C     0.99606   0.19995   0.92539   0.00000  Uiso   1.00
C734   C     0.99633   0.11556   0.57875   0.00000  Uiso   1.00
C735   C     0.74477   0.15007   0.91248   0.00000  Uiso   1.00
C736   C     0.91880   0.17201   0.58671   0.00000  Uiso   1.00
C737   C     0.76293   0.15915   0.96188   0.00000  Uiso   1.00
C738   C     0.98562   0.06884   0.75160   0.00000  Uiso   1.00
C739   C     0.89241   0.14923   0.54278   0.00000  Uiso   1.00
C740   C     0.73040   0.19068   0.99301   0.00000  Uiso   1.00
C741   C     0.92198   0.11251   0.51421   0.00000  Uiso   1.00
C742   C     0.81494   0.14145   0.97989   0.00000  Uiso   1.00
C743   C     0.83716   0.16132   0.52722   0.00000  Uiso   1.00
C744   C     0.75648   0.30261   0.67397   0.00000  Uiso   1.00
C745   C     0.97991   0.00253   0.84626   0.00000  Uiso   1.00
C746   C     0.82732   0.12432   0.69230   0.00000  Uiso   1.00
C747   C     0.83940   0.20885   0.80781   0.00000  Uiso   1.00
C748   C     0.80277   0.19125   0.55799   0.00000  Uiso   1.00
C749   C     0.84561   0.10498   0.95207   0.00000  Uiso   1.00
C750   C     0.75003   0.20500   0.54119   0.00000  Uiso   1.00
C751   C     0.89813   0.09076   0.96915   0.00000  Uiso   1.00
C752   C     0.68420   0.31753   0.73644   0.00000  Uiso   1.00
C753   C     0.98165   0.01560   0.75975   0.00000  Uiso   1.00
C754   C     0.68755   0.17023   0.84103   0.00000  Uiso   1.00
H755   H     0.72519   0.22828   0.56567   0.00000  Uiso   1.00
H756   H     0.82928   0.08499   0.91763   0.00000  Uiso   1.00
H757   H     0.68978   0.01886   0.67007   0.00000  Uiso   1.00
H758   H     0.77647   0.32371   0.64506   0.00000  Uiso   1.00
H759   H     0.73702   0.26471   0.65678   0.00000  Uiso   1.00
H760   H     0.79014   0.29622   0.70229   0.00000  Uiso   1.00
H761   H     0.91114   0.01795   0.80112   0.00000  Uiso   1.00
H762   H     0.95210   0.32070   0.87373   0.00000  Uiso   1.00
H763   H     0.99447   0.04365   0.85856   0.00000  Uiso   1.00
H764   H     0.68357   0.31137   0.84428   0.00000  Uiso   1.00
H765   H     0.79023   0.09832   0.67794   0.00000  Uiso   1.00
H766   H     0.91997   0.06229   0.94709   0.00000  Uiso   1.00
H767   H     0.83544   0.15220   0.66442   0.00000  Uiso   1.00
H768   H     0.86255   0.09890   0.69811   0.00000  Uiso   1.00
H769   H     0.83181   0.18088   0.83578   0.00000  Uiso   1.00
H770   H     0.87634   0.23516   0.82196   0.00000  Uiso   1.00
H771   H     0.80390   0.23401   0.80216   0.00000  Uiso   1.00
H772   H     0.90097   0.20346   0.60801   0.00000  Uiso   1.00
H773   H     0.76932   0.12891   0.88664   0.00000  Uiso   1.00
H774   H     0.70095   0.09992   0.59394   0.00000  Uiso   1.00
H775   H     0.95831   0.21680   0.91128   0.00000  Uiso   1.00
H776   H     0.98698   0.23203   0.99889   0.00000  Uiso   1.00
H777   H     0.99712   0.06845   0.51059   0.00000  Uiso   1.00
H778   H     0.81470   0.20384   0.59579   0.00000  Uiso   1.00
N779   N     0.81362   0.15216   0.73739   0.00000  Uiso   1.00
N780   N     0.85305   0.18117   0.76260   0.00000  Uiso   1.00
N781   N     0.71394   0.00063   0.69532   0.00000  Uiso   1.00
N782   N     0.94887   0.00015   0.79902   0.00000  Uiso   1.00
O783   O     0.96386   0.24631   0.75309   0.00000  Uiso   1.00
O784   O     0.70281   0.08702   0.74690   0.00000  Uiso   1.00
O785   O     0.72488   0.23702   0.74501   0.00000  Uiso   1.00
O786   O     0.94178   0.09632   0.75498   0.00000  Uiso   1.00
O787   O     0.96995   0.17397   0.82247   0.00000  Uiso   1.00
O788   O     0.69672   0.15937   0.67753   0.00000  Uiso   1.00
O789   O     0.73098   0.16467   0.81439   0.00000  Uiso   1.00
O790   O     0.93569   0.16866   0.68561   0.00000  Uiso   1.00
Zn791  Zn    0.93700   0.17287   0.75539   0.00000  Uiso   1.00
Zn792  Zn    0.72967   0.16046   0.74460   0.00000  Uiso   1.00
C793   C     0.01406   0.59768   0.74645   0.00000  Uiso   1.00
C794   C     0.31227   0.49560   0.65897   0.00000  Uiso   1.00
C795   C     0.03045   0.50578   0.89393   0.00000  Uiso   1.00
C796   C     0.30065   0.48561   0.60646   0.00000  Uiso   1.00
C797   C     0.01265   0.54225   0.97504   0.00000  Uiso   1.00
C798   C     0.30781   0.43021   0.53192   0.00000  Uiso   1.00
C799   C     0.32939   0.53329   0.92539   0.00000  Uiso   1.00
C800   C     0.32966   0.44889   0.57875   0.00000  Uiso   1.00
C801   C     0.07810   0.48341   0.91248   0.00000  Uiso   1.00
C802   C     0.25213   0.50535   0.58671   0.00000  Uiso   1.00
C803   C     0.09627   0.49248   0.96188   0.00000  Uiso   1.00
C804   C     0.31895   0.40217   0.75160   0.00000  Uiso   1.00
C805   C     0.22575   0.48257   0.54278   0.00000  Uiso   1.00
C806   C     0.06373   0.52401   0.99301   0.00000  Uiso   1.00
C807   C     0.25532   0.44584   0.51421   0.00000  Uiso   1.00
C808   C     0.14827   0.47478   0.97989   0.00000  Uiso   1.00
C809   C     0.17050   0.49466   0.52722   0.00000  Uiso   1.00
C810   C     0.08982   0.63594   0.67397   0.00000  Uiso   1.00
C811   C     0.31325   0.33587   0.84626   0.00000  Uiso   1.00
C812   C     0.16065   0.45766   0.69230   0.00000  Uiso   1.00
C813   C     0.17273   0.54218   0.80781   0.00000  Uiso   1.00
C814   C     0.13610   0.52458   0.55799   0.00000  Uiso   1.00
C815   C     0.17894   0.43831   0.95207   0.00000  Uiso   1.00
C816   C     0.08337   0.53833   0.54119   0.00000  Uiso   1.00
C817   C     0.23146   0.42409   0.96915   0.00000  Uiso   1.00
C818   C     0.01753   0.65086   0.73644   0.00000  Uiso   1.00
C819   C     0.31498   0.34893   0.75975   0.00000  Uiso   1.00
C820   C     0.02089   0.50356   0.84103   0.00000  Uiso   1.00
H821   H     0.05852   0.56161   0.56567   0.00000  Uiso   1.00
H822   H     0.16261   0.41832   0.91763   0.00000  Uiso   1.00
H823   H     0.02311   0.35219   0.67007   0.00000  Uiso   1.00
H824   H     0.10980   0.65704   0.64506   0.00000  Uiso   1.00
H825   H     0.07035   0.59804   0.65678   0.00000  Uiso   1.00
H826   H     0.12347   0.62956   0.70229   0.00000  Uiso   1.00
H827   H     0.24448   0.35128   0.80112   0.00000  Uiso   1.00
H828   H     0.28544   0.65403   0.87373   0.00000  Uiso   1.00
H829   H     0.32780   0.37698   0.85856   0.00000  Uiso   1.00
H830   H     0.01690   0.64470   0.84428   0.00000  Uiso   1.00
H831   H     0.12356   0.43165   0.67794   0.00000  Uiso   1.00
H832   H     0.25330   0.39562   0.94709   0.00000  Uiso   1.00
H833   H     0.16877   0.48554   0.66442   0.00000  Uiso   1.00
H834   H     0.19588   0.43224   0.69811   0.00000  Uiso   1.00
H835   H     0.16514   0.51421   0.83578   0.00000  Uiso   1.00
H836   H     0.20967   0.56849   0.82196   0.00000  Uiso   1.00
H837   H     0.13723   0.56734   0.80216   0.00000  Uiso   1.00
H838   H     0.23430   0.53680   0.60801   0.00000  Uiso   1.00
H839   H     0.10265   0.46224   0.88664   0.00000  Uiso   1.00
H840   H     0.03428   0.43325   0.59394   0.00000  Uiso   1.00
H841   H     0.29164   0.55013   0.91128   0.00000  Uiso   1.00
H842   H     0.32031   0.56537   0.99889   0.00000  Uiso   1.00
H843   H     0.33046   0.40179   0.51059   0.00000  Uiso   1.00
H844   H     0.14804   0.53718   0.59579   0.00000  Uiso   1.00
N845   N     0.14695   0.48550   0.73739   0.00000  Uiso   1.00
N846   N     0.18638   0.51450   0.76260   0.00000  Uiso   1.00
N847   N     0.04728   0.33397   0.69532   0.00000  Uiso   1.00
N848   N     0.28220   0.33349   0.79902   0.00000  Uiso   1.00
O849   O     0.29719   0.57964   0.75309   0.00000  Uiso   1.00
O850   O     0.03614   0.42036   0.74690   0.00000  Uiso   1.00
O851   O     0.05822   0.57035   0.74501   0.00000  Uiso   1.00
O852   O     0.27512   0.42965   0.75498   0.00000  Uiso   1.00
O853   O     0.30328   0.50730   0.82247   0.00000  Uiso   1.00
O854   O     0.03005   0.49270   0.67753   0.00000  Uiso   1.00
O855   O     0.06431   0.49801   0.81439   0.00000  Uiso   1.00
O856   O     0.26902   0.50199   0.68561   0.00000  Uiso   1.00
Zn857  Zn    0.27033   0.50621   0.75539   0.00000  Uiso   1.00
Zn858  Zn    0.06300   0.49379   0.74460   0.00000  Uiso   1.00
C859   C     0.34740   0.59768   0.74645   0.00000  Uiso   1.00
C860   C     0.64560   0.49560   0.65897   0.00000  Uiso   1.00
C861   C     0.36379   0.50578   0.89393   0.00000  Uiso   1.00
C862   C     0.63398   0.48561   0.60646   0.00000  Uiso   1.00
C863   C     0.34598   0.54225   0.97504   0.00000  Uiso   1.00
C864   C     0.64114   0.43021   0.53192   0.00000  Uiso   1.00
C865   C     0.66273   0.53329   0.92539   0.00000  Uiso   1.00
C866   C     0.66299   0.44889   0.57875   0.00000  Uiso   1.00
C867   C     0.41143   0.48341   0.91248   0.00000  Uiso   1.00
C868   C     0.58546   0.50535   0.58671   0.00000  Uiso   1.00
C869   C     0.42960   0.49248   0.96188   0.00000  Uiso   1.00
C870   C     0.65229   0.40217   0.75160   0.00000  Uiso   1.00
C871   C     0.55908   0.48257   0.54278   0.00000  Uiso   1.00
C872   C     0.39707   0.52401   0.99301   0.00000  Uiso   1.00
C873   C     0.58865   0.44584   0.51421   0.00000  Uiso   1.00
C874   C     0.48160   0.47478   0.97989   0.00000  Uiso   1.00
C875   C     0.50383   0.49466   0.52722   0.00000  Uiso   1.00
C876   C     0.42315   0.63594   0.67397   0.00000  Uiso   1.00
C877   C     0.64658   0.33587   0.84626   0.00000  Uiso   1.00
C878   C     0.49398   0.45766   0.69230   0.00000  Uiso   1.00
C879   C     0.50607   0.54218   0.80781   0.00000  Uiso   1.00
C880   C     0.46944   0.52458   0.55799   0.00000  Uiso   1.00
C881   C     0.51228   0.43831   0.95207   0.00000  Uiso   1.00
C882   C     0.41670   0.53833   0.54119   0.00000  Uiso   1.00
C883   C     0.56479   0.42409   0.96915   0.00000  Uiso   1.00
C884   C     0.35086   0.65086   0.73644   0.00000  Uiso   1.00
C885   C     0.64832   0.34893   0.75975   0.00000  Uiso   1.00
C886   C     0.35422   0.50356   0.84103   0.00000  Uiso   1.00
H887   H     0.39186   0.56161   0.56567   0.00000  Uiso   1.00
H888   H     0.49594   0.41832   0.91763   0.00000  Uiso   1.00
H889   H     0.35645   0.35219   0.67007   0.00000  Uiso   1.00
H890   H     0.44313   0.65704   0.64506   0.00000  Uiso   1.00
H891   H     0.40368   0.59804   0.65678   0.00000  Uiso   1.00
H892   H     0.45681   0.62956   0.70229   0.00000  Uiso   1.00
H893   H     0.57781   0.35128   0.80112   0.00000  Uiso   1.00
H894   H     0.61877   0.65403   0.87373   0.00000  Uiso   1.00
H895   H     0.66113   0.37698   0.85856   0.00000  Uiso   1.00
H896   H     0.35024   0.64470   0.84428   0.00000  Uiso   1.00
H897   H     0.45690   0.43165   0.67794   0.00000  Uiso   1.00
H898   H     0.58663   0.39562   0.94709   0.00000  Uiso   1.00
H899   H     0.50210   0.48554   0.66442   0.00000  Uiso   1.00
H900   H     0.52921   0.43224   0.69811   0.00000  Uiso   1.00
H901   H     0.49848   0.51421   0.83578   0.00000  Uiso   1.00
H902   H     0.54300   0.56849   0.82196   0.00000  Uiso   1.00
H903   H     0.47056   0.56734   0.80216   0.00000  Uiso   1.00
H904   H     0.56763   0.53680   0.60801   0.00000  Uiso   1.00
H905   H     0.43598   0.46224   0.88664   0.00000  Uiso   1.00
H906   H     0.36762   0.43325   0.59394   0.00000  Uiso   1.00
H907   H     0.62497   0.55013   0.91128   0.00000  Uiso   1.00
H908   H     0.65365   0.56537   0.99889   0.00000  Uiso   1.00
H909   H     0.66379   0.40179   0.51059   0.00000  Uiso   1.00
H910   H     0.48137   0.53718   0.59579   0.00000  Uiso   1.00
N911   N     0.48029   0.48550   0.73739   0.00000  Uiso   1.00
N912   N     0.51971   0.51450   0.76260   0.00000  Uiso   1.00
N913   N     0.38061   0.33397   0.69532   0.00000  Uiso   1.00
N914   N     0.61553   0.33349   0.79902   0.00000  Uiso   1.00
O915   O     0.63052   0.57964   0.75309   0.00000  Uiso   1.00
O916   O     0.36948   0.42036   0.74690   0.00000  Uiso   1.00
O917   O     0.39155   0.57035   0.74501   0.00000  Uiso   1.00
O918   O     0.60845   0.42965   0.75498   0.00000  Uiso   1.00
O919   O     0.63662   0.50730   0.82247   0.00000  Uiso   1.00
O920   O     0.36338   0.49270   0.67753   0.00000  Uiso   1.00
O921   O     0.39764   0.49801   0.81439   0.00000  Uiso   1.00
O922   O     0.60236   0.50199   0.68561   0.00000  Uiso   1.00
Zn923  Zn    0.60366   0.50621   0.75539   0.00000  Uiso   1.00
Zn924  Zn    0.39634   0.49379   0.74460   0.00000  Uiso   1.00
C925   C     0.68073   0.59768   0.74645   0.00000  Uiso   1.00
C926   C     0.97893   0.49560   0.65897   0.00000  Uiso   1.00
C927   C     0.69712   0.50578   0.89393   0.00000  Uiso   1.00
C928   C     0.96732   0.48561   0.60646   0.00000  Uiso   1.00
C929   C     0.67932   0.54225   0.97504   0.00000  Uiso   1.00
C930   C     0.97448   0.43021   0.53192   0.00000  Uiso   1.00
C931   C     0.99606   0.53329   0.92539   0.00000  Uiso   1.00
C932   C     0.99633   0.44889   0.57875   0.00000  Uiso   1.00
C933   C     0.74477   0.48341   0.91248   0.00000  Uiso   1.00
C934   C     0.91880   0.50535   0.58671   0.00000  Uiso   1.00
C935   C     0.76293   0.49248   0.96188   0.00000  Uiso   1.00
C936   C     0.98562   0.40217   0.75160   0.00000  Uiso   1.00
C937   C     0.89241   0.48257   0.54278   0.00000  Uiso   1.00
C938   C     0.73040   0.52401   0.99301   0.00000  Uiso   1.00
C939   C     0.92198   0.44584   0.51421   0.00000  Uiso   1.00
C940   C     0.81494   0.47478   0.97989   0.00000  Uiso   1.00
C941   C     0.83716   0.49466   0.52722   0.00000  Uiso   1.00
C942   C     0.75648   0.63594   0.67397   0.00000  Uiso   1.00
C943   C     0.97991   0.33587   0.84626   0.00000  Uiso   1.00
C944   C     0.82732   0.45766   0.69230   0.00000  Uiso   1.00
C945   C     0.83940   0.54218   0.80781   0.00000  Uiso   1.00
C946   C     0.80277   0.52458   0.55799   0.00000  Uiso   1.00
C947   C     0.84561   0.43831   0.95207   0.00000  Uiso   1.00
C948   C     0.75003   0.53833   0.54119   0.00000  Uiso   1.00
C949   C     0.89813   0.42409   0.96915   0.00000  Uiso   1.00
C950   C     0.68420   0.65086   0.73644   0.00000  Uiso   1.00
C951   C     0.98165   0.34893   0.75975   0.00000  Uiso   1.00
C952   C     0.68755   0.50356   0.84103   0.00000  Uiso   1.00
H953   H     0.72519   0.56161   0.56567   0.00000  Uiso   1.00
H954   H     0.82928   0.41832   0.91763   0.00000  Uiso   1.00
H955   H     0.68978   0.35219   0.67007   0.00000  Uiso   1.00
H956   H     0.77647   0.65704   0.64506   0.00000  Uiso   1.00
H957   H     0.73702   0.59804   0.65678   0.00000  Uiso   1.00
H958   H     0.79014   0.62956   0.70229   0.00000  Uiso   1.00
H959   H     0.91114   0.35128   0.80112   0.00000  Uiso   1.00
H960   H     0.95210   0.65403   0.87373   0.00000  Uiso   1.00
H961   H     0.99447   0.37698   0.85856   0.00000  Uiso   1.00
H962   H     0.68357   0.64470   0.84428   0.00000  Uiso   1.00
H963   H     0.79023   0.43165   0.67794   0.00000  Uiso   1.00
H964   H     0.91997   0.39562   0.94709   0.00000  Uiso   1.00
H965   H     0.83544   0.48554   0.66442   0.00000  Uiso   1.00
H966   H     0.86255   0.43224   0.69811   0.00000  Uiso   1.00
H967   H     0.83181   0.51421   0.83578   0.00000  Uiso   1.00
H968   H     0.87634   0.56849   0.82196   0.00000  Uiso   1.00
H969   H     0.80390   0.56734   0.80216   0.00000  Uiso   1.00
H970   H     0.90097   0.53680   0.60801   0.00000  Uiso   1.00
H971   H     0.76932   0.46224   0.88664   0.00000  Uiso   1.00
H972   H     0.70095   0.43325   0.59394   0.00000  Uiso   1.00
H973   H     0.95831   0.55013   0.91128   0.00000  Uiso   1.00
H974   H     0.98698   0.56537   0.99889   0.00000  Uiso   1.00
H975   H     0.99712   0.40179   0.51059   0.00000  Uiso   1.00
H976   H     0.81470   0.53718   0.59579   0.00000  Uiso   1.00
N977   N     0.81362   0.48550   0.73739   0.00000  Uiso   1.00
N978   N     0.85305   0.51450   0.76260   0.00000  Uiso   1.00
N979   N     0.71394   0.33397   0.69532   0.00000  Uiso   1.00
N980   N     0.94887   0.33349   0.79902   0.00000  Uiso   1.00
O981   O     0.96386   0.57964   0.75309   0.00000  Uiso   1.00
O982   O     0.70281   0.42036   0.74690   0.00000  Uiso   1.00
O983   O     0.72488   0.57035   0.74501   0.00000  Uiso   1.00
O984   O     0.94178   0.42965   0.75498   0.00000  Uiso   1.00
O985   O     0.96995   0.50730   0.82247   0.00000  Uiso   1.00
O986   O     0.69672   0.49270   0.67753   0.00000  Uiso   1.00
O987   O     0.73098   0.49801   0.81439   0.00000  Uiso   1.00
O988   O     0.93569   0.50199   0.68561   0.00000  Uiso   1.00
Zn989  Zn    0.93700   0.50621   0.75539   0.00000  Uiso   1.00
Zn990  Zn    0.72967   0.49379   0.74460   0.00000  Uiso   1.00
C991   C     0.01406   0.93101   0.74645   0.00000  Uiso   1.00
C992   C     0.31227   0.82893   0.65897   0.00000  Uiso   1.00
C993   C     0.03045   0.83912   0.89393   0.00000  Uiso   1.00
C994   C     0.30065   0.81894   0.60646   0.00000  Uiso   1.00
C995   C     0.01265   0.87558   0.97504   0.00000  Uiso   1.00
C996   C     0.30781   0.76354   0.53192   0.00000  Uiso   1.00
C997   C     0.32939   0.86662   0.92539   0.00000  Uiso   1.00
C998   C     0.32966   0.78222   0.57875   0.00000  Uiso   1.00
C999   C     0.07810   0.81674   0.91248   0.00000  Uiso   1.00
C1000  C     0.25213   0.83868   0.58671   0.00000  Uiso   1.00
C1001  C     0.09627   0.82582   0.96188   0.00000  Uiso   1.00
C1002  C     0.31895   0.73551   0.75160   0.00000  Uiso   1.00
C1003  C     0.22575   0.81590   0.54278   0.00000  Uiso   1.00
C1004  C     0.06373   0.85735   0.99301   0.00000  Uiso   1.00
C1005  C     0.25532   0.77917   0.51421   0.00000  Uiso   1.00
C1006  C     0.14827   0.80811   0.97989   0.00000  Uiso   1.00
C1007  C     0.17050   0.82799   0.52722   0.00000  Uiso   1.00
C1008  C     0.08982   0.96927   0.67397   0.00000  Uiso   1.00
C1009  C     0.31325   0.66920   0.84626   0.00000  Uiso   1.00
C1010  C     0.16065   0.79099   0.69230   0.00000  Uiso   1.00
C1011  C     0.17273   0.87551   0.80781   0.00000  Uiso   1.00
C1012  C     0.13610   0.85791   0.55799   0.00000  Uiso   1.00
C1013  C     0.17894   0.77165   0.95207   0.00000  Uiso   1.00
C1014  C     0.08337   0.87166   0.54119   0.00000  Uiso   1.00
C1015  C     0.23146   0.75743   0.96915   0.00000  Uiso   1.00
C1016  C     0.01753   0.98419   0.73644   0.00000  Uiso   1.00
C1017  C     0.31498   0.68226   0.75975   0.00000  Uiso   1.00
C1018  C     0.02089   0.83690   0.84103   0.00000  Uiso   1.00
H1019  H     0.05852   0.89495   0.56567   0.00000  Uiso   1.00
H1020  H     0.16261   0.75166   0.91763   0.00000  Uiso   1.00
H1021  H     0.02311   0.68553   0.67007   0.00000  Uiso   1.00
H1022  H     0.10980   0.99038   0.64506   0.00000  Uiso   1.00
H1023  H     0.07035   0.93138   0.65678   0.00000  Uiso   1.00
H1024  H     0.12347   0.96289   0.70229   0.00000  Uiso   1.00
H1025  H     0.24448   0.68462   0.80112   0.00000  Uiso   1.00
H1026  H     0.28544   0.98736   0.87373   0.00000  Uiso   1.00
H1027  H     0.32780   0.71031   0.85856   0.00000  Uiso   1.00
H1028  H     0.01690   0.97804   0.84428   0.00000  Uiso   1.00
H1029  H     0.12356   0.76499   0.67794   0.00000  Uiso   1.00
H1030  H     0.25330   0.72895   0.94709   0.00000  Uiso   1.00
H1031  H     0.16877   0.81887   0.66442   0.00000  Uiso   1.00
H1032  H     0.19588   0.76557   0.69811   0.00000  Uiso   1.00
H1033  H     0.16514   0.84754   0.83578   0.00000  Uiso   1.00
H1034  H     0.20967   0.90182   0.82196   0.00000  Uiso   1.00
H1035  H     0.13723   0.90067   0.80216   0.00000  Uiso   1.00
H1036  H     0.23430   0.87013   0.60801   0.00000  Uiso   1.00
H1037  H     0.10265   0.79558   0.88664   0.00000  Uiso   1.00
H1038  H     0.03428   0.76658   0.59394   0.00000  Uiso   1.00
H1039  H     0.29164   0.88347   0.91128   0.00000  Uiso   1.00
H1040  H     0.32031   0.89870   0.99889   0.00000  Uiso   1.00
H1041  H     0.33046   0.73512   0.51059   0.00000  Uiso   1.00
H1042  H     0.14804   0.87051   0.59579   0.00000  Uiso   1.00
N1043  N     0.14695   0.81883   0.73739   0.00000  Uiso   1.00
N1044  N     0.18638   0.84784   0.76260   0.00000  Uiso   1.00
N1045  N     0.04728   0.66730   0.69532   0.00000  Uiso   1.00
N1046  N     0.28220   0.66682   0.79902   0.00000  Uiso   1.00
O1047  O     0.29719   0.91298   0.75309   0.00000  Uiso   1.00
O1048  O     0.03614   0.75369   0.74690   0.00000  Uiso   1.00
O1049  O     0.05822   0.90368   0.74501   0.00000  Uiso   1.00
O1050  O     0.27512   0.76298   0.75498   0.00000  Uiso   1.00
O1051  O     0.30328   0.84063   0.82247   0.00000  Uiso   1.00
O1052  O     0.03005   0.82603   0.67753   0.00000  Uiso   1.00
O1053  O     0.06431   0.83134   0.81439   0.00000  Uiso   1.00
O1054  O     0.26902   0.83533   0.68561   0.00000  Uiso   1.00
Zn1055 Zn    0.27033   0.83954   0.75539   0.00000  Uiso   1.00
Zn1056 Zn    0.06300   0.82713   0.74460   0.00000  Uiso   1.00
C1057  C     0.34740   0.93101   0.74645   0.00000  Uiso   1.00
C1058  C     0.64560   0.82893   0.65897   0.00000  Uiso   1.00
C1059  C     0.36379   0.83912   0.89393   0.00000  Uiso   1.00
C1060  C     0.63398   0.81894   0.60646   0.00000  Uiso   1.00
C1061  C     0.34598   0.87558   0.97504   0.00000  Uiso   1.00
C1062  C     0.64114   0.76354   0.53192   0.00000  Uiso   1.00
C1063  C     0.66273   0.86662   0.92539   0.00000  Uiso   1.00
C1064  C     0.66299   0.78222   0.57875   0.00000  Uiso   1.00
C1065  C     0.41143   0.81674   0.91248   0.00000  Uiso   1.00
C1066  C     0.58546   0.83868   0.58671   0.00000  Uiso   1.00
C1067  C     0.42960   0.82582   0.96188   0.00000  Uiso   1.00
C1068  C     0.65229   0.73551   0.75160   0.00000  Uiso   1.00
C1069  C     0.55908   0.81590   0.54278   0.00000  Uiso   1.00
C1070  C     0.39707   0.85735   0.99301   0.00000  Uiso   1.00
C1071  C     0.58865   0.77917   0.51421   0.00000  Uiso   1.00
C1072  C     0.48160   0.80811   0.97989   0.00000  Uiso   1.00
C1073  C     0.50383   0.82799   0.52722   0.00000  Uiso   1.00
C1074  C     0.42315   0.96927   0.67397   0.00000  Uiso   1.00
C1075  C     0.64658   0.66920   0.84626   0.00000  Uiso   1.00
C1076  C     0.49398   0.79099   0.69230   0.00000  Uiso   1.00
C1077  C     0.50607   0.87551   0.80781   0.00000  Uiso   1.00
C1078  C     0.46944   0.85791   0.55799   0.00000  Uiso   1.00
C1079  C     0.51228   0.77165   0.95207   0.00000  Uiso   1.00
C1080  C     0.41670   0.87166   0.54119   0.00000  Uiso   1.00
C1081  C     0.56479   0.75743   0.96915   0.00000  Uiso   1.00
C1082  C     0.35086   0.98419   0.73644   0.00000  Uiso   1.00
C1083  C     0.64832   0.68226   0.75975   0.00000  Uiso   1.00
C1084  C     0.35422   0.83690   0.84103   0.00000  Uiso   1.00
H1085  H     0.39186   0.89495   0.56567   0.00000  Uiso   1.00
H1086  H     0.49594   0.75166   0.91763   0.00000  Uiso   1.00
H1087  H     0.35645   0.68553   0.67007   0.00000  Uiso   1.00
H1088  H     0.44313   0.99038   0.64506   0.00000  Uiso   1.00
H1089  H     0.40368   0.93138   0.65678   0.00000  Uiso   1.00
H1090  H     0.45681   0.96289   0.70229   0.00000  Uiso   1.00
H1091  H     0.57781   0.68462   0.80112   0.00000  Uiso   1.00
H1092  H     0.61877   0.98736   0.87373   0.00000  Uiso   1.00
H1093  H     0.66113   0.71031   0.85856   0.00000  Uiso   1.00
H1094  H     0.35024   0.97804   0.84428   0.00000  Uiso   1.00
H1095  H     0.45690   0.76499   0.67794   0.00000  Uiso   1.00
H1096  H     0.58663   0.72895   0.94709   0.00000  Uiso   1.00
H1097  H     0.50210   0.81887   0.66442   0.00000  Uiso   1.00
H1098  H     0.52921   0.76557   0.69811   0.00000  Uiso   1.00
H1099  H     0.49848   0.84754   0.83578   0.00000  Uiso   1.00
H1100  H     0.54300   0.90182   0.82196   0.00000  Uiso   1.00
H1101  H     0.47056   0.90067   0.80216   0.00000  Uiso   1.00
H1102  H     0.56763   0.87013   0.60801   0.00000  Uiso   1.00
H1103  H     0.43598   0.79558   0.88664   0.00000  Uiso   1.00
H1104  H     0.36762   0.76658   0.59394   0.00000  Uiso   1.00
H1105  H     0.62497   0.88347   0.91128   0.00000  Uiso   1.00
H1106  H     0.65365   0.89870   0.99889   0.00000  Uiso   1.00
H1107  H     0.66379   0.73512   0.51059   0.00000  Uiso   1.00
H1108  H     0.48137   0.87051   0.59579   0.00000  Uiso   1.00
N1109  N     0.48029   0.81883   0.73739   0.00000  Uiso   1.00
N1110  N     0.51971   0.84784   0.76260   0.00000  Uiso   1.00
N1111  N     0.38061   0.66730   0.69532   0.00000  Uiso   1.00
N1112  N     0.61553   0.66682   0.79902   0.00000  Uiso   1.00
O1113  O     0.63052   0.91298   0.75309   0.00000  Uiso   1.00
O1114  O     0.36948   0.75369   0.74690   0.00000  Uiso   1.00
O1115  O     0.39155   0.90368   0.74501   0.00000  Uiso   1.00
O1116  O     0.60845   0.76298   0.75498   0.00000  Uiso   1.00
O1117  O     0.63662   0.84063   0.82247   0.00000  Uiso   1.00
O1118  O     0.36338   0.82603   0.67753   0.00000  Uiso   1.00
O1119  O     0.39764   0.83134   0.81439   0.00000  Uiso   1.00
O1120  O     0.60236   0.83533   0.68561   0.00000  Uiso   1.00
Zn1121 Zn    0.60366   0.83954   0.75539   0.00000  Uiso   1.00
Zn1122 Zn    0.39634   0.82713   0.74460   0.00000  Uiso   1.00
C1123  C     0.68073   0.93101   0.74645   0.00000  Uiso   1.00
C1124  C     0.97893   0.82893   0.65897   0.00000  Uiso   1.00
C1125  C     0.69712   0.83912   0.89393   0.00000  Uiso   1.00
C1126  C     0.96732   0.81894   0.60646   0.00000  Uiso   1.00
C1127  C     0.67932   0.87558   0.97504   0.00000  Uiso   1.00
C1128  C     0.97448   0.76354   0.53192   0.00000  Uiso   1.00
C1129  C     0.99606   0.86662   0.92539   0.00000  Uiso   1.00
C1130  C     0.99633   0.78222   0.57875   0.00000  Uiso   1.00
C1131  C     0.74477   0.81674   0.91248   0.00000  Uiso   1.00
C1132  C     0.91880   0.83868   0.58671   0.00000  Uiso   1.00
C1133  C     0.76293   0.82582   0.96188   0.00000  Uiso   1.00
C1134  C     0.98562   0.73551   0.75160   0.00000  Uiso   1.00
C1135  C     0.89241   0.81590   0.54278   0.00000  Uiso   1.00
C1136  C     0.73040   0.85735   0.99301   0.00000  Uiso   1.00
C1137  C     0.92198   0.77917   0.51421   0.00000  Uiso   1.00
C1138  C     0.81494   0.80811   0.97989   0.00000  Uiso   1.00
C1139  C     0.83716   0.82799   0.52722   0.00000  Uiso   1.00
C1140  C     0.75648   0.96927   0.67397   0.00000  Uiso   1.00
C1141  C     0.97991   0.66920   0.84626   0.00000  Uiso   1.00
C1142  C     0.82732   0.79099   0.69230   0.00000  Uiso   1.00
C1143  C     0.83940   0.87551   0.80781   0.00000  Uiso   1.00
C1144  C     0.80277   0.85791   0.55799   0.00000  Uiso   1.00
C1145  C     0.84561   0.77165   0.95207   0.00000  Uiso   1.00
C1146  C     0.75003   0.87166   0.54119   0.00000  Uiso   1.00
C1147  C     0.89813   0.75743   0.96915   0.00000  Uiso   1.00
C1148  C     0.68420   0.98419   0.73644   0.00000  Uiso   1.00
C1149  C     0.98165   0.68226   0.75975   0.00000  Uiso   1.00
C1150  C     0.68755   0.83690   0.84103   0.00000  Uiso   1.00
H1151  H     0.72519   0.89495   0.56567   0.00000  Uiso   1.00
H1152  H     0.82928   0.75166   0.91763   0.00000  Uiso   1.00
H1153  H     0.68978   0.68553   0.67007   0.00000  Uiso   1.00
H1154  H     0.77647   0.99038   0.64506   0.00000  Uiso   1.00
H1155  H     0.73702   0.93138   0.65678   0.00000  Uiso   1.00
H1156  H     0.79014   0.96289   0.70229   0.00000  Uiso   1.00
H1157  H     0.91114   0.68462   0.80112   0.00000  Uiso   1.00
H1158  H     0.95210   0.98736   0.87373   0.00000  Uiso   1.00
H1159  H     0.99447   0.71031   0.85856   0.00000  Uiso   1.00
H1160  H     0.68357   0.97804   0.84428   0.00000  Uiso   1.00
H1161  H     0.79023   0.76499   0.67794   0.00000  Uiso   1.00
H1162  H     0.91997   0.72895   0.94709   0.00000  Uiso   1.00
H1163  H     0.83544   0.81887   0.66442   0.00000  Uiso   1.00
H1164  H     0.86255   0.76557   0.69811   0.00000  Uiso   1.00
H1165  H     0.83181   0.84754   0.83578   0.00000  Uiso   1.00
H1166  H     0.87634   0.90182   0.82196   0.00000  Uiso   1.00
H1167  H     0.80390   0.90067   0.80216   0.00000  Uiso   1.00
H1168  H     0.90097   0.87013   0.60801   0.00000  Uiso   1.00
H1169  H     0.76932   0.79558   0.88664   0.00000  Uiso   1.00
H1170  H     0.70095   0.76658   0.59394   0.00000  Uiso   1.00
H1171  H     0.95831   0.88347   0.91128   0.00000  Uiso   1.00
H1172  H     0.98698   0.89870   0.99889   0.00000  Uiso   1.00
H1173  H     0.99712   0.73512   0.51059   0.00000  Uiso   1.00
H1174  H     0.81470   0.87051   0.59579   0.00000  Uiso   1.00
N1175  N     0.81362   0.81883   0.73739   0.00000  Uiso   1.00
N1176  N     0.85305   0.84784   0.76260   0.00000  Uiso   1.00
N1177  N     0.71394   0.66730   0.69532   0.00000  Uiso   1.00
N1178  N     0.94887   0.66682   0.79902   0.00000  Uiso   1.00
O1179  O     0.96386   0.91298   0.75309   0.00000  Uiso   1.00
O1180  O     0.70281   0.75369   0.74690   0.00000  Uiso   1.00
O1181  O     0.72488   0.90368   0.74501   0.00000  Uiso   1.00
O1182  O     0.94178   0.76298   0.75498   0.00000  Uiso   1.00
O1183  O     0.96995   0.84063   0.82247   0.00000  Uiso   1.00
O1184  O     0.69672   0.82603   0.67753   0.00000  Uiso   1.00
O1185  O     0.73098   0.83134   0.81439   0.00000  Uiso   1.00
O1186  O     0.93569   0.83533   0.68561   0.00000  Uiso   1.00
Zn1187 Zn    0.93700   0.83954   0.75539   0.00000  Uiso   1.00
Zn1188 Zn    0.72967   0.82713   0.74460   0.00000  Uiso   1.00
loop_
_geom_bond_atom_site_label_1
_geom_bond_atom_site_label_2
_geom_bond_distance
_geom_bond_site_symmetry_2
_ccdc_geom_bond_type
C1     O59     1.296   .     A
C1     C26     1.415   .     S
C1     O189    1.285   1_455 S
C2     C4      1.448   .     S
C2     O64     1.305   .     A
C2     O128    1.298   .     S
C3     C9      1.388   .     A
C3     C28     1.450   .     S
C3     C139    1.399   1_455 S
C4     C8      1.399   .     A
C4     C10     1.385   .     A
C5     C14     1.403   .     A
C5     C139    1.391   1_455 S
C5     H182    1.084   1_455 S
C6     H51     1.084   .     S
C6     C8      1.393   .     A
C6     C15     1.404   .     A
C7     H49     1.083   .     S
C7     C69     1.399   .     S
C7     C71     1.391   .     S
C8     H114    1.083   .     S
C9     C11     1.394   .     A
C9     H47     1.076   .     S
C10    H46     1.078   .     S
C10    C13     1.393   .     A
C11    C16     1.417   .     A
C11    C14     1.419   .     A
C12    C27     1.403   .     S
C12    O60     1.294   .     A
C12    O124    1.282   .     S
C13    C17     1.416   .     A
C13    C15     1.419   .     A
C14    C618    1.388   .     S
C15    C619    1.389   1_554 S
C16    C23     1.419   .     A
C16    C611    1.415   .     S
C17    C22     1.419   .     A
C17    C610    1.415   1_554 S
C18    H34     1.111   .     S
C18    H33     1.111   .     S
C18    H32     1.111   .     S
C18    N253    1.448   .     S
C19    N56     1.448   .     S
C19    H37     1.112   .     S
C19    H432    1.110   1_545 S
C19    H500    1.111   1_545 S
C20    H42     1.103   .     S
C20    H41     1.107   .     S
C20    H39     1.109   .     S
C20    N53     1.439   .     S
C21    H44     1.109   .     S
C21    H43     1.109   .     S
C21    N54     1.439   .     S
C21    H45     1.103   .     S
C22    C24     1.385   .     A
C22    H52     1.076   .     S
C23    C25     1.387   .     A
C23    H30     1.077   .     S
C24    H29     1.084   .     S
C24    C608    1.388   1_554 S
C25    H40     1.084   .     S
C25    C609    1.389   .     S
C26    C357    1.357   1_455 S
C26    N253    1.444   .     S
C27    N56     1.434   .     S
C27    C488    1.357   1_545 S
C28    O63     1.306   .     A
C28    O193    1.298   1_455 S
H31    N55     1.032   .     S
H35    N56     1.032   .     S
H36    C217    1.110   .     S
H38    C349    1.111   1_455 S
H48    C140    1.083   1_455 S
H50    C71     1.084   .     S
N53    N54     1.294   .     D
N53    Zn66    2.038   .     S
N54    Zn65    2.038   .     S
N55    C414    1.448   1_545 S
N55    C422    1.444   1_545 S
O57    Zn65    1.965   .     S
O57    C67     1.285   .     S
O58    Zn66    1.965   .     S
O58    C144    1.282   1_455 S
O59    Zn66    1.976   .     S
O60    Zn65    1.976   .     S
O61    Zn65    1.953   .     S
O61    C94     1.298   .     S
O62    Zn66    1.953   .     S
O62    C134    1.298   1_455 S
O63    Zn66    1.905   .     S
O64    Zn65    1.905   .     S
C67    O125    1.296   .     A
C67    C92     1.415   .     S
C68    C70     1.448   .     S
C68    O130    1.305   .     A
C68    O194    1.298   .     S
C69    C75     1.388   .     A
C69    C94     1.450   .     S
C70    C74     1.399   .     A
C70    C76     1.385   .     A
C71    C80     1.403   .     A
C72    H117    1.084   .     S
C72    C74     1.393   .     A
C72    C81     1.404   .     A
C73    H115    1.083   .     S
C73    C135    1.399   .     S
C73    C137    1.391   .     S
C74    H180    1.083   .     S
C75    C77     1.394   .     A
C75    H113    1.076   .     S
C76    H112    1.078   .     S
C76    C79     1.393   .     A
C77    C82     1.417   .     A
C77    C80     1.419   .     A
C78    C93     1.403   .     S
C78    O126    1.294   .     A
C78    O190    1.282   .     S
C79    C83     1.416   .     A
C79    C81     1.419   .     A
C80    C684    1.388   .     S
C81    C685    1.389   1_554 S
C82    C89     1.419   .     A
C82    C677    1.415   .     S
C83    C88     1.419   .     A
C83    C676    1.415   1_554 S
C84    H100    1.111   .     S
C84    H99     1.111   .     S
C84    H98     1.111   .     S
C84    N319    1.448   .     S
C85    N122    1.448   .     S
C85    H103    1.112   .     S
C85    H498    1.110   1_545 S
C85    H566    1.111   1_545 S
C86    H108    1.103   .     S
C86    H107    1.107   .     S
C86    H105    1.109   .     S
C86    N119    1.439   .     S
C87    H110    1.109   .     S
C87    H109    1.109   .     S
C87    N120    1.439   .     S
C87    H111    1.103   .     S
C88    C90     1.385   .     A
C88    H118    1.076   .     S
C89    C91     1.387   .     A
C89    H96     1.077   .     S
C90    H95     1.084   .     S
C90    C674    1.388   1_554 S
C91    H106    1.084   .     S
C91    C675    1.389   .     S
C92    C225    1.357   .     S
C92    N319    1.444   .     S
C93    N122    1.434   .     S
C93    C554    1.357   1_545 S
C94    O129    1.306   .     A
H97    N121    1.032   .     S
H101   N122    1.032   .     S
H102   C283    1.110   .     S
H104   C217    1.111   .     S
H116   C137    1.084   .     S
N119   N120    1.294   .     D
N119   Zn132   2.038   .     S
N120   Zn131   2.038   .     S
N121   C480    1.448   1_545 S
N121   C488    1.444   1_545 S
O123   Zn131   1.965   .     S
O123   C133    1.285   .     S
O124   Zn132   1.965   .     S
O125   Zn132   1.976   .     S
O126   Zn131   1.976   .     S
O127   Zn131   1.953   .     S
O127   C160    1.298   .     S
O128   Zn132   1.953   .     S
O129   Zn132   1.905   .     S
O130   Zn131   1.905   .     S
C133   O191    1.296   .     A
C133   C158    1.415   .     S
C134   C136    1.448   .     S
C134   O196    1.305   .     A
C134   O62     1.298   1_655 S
C135   C141    1.388   .     A
C135   C160    1.450   .     S
C136   C140    1.399   .     A
C136   C142    1.385   .     A
C137   C146    1.403   .     A
C138   H183    1.084   .     S
C138   C140    1.393   .     A
C138   C147    1.404   .     A
C139   H181    1.083   .     S
C139   C3      1.399   1_655 S
C139   C5      1.391   1_655 S
C140   H48     1.083   1_655 S
C141   C143    1.394   .     A
C141   H179    1.076   .     S
C142   H178    1.078   .     S
C142   C145    1.393   .     A
C143   C148    1.417   .     A
C143   C146    1.419   .     A
C144   C159    1.403   .     S
C144   O192    1.294   .     A
C144   O58     1.282   1_655 S
C145   C149    1.416   .     A
C145   C147    1.419   .     A
C146   C750    1.388   .     S
C147   C751    1.389   1_554 S
C148   C155    1.419   .     A
C148   C743    1.415   .     S
C149   C154    1.419   .     A
C149   C742    1.415   1_554 S
C150   H166    1.111   .     S
C150   H165    1.111   .     S
C150   H164    1.111   .     S
C150   N385    1.448   .     S
C151   N188    1.448   .     S
C151   H169    1.112   .     S
C151   H564    1.110   1_545 S
C151   H434    1.111   1_645 S
C152   H174    1.103   .     S
C152   H173    1.107   .     S
C152   H171    1.109   .     S
C152   N185    1.439   .     S
C153   H176    1.109   .     S
C153   H175    1.109   .     S
C153   N186    1.439   .     S
C153   H177    1.103   .     S
C154   C156    1.385   .     A
C154   H184    1.076   .     S
C155   C157    1.387   .     A
C155   H162    1.077   .     S
C156   H161    1.084   .     S
C156   C740    1.388   1_554 S
C157   H172    1.084   .     S
C157   C741    1.389   .     S
C158   C291    1.357   .     S
C158   N385    1.444   .     S
C159   N188    1.434   .     S
C159   C422    1.357   1_645 S
C160   O195    1.306   .     A
H163   N187    1.032   .     S
H167   N188    1.032   .     S
H168   C349    1.110   .     S
H170   C283    1.111   .     S
H182   C5      1.084   1_655 S
N185   N186    1.294   .     D
N185   Zn198   2.038   .     S
N186   Zn197   2.038   .     S
N187   C546    1.448   1_545 S
N187   C554    1.444   1_545 S
O189   Zn197   1.965   .     S
O189   C1      1.285   1_655 S
O190   Zn198   1.965   .     S
O191   Zn198   1.976   .     S
O192   Zn197   1.976   .     S
O193   Zn197   1.953   .     S
O193   C28     1.298   1_655 S
O194   Zn198   1.953   .     S
O195   Zn198   1.905   .     S
O196   Zn197   1.905   .     S
C199   O257    1.296   .     A
C199   C224    1.415   .     S
C199   O387    1.285   1_455 S
C200   C202    1.448   .     S
C200   O262    1.305   .     A
C200   O326    1.298   .     S
C201   C207    1.388   .     A
C201   C226    1.450   .     S
C201   C337    1.399   1_455 S
C202   C206    1.399   .     A
C202   C208    1.385   .     A
C203   C212    1.403   .     A
C203   C337    1.391   1_455 S
C203   H380    1.084   1_455 S
C204   H249    1.084   .     S
C204   C206    1.393   .     A
C204   C213    1.404   .     A
C205   H247    1.083   .     S
C205   C267    1.399   .     S
C205   C269    1.391   .     S
C206   H312    1.083   .     S
C207   C209    1.394   .     A
C207   H245    1.076   .     S
C208   H244    1.078   .     S
C208   C211    1.393   .     A
C209   C214    1.417   .     A
C209   C212    1.419   .     A
C210   C225    1.403   .     S
C210   O258    1.294   .     A
C210   O322    1.282   .     S
C211   C215    1.416   .     A
C211   C213    1.419   .     A
C212   C816    1.388   .     S
C213   C817    1.389   1_554 S
C214   C221    1.419   .     A
C214   C809    1.415   .     S
C215   C220    1.419   .     A
C215   C808    1.415   1_554 S
C216   H232    1.111   .     S
C216   H231    1.111   .     S
C216   H230    1.111   .     S
C216   N451    1.448   .     S
C217   N254    1.448   .     S
C217   H235    1.112   .     S
C218   H240    1.103   .     S
C218   H239    1.107   .     S
C218   H237    1.109   .     S
C218   N251    1.439   .     S
C219   H242    1.109   .     S
C219   H241    1.109   .     S
C219   N252    1.439   .     S
C219   H243    1.103   .     S
C220   C222    1.385   .     A
C220   H250    1.076   .     S
C221   C223    1.387   .     A
C221   H228    1.077   .     S
C222   H227    1.084   .     S
C222   C806    1.388   1_554 S
C223   H238    1.084   .     S
C223   C807    1.389   .     S
C224   C555    1.357   1_455 S
C224   N451    1.444   .     S
C225   N254    1.434   .     S
C226   O261    1.306   .     A
C226   O391    1.298   1_455 S
H229   N253    1.032   .     S
H233   N254    1.032   .     S
H234   C415    1.110   .     S
H236   C547    1.111   1_455 S
H246   C338    1.083   1_455 S
H248   C269    1.084   .     S
N251   N252    1.294   .     D
N251   Zn264   2.038   .     S
N252   Zn263   2.038   .     S
O255   Zn263   1.965   .     S
O255   C265    1.285   .     S
O256   Zn264   1.965   .     S
O256   C342    1.282   1_455 S
O257   Zn264   1.976   .     S
O258   Zn263   1.976   .     S
O259   Zn263   1.953   .     S
O259   C292    1.298   .     S
O260   Zn264   1.953   .     S
O260   C332    1.298   1_455 S
O261   Zn264   1.905   .     S
O262   Zn263   1.905   .     S
C265   O323    1.296   .     A
C265   C290    1.415   .     S
C266   C268    1.448   .     S
C266   O328    1.305   .     A
C266   O392    1.298   .     S
C267   C273    1.388   .     A
C267   C292    1.450   .     S
C268   C272    1.399   .     A
C268   C274    1.385   .     A
C269   C278    1.403   .     A
C270   H315    1.084   .     S
C270   C272    1.393   .     A
C270   C279    1.404   .     A
C271   H313    1.083   .     S
C271   C333    1.399   .     S
C271   C335    1.391   .     S
C272   H378    1.083   .     S
C273   C275    1.394   .     A
C273   H311    1.076   .     S
C274   H310    1.078   .     S
C274   C277    1.393   .     A
C275   C280    1.417   .     A
C275   C278    1.419   .     A
C276   C291    1.403   .     S
C276   O324    1.294   .     A
C276   O388    1.282   .     S
C277   C281    1.416   .     A
C277   C279    1.419   .     A
C278   C882    1.388   .     S
C279   C883    1.389   1_554 S
C280   C287    1.419   .     A
C280   C875    1.415   .     S
C281   C286    1.419   .     A
C281   C874    1.415   1_554 S
C282   H298    1.111   .     S
C282   H297    1.111   .     S
C282   H296    1.111   .     S
C282   N517    1.448   .     S
C283   N320    1.448   .     S
C283   H301    1.112   .     S
C284   H306    1.103   .     S
C284   H305    1.107   .     S
C284   H303    1.109   .     S
C284   N317    1.439   .     S
C285   H308    1.109   .     S
C285   H307    1.109   .     S
C285   N318    1.439   .     S
C285   H309    1.103   .     S
C286   C288    1.385   .     A
C286   H316    1.076   .     S
C287   C289    1.387   .     A
C287   H294    1.077   .     S
C288   H293    1.084   .     S
C288   C872    1.388   1_554 S
C289   H304    1.084   .     S
C289   C873    1.389   .     S
C290   C423    1.357   .     S
C290   N517    1.444   .     S
C291   N320    1.434   .     S
C292   O327    1.306   .     A
H295   N319    1.032   .     S
H299   N320    1.032   .     S
H300   C481    1.110   .     S
H302   C415    1.111   .     S
H314   C335    1.084   .     S
N317   N318    1.294   .     D
N317   Zn330   2.038   .     S
N318   Zn329   2.038   .     S
O321   Zn329   1.965   .     S
O321   C331    1.285   .     S
O322   Zn330   1.965   .     S
O323   Zn330   1.976   .     S
O324   Zn329   1.976   .     S
O325   Zn329   1.953   .     S
O325   C358    1.298   .     S
O326   Zn330   1.953   .     S
O327   Zn330   1.905   .     S
O328   Zn329   1.905   .     S
C331   O389    1.296   .     A
C331   C356    1.415   .     S
C332   C334    1.448   .     S
C332   O394    1.305   .     A
C332   O260    1.298   1_655 S
C333   C339    1.388   .     A
C333   C358    1.450   .     S
C334   C338    1.399   .     A
C334   C340    1.385   .     A
C335   C344    1.403   .     A
C336   H381    1.084   .     S
C336   C338    1.393   .     A
C336   C345    1.404   .     A
C337   H379    1.083   .     S
C337   C201    1.399   1_655 S
C337   C203    1.391   1_655 S
C338   H246    1.083   1_655 S
C339   C341    1.394   .     A
C339   H377    1.076   .     S
C340   H376    1.078   .     S
C340   C343    1.393   .     A
C341   C346    1.417   .     A
C341   C344    1.419   .     A
C342   C357    1.403   .     S
C342   O390    1.294   .     A
C342   O256    1.282   1_655 S
C343   C347    1.416   .     A
C343   C345    1.419   .     A
C344   C948    1.388   .     S
C345   C949    1.389   1_554 S
C346   C353    1.419   .     A
C346   C941    1.415   .     S
C347   C352    1.419   .     A
C347   C940    1.415   1_554 S
C348   H364    1.111   .     S
C348   H363    1.111   .     S
C348   H362    1.111   .     S
C348   N583    1.448   .     S
C349   N386    1.448   .     S
C349   H367    1.112   .     S
C349   H38     1.111   1_655 S
C350   H372    1.103   .     S
C350   H371    1.107   .     S
C350   H369    1.109   .     S
C350   N383    1.439   .     S
C351   H374    1.109   .     S
C351   H373    1.109   .     S
C351   N384    1.439   .     S
C351   H375    1.103   .     S
C352   C354    1.385   .     A
C352   H382    1.076   .     S
C353   C355    1.387   .     A
C353   H360    1.077   .     S
C354   H359    1.084   .     S
C354   C938    1.388   1_554 S
C355   H370    1.084   .     S
C355   C939    1.389   .     S
C356   C489    1.357   .     S
C356   N583    1.444   .     S
C357   N386    1.434   .     S
C357   C26     1.357   1_655 S
C358   O393    1.306   .     A
H361   N385    1.032   .     S
H365   N386    1.032   .     S
H366   C547    1.110   .     S
H368   C481    1.111   .     S
H380   C203    1.084   1_655 S
N383   N384    1.294   .     D
N383   Zn396   2.038   .     S
N384   Zn395   2.038   .     S
O387   Zn395   1.965   .     S
O387   C199    1.285   1_655 S
O388   Zn396   1.965   .     S
O389   Zn396   1.976   .     S
O390   Zn395   1.976   .     S
O391   Zn395   1.953   .     S
O391   C226    1.298   1_655 S
O392   Zn396   1.953   .     S
O393   Zn396   1.905   .     S
O394   Zn395   1.905   .     S
C397   O455    1.296   .     A
C397   C422    1.415   .     S
C397   O585    1.285   1_455 S
C398   C400    1.448   .     S
C398   O460    1.305   .     A
C398   O524    1.298   .     S
C399   C405    1.388   .     A
C399   C424    1.450   .     S
C399   C535    1.399   1_455 S
C400   C404    1.399   .     A
C400   C406    1.385   .     A
C401   C410    1.403   .     A
C401   C535    1.391   1_455 S
C401   H578    1.084   1_455 S
C402   H447    1.084   .     S
C402   C404    1.393   .     A
C402   C411    1.404   .     A
C403   H445    1.083   .     S
C403   C465    1.399   .     S
C403   C467    1.391   .     S
C404   H510    1.083   .     S
C405   C407    1.394   .     A
C405   H443    1.076   .     S
C406   H442    1.078   .     S
C406   C409    1.393   .     A
C407   C412    1.417   .     A
C407   C410    1.419   .     A
C408   C423    1.403   .     S
C408   O456    1.294   .     A
C408   O520    1.282   .     S
C409   C413    1.416   .     A
C409   C411    1.419   .     A
C410   C1014   1.388   .     S
C411   C1015   1.389   1_554 S
C412   C419    1.419   .     A
C412   C1007   1.415   .     S
C413   C418    1.419   .     A
C413   C1006   1.415   1_554 S
C414   H430    1.111   .     S
C414   H429    1.111   .     S
C414   H428    1.111   .     S
C414   N55     1.448   1_565 S
C415   N452    1.448   .     S
C415   H433    1.112   .     S
C416   H438    1.103   .     S
C416   H437    1.107   .     S
C416   H435    1.109   .     S
C416   N449    1.439   .     S
C417   H440    1.109   .     S
C417   H439    1.109   .     S
C417   N450    1.439   .     S
C417   H441    1.103   .     S
C418   C420    1.385   .     A
C418   H448    1.076   .     S
C419   C421    1.387   .     A
C419   H426    1.077   .     S
C420   H425    1.084   .     S
C420   C1004   1.388   1_554 S
C421   H436    1.084   .     S
C421   C1005   1.389   .     S
C422   C159    1.357   1_465 S
C422   N55     1.444   1_565 S
C423   N452    1.434   .     S
C424   O459    1.306   .     A
C424   O589    1.298   1_455 S
H427   N451    1.032   .     S
H431   N452    1.032   .     S
H432   C19     1.110   1_565 S
H434   C151    1.111   1_465 S
H444   C536    1.083   1_455 S
H446   C467    1.084   .     S
N449   N450    1.294   .     D
N449   Zn462   2.038   .     S
N450   Zn461   2.038   .     S
O453   Zn461   1.965   .     S
O453   C463    1.285   .     S
O454   Zn462   1.965   .     S
O454   C540    1.282   1_455 S
O455   Zn462   1.976   .     S
O456   Zn461   1.976   .     S
O457   Zn461   1.953   .     S
O457   C490    1.298   .     S
O458   Zn462   1.953   .     S
O458   C530    1.298   1_455 S
O459   Zn462   1.905   .     S
O460   Zn461   1.905   .     S
C463   O521    1.296   .     A
C463   C488    1.415   .     S
C464   C466    1.448   .     S
C464   O526    1.305   .     A
C464   O590    1.298   .     S
C465   C471    1.388   .     A
C465   C490    1.450   .     S
C466   C470    1.399   .     A
C466   C472    1.385   .     A
C467   C476    1.403   .     A
C468   H513    1.084   .     S
C468   C470    1.393   .     A
C468   C477    1.404   .     A
C469   H511    1.083   .     S
C469   C531    1.399   .     S
C469   C533    1.391   .     S
C470   H576    1.083   .     S
C471   C473    1.394   .     A
C471   H509    1.076   .     S
C472   H508    1.078   .     S
C472   C475    1.393   .     A
C473   C478    1.417   .     A
C473   C476    1.419   .     A
C474   C489    1.403   .     S
C474   O522    1.294   .     A
C474   O586    1.282   .     S
C475   C479    1.416   .     A
C475   C477    1.419   .     A
C476   C1080   1.388   .     S
C477   C1081   1.389   1_554 S
C478   C485    1.419   .     A
C478   C1073   1.415   .     S
C479   C484    1.419   .     A
C479   C1072   1.415   1_554 S
C480   H496    1.111   .     S
C480   H495    1.111   .     S
C480   H494    1.111   .     S
C480   N121    1.448   1_565 S
C481   N518    1.448   .     S
C481   H499    1.112   .     S
C482   H504    1.103   .     S
C482   H503    1.107   .     S
C482   H501    1.109   .     S
C482   N515    1.439   .     S
C483   H506    1.109   .     S
C483   H505    1.109   .     S
C483   N516    1.439   .     S
C483   H507    1.103   .     S
C484   C486    1.385   .     A
C484   H514    1.076   .     S
C485   C487    1.387   .     A
C485   H492    1.077   .     S
C486   H491    1.084   .     S
C486   C1070   1.388   1_554 S
C487   H502    1.084   .     S
C487   C1071   1.389   .     S
C488   C27     1.357   1_565 S
C488   N121    1.444   1_565 S
C489   N518    1.434   .     S
C490   O525    1.306   .     A
H493   N517    1.032   .     S
H497   N518    1.032   .     S
H498   C85     1.110   1_565 S
H500   C19     1.111   1_565 S
H512   C533    1.084   .     S
N515   N516    1.294   .     D
N515   Zn528   2.038   .     S
N516   Zn527   2.038   .     S
O519   Zn527   1.965   .     S
O519   C529    1.285   .     S
O520   Zn528   1.965   .     S
O521   Zn528   1.976   .     S
O522   Zn527   1.976   .     S
O523   Zn527   1.953   .     S
O523   C556    1.298   .     S
O524   Zn528   1.953   .     S
O525   Zn528   1.905   .     S
O526   Zn527   1.905   .     S
C529   O587    1.296   .     A
C529   C554    1.415   .     S
C530   C532    1.448   .     S
C530   O592    1.305   .     A
C530   O458    1.298   1_655 S
C531   C537    1.388   .     A
C531   C556    1.450   .     S
C532   C536    1.399   .     A
C532   C538    1.385   .     A
C533   C542    1.403   .     A
C534   H579    1.084   .     S
C534   C536    1.393   .     A
C534   C543    1.404   .     A
C535   H577    1.083   .     S
C535   C399    1.399   1_655 S
C535   C401    1.391   1_655 S
C536   H444    1.083   1_655 S
C537   C539    1.394   .     A
C537   H575    1.076   .     S
C538   H574    1.078   .     S
C538   C541    1.393   .     A
C539   C544    1.417   .     A
C539   C542    1.419   .     A
C540   C555    1.403   .     S
C540   O588    1.294   .     A
C540   O454    1.282   1_655 S
C541   C545    1.416   .     A
C541   C543    1.419   .     A
C542   C1146   1.388   .     S
C543   C1147   1.389   1_554 S
C544   C551    1.419   .     A
C544   C1139   1.415   .     S
C545   C550    1.419   .     A
C545   C1138   1.415   1_554 S
C546   H562    1.111   .     S
C546   H561    1.111   .     S
C546   H560    1.111   .     S
C546   N187    1.448   1_565 S
C547   N584    1.448   .     S
C547   H565    1.112   .     S
C547   H236    1.111   1_655 S
C548   H570    1.103   .     S
C548   H569    1.107   .     S
C548   H567    1.109   .     S
C548   N581    1.439   .     S
C549   H572    1.109   .     S
C549   H571    1.109   .     S
C549   N582    1.439   .     S
C549   H573    1.103   .     S
C550   C552    1.385   .     A
C550   H580    1.076   .     S
C551   C553    1.387   .     A
C551   H558    1.077   .     S
C552   H557    1.084   .     S
C552   C1136   1.388   1_554 S
C553   H568    1.084   .     S
C553   C1137   1.389   .     S
C554   C93     1.357   1_565 S
C554   N187    1.444   1_565 S
C555   N584    1.434   .     S
C555   C224    1.357   1_655 S
C556   O591    1.306   .     A
H559   N583    1.032   .     S
H563   N584    1.032   .     S
H564   C151    1.110   1_565 S
H566   C85     1.111   1_565 S
H578   C401    1.084   1_655 S
N581   N582    1.294   .     D
N581   Zn594   2.038   .     S
N582   Zn593   2.038   .     S
O585   Zn593   1.965   .     S
O585   C397    1.285   1_655 S
O586   Zn594   1.965   .     S
O587   Zn594   1.976   .     S
O588   Zn593   1.976   .     S
O589   Zn593   1.953   .     S
O589   C424    1.298   1_655 S
O590   Zn594   1.953   .     S
O591   Zn594   1.905   .     S
O592   Zn593   1.905   .     S
C595   O653    1.296   .     A
C595   C620    1.415   .     S
C595   O783    1.285   1_455 S
C596   C598    1.448   .     S
C596   O658    1.305   .     A
C596   O722    1.298   .     S
C597   C603    1.388   .     A
C597   C622    1.450   .     S
C597   C733    1.399   1_455 S
C598   C602    1.399   .     A
C598   C604    1.385   .     A
C599   C608    1.403   .     A
C599   C733    1.391   1_455 S
C599   H776    1.084   1_455 S
C600   H645    1.084   .     S
C600   C602    1.393   .     A
C600   C609    1.404   .     A
C601   H643    1.083   .     S
C601   C663    1.399   .     S
C601   C665    1.391   .     S
C602   H708    1.083   .     S
C603   C605    1.394   .     A
C603   H641    1.076   .     S
C604   H640    1.078   .     S
C604   C607    1.393   .     A
C605   C610    1.417   .     A
C605   C608    1.419   .     A
C606   C621    1.403   .     S
C606   O654    1.294   .     A
C606   O718    1.282   .     S
C607   C611    1.416   .     A
C607   C609    1.419   .     A
C608   C24     1.388   1_556 S
C610   C617    1.419   .     A
C610   C17     1.415   1_556 S
C611   C616    1.419   .     A
C612   H628    1.111   .     S
C612   H627    1.111   .     S
C612   H626    1.111   .     S
C612   N847    1.448   .     S
C613   N650    1.448   .     S
C613   H631    1.112   .     S
C613   H1026   1.110   1_545 S
C613   H1094   1.111   1_545 S
C614   H636    1.103   .     S
C614   H635    1.107   .     S
C614   H633    1.109   .     S
C614   N647    1.439   .     S
C615   H638    1.109   .     S
C615   H637    1.109   .     S
C615   N648    1.439   .     S
C615   H639    1.103   .     S
C616   C618    1.385   .     A
C616   H646    1.076   .     S
C617   C619    1.387   .     A
C617   H624    1.077   .     S
C618   H623    1.084   .     S
C619   H634    1.084   .     S
C619   C15     1.389   1_556 S
C620   C951    1.357   1_455 S
C620   N847    1.444   .     S
C621   N650    1.434   .     S
C621   C1082   1.357   1_545 S
C622   O657    1.306   .     A
C622   O787    1.298   1_455 S
H625   N649    1.032   .     S
H629   N650    1.032   .     S
H630   C811    1.110   .     S
H632   C943    1.111   1_455 S
H642   C734    1.083   1_455 S
H644   C665    1.084   .     S
N647   N648    1.294   .     D
N647   Zn660   2.038   .     S
N648   Zn659   2.038   .     S
N649   C1008   1.448   1_545 S
N649   C1016   1.444   1_545 S
O651   Zn659   1.965   .     S
O651   C661    1.285   .     S
O652   Zn660   1.965   .     S
O652   C738    1.282   1_455 S
O653   Zn660   1.976   .     S
O654   Zn659   1.976   .     S
O655   Zn659   1.953   .     S
O655   C688    1.298   .     S
O656   Zn660   1.953   .     S
O656   C728    1.298   1_455 S
O657   Zn660   1.905   .     S
O658   Zn659   1.905   .     S
C661   O719    1.296   .     A
C661   C686    1.415   .     S
C662   C664    1.448   .     S
C662   O724    1.305   .     A
C662   O788    1.298   .     S
C663   C669    1.388   .     A
C663   C688    1.450   .     S
C664   C668    1.399   .     A
C664   C670    1.385   .     A
C665   C674    1.403   .     A
C666   H711    1.084   .     S
C666   C668    1.393   .     A
C666   C675    1.404   .     A
C667   H709    1.083   .     S
C667   C729    1.399   .     S
C667   C731    1.391   .     S
C668   H774    1.083   .     S
C669   C671    1.394   .     A
C669   H707    1.076   .     S
C670   H706    1.078   .     S
C670   C673    1.393   .     A
C671   C676    1.417   .     A
C671   C674    1.419   .     A
C672   C687    1.403   .     S
C672   O720    1.294   .     A
C672   O784    1.282   .     S
C673   C677    1.416   .     A
C673   C675    1.419   .     A
C674   C90     1.388   1_556 S
C676   C683    1.419   .     A
C676   C83     1.415   1_556 S
C677   C682    1.419   .     A
C678   H694    1.111   .     S
C678   H693    1.111   .     S
C678   H692    1.111   .     S
C678   N913    1.448   .     S
C679   N716    1.448   .     S
C679   H697    1.112   .     S
C679   H1092   1.110   1_545 S
C679   H1160   1.111   1_545 S
C680   H702    1.103   .     S
C680   H701    1.107   .     S
C680   H699    1.109   .     S
C680   N713    1.439   .     S
C681   H704    1.109   .     S
C681   H703    1.109   .     S
C681   N714    1.439   .     S
C681   H705    1.103   .     S
C682   C684    1.385   .     A
C682   H712    1.076   .     S
C683   C685    1.387   .     A
C683   H690    1.077   .     S
C684   H689    1.084   .     S
C685   H700    1.084   .     S
C685   C81     1.389   1_556 S
C686   C819    1.357   .     S
C686   N913    1.444   .     S
C687   N716    1.434   .     S
C687   C1148   1.357   1_545 S
C688   O723    1.306   .     A
H691   N715    1.032   .     S
H695   N716    1.032   .     S
H696   C877    1.110   .     S
H698   C811    1.111   .     S
H710   C731    1.084   .     S
N713   N714    1.294   .     D
N713   Zn726   2.038   .     S
N714   Zn725   2.038   .     S
N715   C1074   1.448   1_545 S
N715   C1082   1.444   1_545 S
O717   Zn725   1.965   .     S
O717   C727    1.285   .     S
O718   Zn726   1.965   .     S
O719   Zn726   1.976   .     S
O720   Zn725   1.976   .     S
O721   Zn725   1.953   .     S
O721   C754    1.298   .     S
O722   Zn726   1.953   .     S
O723   Zn726   1.905   .     S
O724   Zn725   1.905   .     S
C727   O785    1.296   .     A
C727   C752    1.415   .     S
C728   C730    1.448   .     S
C728   O790    1.305   .     A
C728   O656    1.298   1_655 S
C729   C735    1.388   .     A
C729   C754    1.450   .     S
C730   C734    1.399   .     A
C730   C736    1.385   .     A
C731   C740    1.403   .     A
C732   H777    1.084   .     S
C732   C734    1.393   .     A
C732   C741    1.404   .     A
C733   H775    1.083   .     S
C733   C597    1.399   1_655 S
C733   C599    1.391   1_655 S
C734   H642    1.083   1_655 S
C735   C737    1.394   .     A
C735   H773    1.076   .     S
C736   H772    1.078   .     S
C736   C739    1.393   .     A
C737   C742    1.417   .     A
C737   C740    1.419   .     A
C738   C753    1.403   .     S
C738   O786    1.294   .     A
C738   O652    1.282   1_655 S
C739   C743    1.416   .     A
C739   C741    1.419   .     A
C740   C156    1.388   1_556 S
C742   C749    1.419   .     A
C742   C149    1.415   1_556 S
C743   C748    1.419   .     A
C744   H760    1.111   .     S
C744   H759    1.111   .     S
C744   H758    1.111   .     S
C744   N979    1.448   .     S
C745   N782    1.448   .     S
C745   H763    1.112   .     S
C745   H1158   1.110   1_545 S
C745   H1028   1.111   1_645 S
C746   H768    1.103   .     S
C746   H767    1.107   .     S
C746   H765    1.109   .     S
C746   N779    1.439   .     S
C747   H770    1.109   .     S
C747   H769    1.109   .     S
C747   N780    1.439   .     S
C747   H771    1.103   .     S
C748   C750    1.385   .     A
C748   H778    1.076   .     S
C749   C751    1.387   .     A
C749   H756    1.077   .     S
C750   H755    1.084   .     S
C751   H766    1.084   .     S
C751   C147    1.389   1_556 S
C752   C885    1.357   .     S
C752   N979    1.444   .     S
C753   N782    1.434   .     S
C753   C1016   1.357   1_645 S
C754   O789    1.306   .     A
H757   N781    1.032   .     S
H761   N782    1.032   .     S
H762   C943    1.110   .     S
H764   C877    1.111   .     S
H776   C599    1.084   1_655 S
N779   N780    1.294   .     D
N779   Zn792   2.038   .     S
N780   Zn791   2.038   .     S
N781   C1140   1.448   1_545 S
N781   C1148   1.444   1_545 S
O783   Zn791   1.965   .     S
O783   C595    1.285   1_655 S
O784   Zn792   1.965   .     S
O785   Zn792   1.976   .     S
O786   Zn791   1.976   .     S
O787   Zn791   1.953   .     S
O787   C622    1.298   1_655 S
O788   Zn792   1.953   .     S
O789   Zn792   1.905   .     S
O790   Zn791   1.905   .     S
C793   O851    1.296   .     A
C793   C818    1.415   .     S
C793   O981    1.285   1_455 S
C794   C796    1.448   .     S
C794   O856    1.305   .     A
C794   O920    1.298   .     S
C795   C801    1.388   .     A
C795   C820    1.450   .     S
C795   C931    1.399   1_455 S
C796   C800    1.399   .     A
C796   C802    1.385   .     A
C797   C806    1.403   .     A
C797   C931    1.391   1_455 S
C797   H974    1.084   1_455 S
C798   H843    1.084   .     S
C798   C800    1.393   .     A
C798   C807    1.404   .     A
C799   H841    1.083   .     S
C799   C861    1.399   .     S
C799   C863    1.391   .     S
C800   H906    1.083   .     S
C801   C803    1.394   .     A
C801   H839    1.076   .     S
C802   H838    1.078   .     S
C802   C805    1.393   .     A
C803   C808    1.417   .     A
C803   C806    1.419   .     A
C804   C819    1.403   .     S
C804   O852    1.294   .     A
C804   O916    1.282   .     S
C805   C809    1.416   .     A
C805   C807    1.419   .     A
C806   C222    1.388   1_556 S
C808   C815    1.419   .     A
C808   C215    1.415   1_556 S
C809   C814    1.419   .     A
C810   H826    1.111   .     S
C810   H825    1.111   .     S
C810   H824    1.111   .     S
C810   N1045   1.448   .     S
C811   N848    1.448   .     S
C811   H829    1.112   .     S
C812   H834    1.103   .     S
C812   H833    1.107   .     S
C812   H831    1.109   .     S
C812   N845    1.439   .     S
C813   H836    1.109   .     S
C813   H835    1.109   .     S
C813   N846    1.439   .     S
C813   H837    1.103   .     S
C814   C816    1.385   .     A
C814   H844    1.076   .     S
C815   C817    1.387   .     A
C815   H822    1.077   .     S
C816   H821    1.084   .     S
C817   H832    1.084   .     S
C817   C213    1.389   1_556 S
C818   C1149   1.357   1_455 S
C818   N1045   1.444   .     S
C819   N848    1.434   .     S
C820   O855    1.306   .     A
C820   O985    1.298   1_455 S
H823   N847    1.032   .     S
H827   N848    1.032   .     S
H828   C1009   1.110   .     S
H830   C1141   1.111   1_455 S
H840   C932    1.083   1_455 S
H842   C863    1.084   .     S
N845   N846    1.294   .     D
N845   Zn858   2.038   .     S
N846   Zn857   2.038   .     S
O849   Zn857   1.965   .     S
O849   C859    1.285   .     S
O850   Zn858   1.965   .     S
O850   C936    1.282   1_455 S
O851   Zn858   1.976   .     S
O852   Zn857   1.976   .     S
O853   Zn857   1.953   .     S
O853   C886    1.298   .     S
O854   Zn858   1.953   .     S
O854   C926    1.298   1_455 S
O855   Zn858   1.905   .     S
O856   Zn857   1.905   .     S
C859   O917    1.296   .     A
C859   C884    1.415   .     S
C860   C862    1.448   .     S
C860   O922    1.305   .     A
C860   O986    1.298   .     S
C861   C867    1.388   .     A
C861   C886    1.450   .     S
C862   C866    1.399   .     A
C862   C868    1.385   .     A
C863   C872    1.403   .     A
C864   H909    1.084   .     S
C864   C866    1.393   .     A
C864   C873    1.404   .     A
C865   H907    1.083   .     S
C865   C927    1.399   .     S
C865   C929    1.391   .     S
C866   H972    1.083   .     S
C867   C869    1.394   .     A
C867   H905    1.076   .     S
C868   H904    1.078   .     S
C868   C871    1.393   .     A
C869   C874    1.417   .     A
C869   C872    1.419   .     A
C870   C885    1.403   .     S
C870   O918    1.294   .     A
C870   O982    1.282   .     S
C871   C875    1.416   .     A
C871   C873    1.419   .     A
C872   C288    1.388   1_556 S
C874   C881    1.419   .     A
C874   C281    1.415   1_556 S
C875   C880    1.419   .     A
C876   H892    1.111   .     S
C876   H891    1.111   .     S
C876   H890    1.111   .     S
C876   N1111   1.448   .     S
C877   N914    1.448   .     S
C877   H895    1.112   .     S
C878   H900    1.103   .     S
C878   H899    1.107   .     S
C878   H897    1.109   .     S
C878   N911    1.439   .     S
C879   H902    1.109   .     S
C879   H901    1.109   .     S
C879   N912    1.439   .     S
C879   H903    1.103   .     S
C880   C882    1.385   .     A
C880   H910    1.076   .     S
C881   C883    1.387   .     A
C881   H888    1.077   .     S
C882   H887    1.084   .     S
C883   H898    1.084   .     S
C883   C279    1.389   1_556 S
C884   C1017   1.357   .     S
C884   N1111   1.444   .     S
C885   N914    1.434   .     S
C886   O921    1.306   .     A
H889   N913    1.032   .     S
H893   N914    1.032   .     S
H894   C1075   1.110   .     S
H896   C1009   1.111   .     S
H908   C929    1.084   .     S
N911   N912    1.294   .     D
N911   Zn924   2.038   .     S
N912   Zn923   2.038   .     S
O915   Zn923   1.965   .     S
O915   C925    1.285   .     S
O916   Zn924   1.965   .     S
O917   Zn924   1.976   .     S
O918   Zn923   1.976   .     S
O919   Zn923   1.953   .     S
O919   C952    1.298   .     S
O920   Zn924   1.953   .     S
O921   Zn924   1.905   .     S
O922   Zn923   1.905   .     S
C925   O983    1.296   .     A
C925   C950    1.415   .     S
C926   C928    1.448   .     S
C926   O988    1.305   .     A
C926   O854    1.298   1_655 S
C927   C933    1.388   .     A
C927   C952    1.450   .     S
C928   C932    1.399   .     A
C928   C934    1.385   .     A
C929   C938    1.403   .     A
C930   H975    1.084   .     S
C930   C932    1.393   .     A
C930   C939    1.404   .     A
C931   H973    1.083   .     S
C931   C795    1.399   1_655 S
C931   C797    1.391   1_655 S
C932   H840    1.083   1_655 S
C933   C935    1.394   .     A
C933   H971    1.076   .     S
C934   H970    1.078   .     S
C934   C937    1.393   .     A
C935   C940    1.417   .     A
C935   C938    1.419   .     A
C936   C951    1.403   .     S
C936   O984    1.294   .     A
C936   O850    1.282   1_655 S
C937   C941    1.416   .     A
C937   C939    1.419   .     A
C938   C354    1.388   1_556 S
C940   C947    1.419   .     A
C940   C347    1.415   1_556 S
C941   C946    1.419   .     A
C942   H958    1.111   .     S
C942   H957    1.111   .     S
C942   H956    1.111   .     S
C942   N1177   1.448   .     S
C943   N980    1.448   .     S
C943   H961    1.112   .     S
C943   H632    1.111   1_655 S
C944   H966    1.103   .     S
C944   H965    1.107   .     S
C944   H963    1.109   .     S
C944   N977    1.439   .     S
C945   H968    1.109   .     S
C945   H967    1.109   .     S
C945   N978    1.439   .     S
C945   H969    1.103   .     S
C946   C948    1.385   .     A
C946   H976    1.076   .     S
C947   C949    1.387   .     A
C947   H954    1.077   .     S
C948   H953    1.084   .     S
C949   H964    1.084   .     S
C949   C345    1.389   1_556 S
C950   C1083   1.357   .     S
C950   N1177   1.444   .     S
C951   N980    1.434   .     S
C951   C620    1.357   1_655 S
C952   O987    1.306   .     A
H955   N979    1.032   .     S
H959   N980    1.032   .     S
H960   C1141   1.110   .     S
H962   C1075   1.111   .     S
H974   C797    1.084   1_655 S
N977   N978    1.294   .     D
N977   Zn990   2.038   .     S
N978   Zn989   2.038   .     S
O981   Zn989   1.965   .     S
O981   C793    1.285   1_655 S
O982   Zn990   1.965   .     S
O983   Zn990   1.976   .     S
O984   Zn989   1.976   .     S
O985   Zn989   1.953   .     S
O985   C820    1.298   1_655 S
O986   Zn990   1.953   .     S
O987   Zn990   1.905   .     S
O988   Zn989   1.905   .     S
C991   O1049   1.296   .     A
C991   C1016   1.415   .     S
C991   O1179   1.285   1_455 S
C992   C994    1.448   .     S
C992   O1054   1.305   .     A
C992   O1118   1.298   .     S
C993   C999    1.388   .     A
C993   C1018   1.450   .     S
C993   C1129   1.399   1_455 S
C994   C998    1.399   .     A
C994   C1000   1.385   .     A
C995   C1004   1.403   .     A
C995   C1129   1.391   1_455 S
C995   H1172   1.084   1_455 S
C996   H1041   1.084   .     S
C996   C998    1.393   .     A
C996   C1005   1.404   .     A
C997   H1039   1.083   .     S
C997   C1059   1.399   .     S
C997   C1061   1.391   .     S
C998   H1104   1.083   .     S
C999   C1001   1.394   .     A
C999   H1037   1.076   .     S
C1000  H1036   1.078   .     S
C1000  C1003   1.393   .     A
C1001  C1006   1.417   .     A
C1001  C1004   1.419   .     A
C1002  C1017   1.403   .     S
C1002  O1050   1.294   .     A
C1002  O1114   1.282   .     S
C1003  C1007   1.416   .     A
C1003  C1005   1.419   .     A
C1004  C420    1.388   1_556 S
C1006  C1013   1.419   .     A
C1006  C413    1.415   1_556 S
C1007  C1012   1.419   .     A
C1008  H1024   1.111   .     S
C1008  H1023   1.111   .     S
C1008  H1022   1.111   .     S
C1008  N649    1.448   1_565 S
C1009  N1046   1.448   .     S
C1009  H1027   1.112   .     S
C1010  H1032   1.103   .     S
C1010  H1031   1.107   .     S
C1010  H1029   1.109   .     S
C1010  N1043   1.439   .     S
C1011  H1034   1.109   .     S
C1011  H1033   1.109   .     S
C1011  N1044   1.439   .     S
C1011  H1035   1.103   .     S
C1012  C1014   1.385   .     A
C1012  H1042   1.076   .     S
C1013  C1015   1.387   .     A
C1013  H1020   1.077   .     S
C1014  H1019   1.084   .     S
C1015  H1030   1.084   .     S
C1015  C411    1.389   1_556 S
C1016  C753    1.357   1_465 S
C1016  N649    1.444   1_565 S
C1017  N1046   1.434   .     S
C1018  O1053   1.306   .     A
C1018  O1183   1.298   1_455 S
H1021  N1045   1.032   .     S
H1025  N1046   1.032   .     S
H1026  C613    1.110   1_565 S
H1028  C745    1.111   1_465 S
H1038  C1130   1.083   1_455 S
H1040  C1061   1.084   .     S
N1043  N1044   1.294   .     D
N1043  Zn1056  2.038   .     S
N1044  Zn1055  2.038   .     S
O1047  Zn1055  1.965   .     S
O1047  C1057   1.285   .     S
O1048  Zn1056  1.965   .     S
O1048  C1134   1.282   1_455 S
O1049  Zn1056  1.976   .     S
O1050  Zn1055  1.976   .     S
O1051  Zn1055  1.953   .     S
O1051  C1084   1.298   .     S
O1052  Zn1056  1.953   .     S
O1052  C1124   1.298   1_455 S
O1053  Zn1056  1.905   .     S
O1054  Zn1055  1.905   .     S
C1057  O1115   1.296   .     A
C1057  C1082   1.415   .     S
C1058  C1060   1.448   .     S
C1058  O1120   1.305   .     A
C1058  O1184   1.298   .     S
C1059  C1065   1.388   .     A
C1059  C1084   1.450   .     S
C1060  C1064   1.399   .     A
C1060  C1066   1.385   .     A
C1061  C1070   1.403   .     A
C1062  H1107   1.084   .     S
C1062  C1064   1.393   .     A
C1062  C1071   1.404   .     A
C1063  H1105   1.083   .     S
C1063  C1125   1.399   .     S
C1063  C1127   1.391   .     S
C1064  H1170   1.083   .     S
C1065  C1067   1.394   .     A
C1065  H1103   1.076   .     S
C1066  H1102   1.078   .     S
C1066  C1069   1.393   .     A
C1067  C1072   1.417   .     A
C1067  C1070   1.419   .     A
C1068  C1083   1.403   .     S
C1068  O1116   1.294   .     A
C1068  O1180   1.282   .     S
C1069  C1073   1.416   .     A
C1069  C1071   1.419   .     A
C1070  C486    1.388   1_556 S
C1072  C1079   1.419   .     A
C1072  C479    1.415   1_556 S
C1073  C1078   1.419   .     A
C1074  H1090   1.111   .     S
C1074  H1089   1.111   .     S
C1074  H1088   1.111   .     S
C1074  N715    1.448   1_565 S
C1075  N1112   1.448   .     S
C1075  H1093   1.112   .     S
C1076  H1098   1.103   .     S
C1076  H1097   1.107   .     S
C1076  H1095   1.109   .     S
C1076  N1109   1.439   .     S
C1077  H1100   1.109   .     S
C1077  H1099   1.109   .     S
C1077  N1110   1.439   .     S
C1077  H1101   1.103   .     S
C1078  C1080   1.385   .     A
C1078  H1108   1.076   .     S
C1079  C1081   1.387   .     A
C1079  H1086   1.077   .     S
C1080  H1085   1.084   .     S
C1081  H1096   1.084   .     S
C1081  C477    1.389   1_556 S
C1082  C621    1.357   1_565 S
C1082  N715    1.444   1_565 S
C1083  N1112   1.434   .     S
C1084  O1119   1.306   .     A
H1087  N1111   1.032   .     S
H1091  N1112   1.032   .     S
H1092  C679    1.110   1_565 S
H1094  C613    1.111   1_565 S
H1106  C1127   1.084   .     S
N1109  N1110   1.294   .     D
N1109  Zn1122  2.038   .     S
N1110  Zn1121  2.038   .     S
O1113  Zn1121  1.965   .     S
O1113  C1123   1.285   .     S
O1114  Zn1122  1.965   .     S
O1115  Zn1122  1.976   .     S
O1116  Zn1121  1.976   .     S
O1117  Zn1121  1.953   .     S
O1117  C1150   1.298   .     S
O1118  Zn1122  1.953   .     S
O1119  Zn1122  1.905   .     S
O1120  Zn1121  1.905   .     S
C1123  O1181   1.296   .     A
C1123  C1148   1.415   .     S
C1124  C1126   1.448   .     S
C1124  O1186   1.305   .     A
C1124  O1052   1.298   1_655 S
C1125  C1131   1.388   .     A
C1125  C1150   1.450   .     S
C1126  C1130   1.399   .     A
C1126  C1132   1.385   .     A
C1127  C1136   1.403   .     A
C1128  H1173   1.084   .     S
C1128  C1130   1.393   .     A
C1128  C1137   1.404   .     A
C1129  H1171   1.083   .     S
C1129  C993    1.399   1_655 S
C1129  C995    1.391   1_655 S
C1130  H1038   1.083   1_655 S
C1131  C1133   1.394   .     A
C1131  H1169   1.076   .     S
C1132  H1168   1.078   .     S
C1132  C1135   1.393   .     A
C1133  C1138   1.417   .     A
C1133  C1136   1.419   .     A
C1134  C1149   1.403   .     S
C1134  O1182   1.294   .     A
C1134  O1048   1.282   1_655 S
C1135  C1139   1.416   .     A
C1135  C1137   1.419   .     A
C1136  C552    1.388   1_556 S
C1138  C1145   1.419   .     A
C1138  C545    1.415   1_556 S
C1139  C1144   1.419   .     A
C1140  H1156   1.111   .     S
C1140  H1155   1.111   .     S
C1140  H1154   1.111   .     S
C1140  N781    1.448   1_565 S
C1141  N1178   1.448   .     S
C1141  H1159   1.112   .     S
C1141  H830    1.111   1_655 S
C1142  H1164   1.103   .     S
C1142  H1163   1.107   .     S
C1142  H1161   1.109   .     S
C1142  N1175   1.439   .     S
C1143  H1166   1.109   .     S
C1143  H1165   1.109   .     S
C1143  N1176   1.439   .     S
C1143  H1167   1.103   .     S
C1144  C1146   1.385   .     A
C1144  H1174   1.076   .     S
C1145  C1147   1.387   .     A
C1145  H1152   1.077   .     S
C1146  H1151   1.084   .     S
C1147  H1162   1.084   .     S
C1147  C543    1.389   1_556 S
C1148  C687    1.357   1_565 S
C1148  N781    1.444   1_565 S
C1149  N1178   1.434   .     S
C1149  C818    1.357   1_655 S
C1150  O1185   1.306   .     A
H1153  N1177   1.032   .     S
H1157  N1178   1.032   .     S
H1158  C745    1.110   1_565 S
H1160  C679    1.111   1_565 S
H1172  C995    1.084   1_655 S
N1175  N1176   1.294   .     D
N1175  Zn1188  2.038   .     S
N1176  Zn1187  2.038   .     S
O1179  Zn1187  1.965   .     S
O1179  C991    1.285   1_655 S
O1180  Zn1188  1.965   .     S
O1181  Zn1188  1.976   .     S
O1182  Zn1187  1.976   .     S
O1183  Zn1187  1.953   .     S
O1183  C1018   1.298   1_655 S
O1184  Zn1188  1.953   .     S
O1185  Zn1188  1.905   .     S
O1186  Zn1187  1.905   .     S
