data_str_m3_o2_o10_pcu_sym.154
_audit_creation_date              2020-01-03
_audit_creation_method            'Materials Studio'
_symmetry_space_group_name_H-M    'P1'
_symmetry_Int_Tables_number       1
_symmetry_cell_setting            triclinic
loop_
_symmetry_equiv_pos_as_xyz
  x,y,z
_cell_length_a                    25.7643
_cell_length_b                    29.9179
_cell_length_c                    28.2860
_cell_angle_alpha                 89.9129
_cell_angle_beta                  98.7144
_cell_angle_gamma                 90.0083
loop_
_atom_site_label
_atom_site_type_symbol
_atom_site_fract_x
_atom_site_fract_y
_atom_site_fract_z
_atom_site_U_iso_or_equiv
_atom_site_adp_type
_atom_site_occupancy
C1     C     0.16598   0.16380   0.24995   0.00000  Uiso   1.00
C2     C     0.16592   0.33622   0.24985   0.00000  Uiso   1.00
C3     C     0.12841   0.22332   0.04778   0.00000  Uiso   1.00
C4     C     0.20540   0.22438   0.45260   0.00000  Uiso   1.00
C5     C     0.13000   0.22513   0.09797   0.00000  Uiso   1.00
C6     C     0.20383   0.22578   0.40231   0.00000  Uiso   1.00
C7     C     0.20274   0.27411   0.10644   0.00000  Uiso   1.00
C8     C     0.13012   0.27376   0.39329   0.00000  Uiso   1.00
C9     C     0.20294   0.27371   0.05677   0.00000  Uiso   1.00
C10    C     0.12981   0.27350   0.44295   0.00000  Uiso   1.00
C11    C     0.16582   0.24830   0.02649   0.00000  Uiso   1.00
C12    C     0.16732   0.24861   0.47343   0.00000  Uiso   1.00
C13    C     0.06697   0.25001   0.23750   0.00000  Uiso   1.00
C14    C     0.26637   0.25001   0.26250   0.00000  Uiso   1.00
C15    C     0.01195   0.25003   0.23074   0.00000  Uiso   1.00
C16    C     0.32139   0.25002   0.26926   0.00000  Uiso   1.00
C17    C     0.12864   0.04894   0.28232   0.00000  Uiso   1.00
C18    C     0.13030   0.45124   0.20637   0.00000  Uiso   1.00
C19    C     0.13593   0.09484   0.28389   0.00000  Uiso   1.00
C20    C     0.13758   0.40534   0.20698   0.00000  Uiso   1.00
C21    C     0.16083   0.11597   0.24928   0.00000  Uiso   1.00
C22    C     0.16067   0.38409   0.24906   0.00000  Uiso   1.00
C23    C     0.17895   0.09146   0.21313   0.00000  Uiso   1.00
C24    C     0.17690   0.40852   0.29070   0.00000  Uiso   1.00
C25    C     0.17353   0.04559   0.21230   0.00000  Uiso   1.00
C26    C     0.17144   0.45440   0.28996   0.00000  Uiso   1.00
C27    C     0.14877   0.02420   0.24687   0.00000  Uiso   1.00
C28    C     0.14859   0.47589   0.24793   0.00000  Uiso   1.00
H29    H     0.32460   0.25005   0.19423   0.00000  Uiso   1.00
H30    H     0.00874   0.25001   0.30577   0.00000  Uiso   1.00
H31    H     0.12141   0.11391   0.31170   0.00000  Uiso   1.00
H32    H     0.12450   0.38639   0.17475   0.00000  Uiso   1.00
H33    H     0.19837   0.10766   0.18631   0.00000  Uiso   1.00
H34    H     0.19491   0.39229   0.32337   0.00000  Uiso   1.00
H35    H     0.18998   0.02664   0.18551   0.00000  Uiso   1.00
H36    H     0.18650   0.47327   0.32175   0.00000  Uiso   1.00
H37    H     0.10200   0.20614   0.11478   0.00000  Uiso   1.00
H38    H     0.23225   0.20723   0.38567   0.00000  Uiso   1.00
H39    H     0.23161   0.29375   0.12924   0.00000  Uiso   1.00
H40    H     0.10092   0.29296   0.37028   0.00000  Uiso   1.00
H41    H     0.23209   0.29316   0.04195   0.00000  Uiso   1.00
H42    H     0.10019   0.29250   0.45758   0.00000  Uiso   1.00
N43    N     0.16667   0.24999   0.12624   0.00000  Uiso   1.00
N44    N     0.16667   0.25001   0.37377   0.00000  Uiso   1.00
O45    O     0.16667   0.18453   0.28974   0.00000  Uiso   1.00
O46    O     0.16666   0.31546   0.21026   0.00000  Uiso   1.00
O47    O     0.16667   0.18453   0.21026   0.00000  Uiso   1.00
O48    O     0.16666   0.31547   0.28974   0.00000  Uiso   1.00
O49    O     0.09058   0.25000   0.28045   0.00000  Uiso   1.00
O50    O     0.24275   0.25000   0.21956   0.00000  Uiso   1.00
O51    O     0.09058   0.25000   0.20097   0.00000  Uiso   1.00
O52    O     0.24275   0.25000   0.29904   0.00000  Uiso   1.00
Zn53   Zn    0.16667   0.25000   0.30307   0.00000  Uiso   1.00
Zn54   Zn    0.16667   0.24999   0.19693   0.00000  Uiso   1.00
O55    O     0.10572   0.02838   0.31779   0.00000  Uiso   1.00
C56    C     0.05176   0.02266   0.30111   0.00000  Uiso   1.00
H57    H     0.04547   0.49666   0.27283   0.00000  Uiso   1.00
H58    H     0.03247   0.05461   0.28797   0.00000  Uiso   1.00
H59    H     0.03240   0.01084   0.33128   0.00000  Uiso   1.00
O60    O     0.10936   0.47185   0.16396   0.00000  Uiso   1.00
C61    C     0.05529   0.47880   0.16406   0.00000  Uiso   1.00
H62    H     0.04876   0.00552   0.18973   0.00000  Uiso   1.00
H63    H     0.03478   0.44747   0.17191   0.00000  Uiso   1.00
H64    H     0.03740   0.49026   0.12793   0.00000  Uiso   1.00
C65    C     0.08781   0.19442   0.02013   0.00000  Uiso   1.00
H66    H     0.05792   0.17906   0.03806   0.00000  Uiso   1.00
O67    O     0.08731   0.18666   0.47773   0.00000  Uiso   1.00
C68    C     0.24604   0.19715   0.48246   0.00000  Uiso   1.00
H69    H     0.24650   0.19435   0.02075   0.00000  Uiso   1.00
O70    O     0.27970   0.17734   0.46462   0.00000  Uiso   1.00
C71    C     0.49931   0.16380   0.24995   0.00000  Uiso   1.00
C72    C     0.49925   0.33622   0.24985   0.00000  Uiso   1.00
C73    C     0.46174   0.22332   0.04778   0.00000  Uiso   1.00
C74    C     0.53874   0.22438   0.45260   0.00000  Uiso   1.00
C75    C     0.46333   0.22513   0.09797   0.00000  Uiso   1.00
C76    C     0.53717   0.22578   0.40231   0.00000  Uiso   1.00
C77    C     0.53607   0.27411   0.10644   0.00000  Uiso   1.00
C78    C     0.46345   0.27376   0.39329   0.00000  Uiso   1.00
C79    C     0.53627   0.27371   0.05677   0.00000  Uiso   1.00
C80    C     0.46314   0.27350   0.44295   0.00000  Uiso   1.00
C81    C     0.49916   0.24830   0.02649   0.00000  Uiso   1.00
C82    C     0.50066   0.24861   0.47343   0.00000  Uiso   1.00
C83    C     0.40030   0.25001   0.23750   0.00000  Uiso   1.00
C84    C     0.59970   0.25001   0.26250   0.00000  Uiso   1.00
C85    C     0.34528   0.25003   0.23074   0.00000  Uiso   1.00
C86    C     0.65472   0.25002   0.26926   0.00000  Uiso   1.00
C87    C     0.46198   0.04894   0.28232   0.00000  Uiso   1.00
C88    C     0.46364   0.45124   0.20637   0.00000  Uiso   1.00
C89    C     0.46927   0.09484   0.28389   0.00000  Uiso   1.00
C90    C     0.47092   0.40534   0.20698   0.00000  Uiso   1.00
C91    C     0.49416   0.11597   0.24928   0.00000  Uiso   1.00
C92    C     0.49401   0.38409   0.24906   0.00000  Uiso   1.00
C93    C     0.51228   0.09146   0.21313   0.00000  Uiso   1.00
C94    C     0.51023   0.40852   0.29070   0.00000  Uiso   1.00
C95    C     0.50686   0.04559   0.21230   0.00000  Uiso   1.00
C96    C     0.50477   0.45440   0.28996   0.00000  Uiso   1.00
C97    C     0.48210   0.02420   0.24687   0.00000  Uiso   1.00
C98    C     0.48192   0.47589   0.24793   0.00000  Uiso   1.00
H99    H     0.65793   0.25005   0.19423   0.00000  Uiso   1.00
H100   H     0.34207   0.25001   0.30577   0.00000  Uiso   1.00
H101   H     0.45474   0.11391   0.31170   0.00000  Uiso   1.00
H102   H     0.45784   0.38639   0.17475   0.00000  Uiso   1.00
H103   H     0.53170   0.10766   0.18631   0.00000  Uiso   1.00
H104   H     0.52825   0.39229   0.32337   0.00000  Uiso   1.00
H105   H     0.52332   0.02664   0.18551   0.00000  Uiso   1.00
H106   H     0.51983   0.47327   0.32175   0.00000  Uiso   1.00
H107   H     0.43533   0.20614   0.11478   0.00000  Uiso   1.00
H108   H     0.56558   0.20723   0.38567   0.00000  Uiso   1.00
H109   H     0.56495   0.29375   0.12924   0.00000  Uiso   1.00
H110   H     0.43425   0.29296   0.37028   0.00000  Uiso   1.00
H111   H     0.56543   0.29316   0.04195   0.00000  Uiso   1.00
H112   H     0.43352   0.29250   0.45758   0.00000  Uiso   1.00
N113   N     0.50000   0.24999   0.12624   0.00000  Uiso   1.00
N114   N     0.50000   0.25001   0.37377   0.00000  Uiso   1.00
O115   O     0.50000   0.18453   0.28974   0.00000  Uiso   1.00
O116   O     0.50000   0.31546   0.21026   0.00000  Uiso   1.00
O117   O     0.50000   0.18453   0.21026   0.00000  Uiso   1.00
O118   O     0.50000   0.31547   0.28974   0.00000  Uiso   1.00
O119   O     0.42392   0.25000   0.28045   0.00000  Uiso   1.00
O120   O     0.57608   0.25000   0.21956   0.00000  Uiso   1.00
O121   O     0.42392   0.25000   0.20097   0.00000  Uiso   1.00
O122   O     0.57608   0.25000   0.29904   0.00000  Uiso   1.00
Zn123  Zn    0.50000   0.25000   0.30307   0.00000  Uiso   1.00
Zn124  Zn    0.50000   0.24999   0.19693   0.00000  Uiso   1.00
O125   O     0.43905   0.02838   0.31779   0.00000  Uiso   1.00
C126   C     0.38510   0.02266   0.30111   0.00000  Uiso   1.00
H127   H     0.37881   0.49666   0.27283   0.00000  Uiso   1.00
H128   H     0.36581   0.05461   0.28797   0.00000  Uiso   1.00
H129   H     0.36573   0.01084   0.33128   0.00000  Uiso   1.00
O130   O     0.44270   0.47185   0.16396   0.00000  Uiso   1.00
C131   C     0.38862   0.47880   0.16406   0.00000  Uiso   1.00
H132   H     0.38209   0.00552   0.18973   0.00000  Uiso   1.00
H133   H     0.36811   0.44747   0.17191   0.00000  Uiso   1.00
H134   H     0.37073   0.49026   0.12793   0.00000  Uiso   1.00
C135   C     0.42114   0.19442   0.02013   0.00000  Uiso   1.00
H136   H     0.39125   0.17906   0.03806   0.00000  Uiso   1.00
O137   O     0.42065   0.18666   0.47773   0.00000  Uiso   1.00
C138   C     0.57938   0.19715   0.48246   0.00000  Uiso   1.00
H139   H     0.57983   0.19435   0.02075   0.00000  Uiso   1.00
O140   O     0.61304   0.17734   0.46462   0.00000  Uiso   1.00
C141   C     0.83265   0.16380   0.24995   0.00000  Uiso   1.00
C142   C     0.83259   0.33622   0.24985   0.00000  Uiso   1.00
C143   C     0.79508   0.22332   0.04778   0.00000  Uiso   1.00
C144   C     0.87207   0.22438   0.45260   0.00000  Uiso   1.00
C145   C     0.79666   0.22513   0.09797   0.00000  Uiso   1.00
C146   C     0.87050   0.22578   0.40231   0.00000  Uiso   1.00
C147   C     0.86941   0.27411   0.10644   0.00000  Uiso   1.00
C148   C     0.79679   0.27376   0.39329   0.00000  Uiso   1.00
C149   C     0.86961   0.27371   0.05677   0.00000  Uiso   1.00
C150   C     0.79647   0.27350   0.44295   0.00000  Uiso   1.00
C151   C     0.83249   0.24830   0.02649   0.00000  Uiso   1.00
C152   C     0.83399   0.24861   0.47343   0.00000  Uiso   1.00
C153   C     0.73363   0.25001   0.23750   0.00000  Uiso   1.00
C154   C     0.93303   0.25001   0.26250   0.00000  Uiso   1.00
C155   C     0.67862   0.25003   0.23074   0.00000  Uiso   1.00
C156   C     0.98805   0.25002   0.26926   0.00000  Uiso   1.00
C157   C     0.79531   0.04894   0.28232   0.00000  Uiso   1.00
C158   C     0.79697   0.45124   0.20637   0.00000  Uiso   1.00
C159   C     0.80260   0.09484   0.28389   0.00000  Uiso   1.00
C160   C     0.80425   0.40534   0.20698   0.00000  Uiso   1.00
C161   C     0.82749   0.11597   0.24928   0.00000  Uiso   1.00
C162   C     0.82734   0.38409   0.24906   0.00000  Uiso   1.00
C163   C     0.84561   0.09146   0.21313   0.00000  Uiso   1.00
C164   C     0.84356   0.40852   0.29070   0.00000  Uiso   1.00
C165   C     0.84020   0.04559   0.21230   0.00000  Uiso   1.00
C166   C     0.83811   0.45440   0.28996   0.00000  Uiso   1.00
C167   C     0.81544   0.02420   0.24687   0.00000  Uiso   1.00
C168   C     0.81526   0.47589   0.24793   0.00000  Uiso   1.00
H169   H     0.99126   0.25005   0.19423   0.00000  Uiso   1.00
H170   H     0.67541   0.25001   0.30577   0.00000  Uiso   1.00
H171   H     0.78807   0.11391   0.31170   0.00000  Uiso   1.00
H172   H     0.79117   0.38639   0.17475   0.00000  Uiso   1.00
H173   H     0.86504   0.10766   0.18631   0.00000  Uiso   1.00
H174   H     0.86158   0.39229   0.32337   0.00000  Uiso   1.00
H175   H     0.85665   0.02664   0.18551   0.00000  Uiso   1.00
H176   H     0.85317   0.47327   0.32175   0.00000  Uiso   1.00
H177   H     0.76866   0.20614   0.11478   0.00000  Uiso   1.00
H178   H     0.89892   0.20723   0.38567   0.00000  Uiso   1.00
H179   H     0.89828   0.29375   0.12924   0.00000  Uiso   1.00
H180   H     0.76759   0.29296   0.37028   0.00000  Uiso   1.00
H181   H     0.89876   0.29316   0.04195   0.00000  Uiso   1.00
H182   H     0.76686   0.29250   0.45758   0.00000  Uiso   1.00
N183   N     0.83333   0.24999   0.12624   0.00000  Uiso   1.00
N184   N     0.83333   0.25001   0.37377   0.00000  Uiso   1.00
O185   O     0.83334   0.18453   0.28974   0.00000  Uiso   1.00
O186   O     0.83333   0.31546   0.21026   0.00000  Uiso   1.00
O187   O     0.83334   0.18453   0.21026   0.00000  Uiso   1.00
O188   O     0.83333   0.31547   0.28974   0.00000  Uiso   1.00
O189   O     0.75725   0.25000   0.28045   0.00000  Uiso   1.00
O190   O     0.90942   0.25000   0.21956   0.00000  Uiso   1.00
O191   O     0.75725   0.25000   0.20097   0.00000  Uiso   1.00
O192   O     0.90942   0.25000   0.29904   0.00000  Uiso   1.00
Zn193  Zn    0.83333   0.25000   0.30307   0.00000  Uiso   1.00
Zn194  Zn    0.83333   0.24999   0.19693   0.00000  Uiso   1.00
O195   O     0.77238   0.02838   0.31779   0.00000  Uiso   1.00
C196   C     0.71843   0.02266   0.30111   0.00000  Uiso   1.00
H197   H     0.71214   0.49666   0.27283   0.00000  Uiso   1.00
H198   H     0.69914   0.05461   0.28797   0.00000  Uiso   1.00
H199   H     0.69906   0.01084   0.33128   0.00000  Uiso   1.00
O200   O     0.77603   0.47185   0.16396   0.00000  Uiso   1.00
C201   C     0.72195   0.47880   0.16406   0.00000  Uiso   1.00
H202   H     0.71542   0.00552   0.18973   0.00000  Uiso   1.00
H203   H     0.70144   0.44747   0.17191   0.00000  Uiso   1.00
H204   H     0.70406   0.49026   0.12793   0.00000  Uiso   1.00
C205   C     0.75448   0.19442   0.02013   0.00000  Uiso   1.00
H206   H     0.72459   0.17906   0.03806   0.00000  Uiso   1.00
O207   O     0.75398   0.18666   0.47773   0.00000  Uiso   1.00
C208   C     0.91271   0.19715   0.48246   0.00000  Uiso   1.00
H209   H     0.91317   0.19435   0.02075   0.00000  Uiso   1.00
O210   O     0.94637   0.17734   0.46462   0.00000  Uiso   1.00
C211   C     0.16598   0.66380   0.24995   0.00000  Uiso   1.00
C212   C     0.16592   0.83622   0.24985   0.00000  Uiso   1.00
C213   C     0.12841   0.72332   0.04778   0.00000  Uiso   1.00
C214   C     0.20540   0.72438   0.45260   0.00000  Uiso   1.00
C215   C     0.13000   0.72513   0.09797   0.00000  Uiso   1.00
C216   C     0.20383   0.72578   0.40231   0.00000  Uiso   1.00
C217   C     0.20274   0.77411   0.10644   0.00000  Uiso   1.00
C218   C     0.13012   0.77376   0.39329   0.00000  Uiso   1.00
C219   C     0.20294   0.77371   0.05677   0.00000  Uiso   1.00
C220   C     0.12981   0.77350   0.44295   0.00000  Uiso   1.00
C221   C     0.16582   0.74830   0.02649   0.00000  Uiso   1.00
C222   C     0.16732   0.74861   0.47343   0.00000  Uiso   1.00
C223   C     0.06697   0.75001   0.23750   0.00000  Uiso   1.00
C224   C     0.26637   0.75001   0.26250   0.00000  Uiso   1.00
C225   C     0.01195   0.75003   0.23074   0.00000  Uiso   1.00
C226   C     0.32139   0.75002   0.26926   0.00000  Uiso   1.00
C227   C     0.12864   0.54894   0.28232   0.00000  Uiso   1.00
C228   C     0.13030   0.95124   0.20637   0.00000  Uiso   1.00
C229   C     0.13593   0.59484   0.28389   0.00000  Uiso   1.00
C230   C     0.13758   0.90534   0.20698   0.00000  Uiso   1.00
C231   C     0.16083   0.61597   0.24928   0.00000  Uiso   1.00
C232   C     0.16067   0.88409   0.24906   0.00000  Uiso   1.00
C233   C     0.17895   0.59146   0.21313   0.00000  Uiso   1.00
C234   C     0.17690   0.90852   0.29070   0.00000  Uiso   1.00
C235   C     0.17353   0.54559   0.21230   0.00000  Uiso   1.00
C236   C     0.17144   0.95440   0.28996   0.00000  Uiso   1.00
C237   C     0.14877   0.52420   0.24687   0.00000  Uiso   1.00
C238   C     0.14859   0.97589   0.24793   0.00000  Uiso   1.00
H239   H     0.32460   0.75005   0.19423   0.00000  Uiso   1.00
H240   H     0.00874   0.75001   0.30577   0.00000  Uiso   1.00
H241   H     0.12141   0.61391   0.31170   0.00000  Uiso   1.00
H242   H     0.12450   0.88639   0.17475   0.00000  Uiso   1.00
H243   H     0.19837   0.60766   0.18631   0.00000  Uiso   1.00
H244   H     0.19491   0.89229   0.32337   0.00000  Uiso   1.00
H245   H     0.18998   0.52664   0.18551   0.00000  Uiso   1.00
H246   H     0.18650   0.97327   0.32175   0.00000  Uiso   1.00
H247   H     0.10200   0.70614   0.11478   0.00000  Uiso   1.00
H248   H     0.23225   0.70723   0.38567   0.00000  Uiso   1.00
H249   H     0.23161   0.79375   0.12924   0.00000  Uiso   1.00
H250   H     0.10092   0.79296   0.37028   0.00000  Uiso   1.00
H251   H     0.23209   0.79316   0.04195   0.00000  Uiso   1.00
H252   H     0.10019   0.79250   0.45758   0.00000  Uiso   1.00
N253   N     0.16667   0.74999   0.12624   0.00000  Uiso   1.00
N254   N     0.16667   0.75001   0.37377   0.00000  Uiso   1.00
O255   O     0.16667   0.68453   0.28974   0.00000  Uiso   1.00
O256   O     0.16666   0.81546   0.21026   0.00000  Uiso   1.00
O257   O     0.16667   0.68453   0.21026   0.00000  Uiso   1.00
O258   O     0.16666   0.81547   0.28974   0.00000  Uiso   1.00
O259   O     0.09058   0.75000   0.28045   0.00000  Uiso   1.00
O260   O     0.24275   0.75000   0.21956   0.00000  Uiso   1.00
O261   O     0.09058   0.75000   0.20097   0.00000  Uiso   1.00
O262   O     0.24275   0.75000   0.29904   0.00000  Uiso   1.00
Zn263  Zn    0.16667   0.75000   0.30307   0.00000  Uiso   1.00
Zn264  Zn    0.16667   0.74999   0.19693   0.00000  Uiso   1.00
O265   O     0.10572   0.52838   0.31779   0.00000  Uiso   1.00
C266   C     0.05176   0.52266   0.30111   0.00000  Uiso   1.00
H267   H     0.04547   0.99666   0.27283   0.00000  Uiso   1.00
H268   H     0.03247   0.55461   0.28797   0.00000  Uiso   1.00
H269   H     0.03240   0.51084   0.33128   0.00000  Uiso   1.00
O270   O     0.10936   0.97185   0.16396   0.00000  Uiso   1.00
C271   C     0.05529   0.97880   0.16406   0.00000  Uiso   1.00
H272   H     0.04876   0.50552   0.18973   0.00000  Uiso   1.00
H273   H     0.03478   0.94747   0.17191   0.00000  Uiso   1.00
H274   H     0.03740   0.99026   0.12793   0.00000  Uiso   1.00
C275   C     0.08781   0.69442   0.02013   0.00000  Uiso   1.00
H276   H     0.05792   0.67906   0.03806   0.00000  Uiso   1.00
O277   O     0.08731   0.68666   0.47773   0.00000  Uiso   1.00
C278   C     0.24604   0.69715   0.48246   0.00000  Uiso   1.00
H279   H     0.24650   0.69435   0.02075   0.00000  Uiso   1.00
O280   O     0.27970   0.67734   0.46462   0.00000  Uiso   1.00
C281   C     0.49931   0.66380   0.24995   0.00000  Uiso   1.00
C282   C     0.49925   0.83622   0.24985   0.00000  Uiso   1.00
C283   C     0.46174   0.72332   0.04778   0.00000  Uiso   1.00
C284   C     0.53874   0.72438   0.45260   0.00000  Uiso   1.00
C285   C     0.46333   0.72513   0.09797   0.00000  Uiso   1.00
C286   C     0.53717   0.72578   0.40231   0.00000  Uiso   1.00
C287   C     0.53607   0.77411   0.10644   0.00000  Uiso   1.00
C288   C     0.46345   0.77376   0.39329   0.00000  Uiso   1.00
C289   C     0.53627   0.77371   0.05677   0.00000  Uiso   1.00
C290   C     0.46314   0.77350   0.44295   0.00000  Uiso   1.00
C291   C     0.49916   0.74830   0.02649   0.00000  Uiso   1.00
C292   C     0.50066   0.74861   0.47343   0.00000  Uiso   1.00
C293   C     0.40030   0.75001   0.23750   0.00000  Uiso   1.00
C294   C     0.59970   0.75001   0.26250   0.00000  Uiso   1.00
C295   C     0.34528   0.75003   0.23074   0.00000  Uiso   1.00
C296   C     0.65472   0.75002   0.26926   0.00000  Uiso   1.00
C297   C     0.46198   0.54894   0.28232   0.00000  Uiso   1.00
C298   C     0.46364   0.95124   0.20637   0.00000  Uiso   1.00
C299   C     0.46927   0.59484   0.28389   0.00000  Uiso   1.00
C300   C     0.47092   0.90534   0.20698   0.00000  Uiso   1.00
C301   C     0.49416   0.61597   0.24928   0.00000  Uiso   1.00
C302   C     0.49401   0.88409   0.24906   0.00000  Uiso   1.00
C303   C     0.51228   0.59146   0.21313   0.00000  Uiso   1.00
C304   C     0.51023   0.90852   0.29070   0.00000  Uiso   1.00
C305   C     0.50686   0.54559   0.21230   0.00000  Uiso   1.00
C306   C     0.50477   0.95440   0.28996   0.00000  Uiso   1.00
C307   C     0.48210   0.52420   0.24687   0.00000  Uiso   1.00
C308   C     0.48192   0.97589   0.24793   0.00000  Uiso   1.00
H309   H     0.65793   0.75005   0.19423   0.00000  Uiso   1.00
H310   H     0.34207   0.75001   0.30577   0.00000  Uiso   1.00
H311   H     0.45474   0.61391   0.31170   0.00000  Uiso   1.00
H312   H     0.45784   0.88639   0.17475   0.00000  Uiso   1.00
H313   H     0.53170   0.60766   0.18631   0.00000  Uiso   1.00
H314   H     0.52825   0.89229   0.32337   0.00000  Uiso   1.00
H315   H     0.52332   0.52664   0.18551   0.00000  Uiso   1.00
H316   H     0.51983   0.97327   0.32175   0.00000  Uiso   1.00
H317   H     0.43533   0.70614   0.11478   0.00000  Uiso   1.00
H318   H     0.56558   0.70723   0.38567   0.00000  Uiso   1.00
H319   H     0.56495   0.79375   0.12924   0.00000  Uiso   1.00
H320   H     0.43425   0.79296   0.37028   0.00000  Uiso   1.00
H321   H     0.56543   0.79316   0.04195   0.00000  Uiso   1.00
H322   H     0.43352   0.79250   0.45758   0.00000  Uiso   1.00
N323   N     0.50000   0.74999   0.12624   0.00000  Uiso   1.00
N324   N     0.50000   0.75001   0.37377   0.00000  Uiso   1.00
O325   O     0.50000   0.68453   0.28974   0.00000  Uiso   1.00
O326   O     0.50000   0.81546   0.21026   0.00000  Uiso   1.00
O327   O     0.50000   0.68453   0.21026   0.00000  Uiso   1.00
O328   O     0.50000   0.81547   0.28974   0.00000  Uiso   1.00
O329   O     0.42392   0.75000   0.28045   0.00000  Uiso   1.00
O330   O     0.57608   0.75000   0.21956   0.00000  Uiso   1.00
O331   O     0.42392   0.75000   0.20097   0.00000  Uiso   1.00
O332   O     0.57608   0.75000   0.29904   0.00000  Uiso   1.00
Zn333  Zn    0.50000   0.75000   0.30307   0.00000  Uiso   1.00
Zn334  Zn    0.50000   0.74999   0.19693   0.00000  Uiso   1.00
O335   O     0.43905   0.52838   0.31779   0.00000  Uiso   1.00
C336   C     0.38510   0.52266   0.30111   0.00000  Uiso   1.00
H337   H     0.37881   0.99666   0.27283   0.00000  Uiso   1.00
H338   H     0.36581   0.55461   0.28797   0.00000  Uiso   1.00
H339   H     0.36573   0.51084   0.33128   0.00000  Uiso   1.00
O340   O     0.44270   0.97185   0.16396   0.00000  Uiso   1.00
C341   C     0.38862   0.97880   0.16406   0.00000  Uiso   1.00
H342   H     0.38209   0.50552   0.18973   0.00000  Uiso   1.00
H343   H     0.36811   0.94747   0.17191   0.00000  Uiso   1.00
H344   H     0.37073   0.99026   0.12793   0.00000  Uiso   1.00
C345   C     0.42114   0.69442   0.02013   0.00000  Uiso   1.00
H346   H     0.39125   0.67906   0.03806   0.00000  Uiso   1.00
O347   O     0.42065   0.68666   0.47773   0.00000  Uiso   1.00
C348   C     0.57938   0.69715   0.48246   0.00000  Uiso   1.00
H349   H     0.57983   0.69435   0.02075   0.00000  Uiso   1.00
O350   O     0.61304   0.67734   0.46462   0.00000  Uiso   1.00
C351   C     0.83265   0.66380   0.24995   0.00000  Uiso   1.00
C352   C     0.83259   0.83622   0.24985   0.00000  Uiso   1.00
C353   C     0.79508   0.72332   0.04778   0.00000  Uiso   1.00
C354   C     0.87207   0.72438   0.45260   0.00000  Uiso   1.00
C355   C     0.79666   0.72513   0.09797   0.00000  Uiso   1.00
C356   C     0.87050   0.72578   0.40231   0.00000  Uiso   1.00
C357   C     0.86941   0.77411   0.10644   0.00000  Uiso   1.00
C358   C     0.79679   0.77376   0.39329   0.00000  Uiso   1.00
C359   C     0.86961   0.77371   0.05677   0.00000  Uiso   1.00
C360   C     0.79647   0.77350   0.44295   0.00000  Uiso   1.00
C361   C     0.83249   0.74830   0.02649   0.00000  Uiso   1.00
C362   C     0.83399   0.74861   0.47343   0.00000  Uiso   1.00
C363   C     0.73363   0.75001   0.23750   0.00000  Uiso   1.00
C364   C     0.93303   0.75001   0.26250   0.00000  Uiso   1.00
C365   C     0.67862   0.75003   0.23074   0.00000  Uiso   1.00
C366   C     0.98805   0.75002   0.26926   0.00000  Uiso   1.00
C367   C     0.79531   0.54894   0.28232   0.00000  Uiso   1.00
C368   C     0.79697   0.95124   0.20637   0.00000  Uiso   1.00
C369   C     0.80260   0.59484   0.28389   0.00000  Uiso   1.00
C370   C     0.80425   0.90534   0.20698   0.00000  Uiso   1.00
C371   C     0.82749   0.61597   0.24928   0.00000  Uiso   1.00
C372   C     0.82734   0.88409   0.24906   0.00000  Uiso   1.00
C373   C     0.84561   0.59146   0.21313   0.00000  Uiso   1.00
C374   C     0.84356   0.90852   0.29070   0.00000  Uiso   1.00
C375   C     0.84020   0.54559   0.21230   0.00000  Uiso   1.00
C376   C     0.83811   0.95440   0.28996   0.00000  Uiso   1.00
C377   C     0.81544   0.52420   0.24687   0.00000  Uiso   1.00
C378   C     0.81526   0.97589   0.24793   0.00000  Uiso   1.00
H379   H     0.99126   0.75005   0.19423   0.00000  Uiso   1.00
H380   H     0.67541   0.75001   0.30577   0.00000  Uiso   1.00
H381   H     0.78807   0.61391   0.31170   0.00000  Uiso   1.00
H382   H     0.79117   0.88639   0.17475   0.00000  Uiso   1.00
H383   H     0.86504   0.60766   0.18631   0.00000  Uiso   1.00
H384   H     0.86158   0.89229   0.32337   0.00000  Uiso   1.00
H385   H     0.85665   0.52664   0.18551   0.00000  Uiso   1.00
H386   H     0.85317   0.97327   0.32175   0.00000  Uiso   1.00
H387   H     0.76866   0.70614   0.11478   0.00000  Uiso   1.00
H388   H     0.89892   0.70723   0.38567   0.00000  Uiso   1.00
H389   H     0.89828   0.79375   0.12924   0.00000  Uiso   1.00
H390   H     0.76759   0.79296   0.37028   0.00000  Uiso   1.00
H391   H     0.89876   0.79316   0.04195   0.00000  Uiso   1.00
H392   H     0.76686   0.79250   0.45758   0.00000  Uiso   1.00
N393   N     0.83333   0.74999   0.12624   0.00000  Uiso   1.00
N394   N     0.83333   0.75001   0.37377   0.00000  Uiso   1.00
O395   O     0.83334   0.68453   0.28974   0.00000  Uiso   1.00
O396   O     0.83333   0.81546   0.21026   0.00000  Uiso   1.00
O397   O     0.83334   0.68453   0.21026   0.00000  Uiso   1.00
O398   O     0.83333   0.81547   0.28974   0.00000  Uiso   1.00
O399   O     0.75725   0.75000   0.28045   0.00000  Uiso   1.00
O400   O     0.90942   0.75000   0.21956   0.00000  Uiso   1.00
O401   O     0.75725   0.75000   0.20097   0.00000  Uiso   1.00
O402   O     0.90942   0.75000   0.29904   0.00000  Uiso   1.00
Zn403  Zn    0.83333   0.75000   0.30307   0.00000  Uiso   1.00
Zn404  Zn    0.83333   0.74999   0.19693   0.00000  Uiso   1.00
O405   O     0.77238   0.52838   0.31779   0.00000  Uiso   1.00
C406   C     0.71843   0.52266   0.30111   0.00000  Uiso   1.00
H407   H     0.71214   0.99666   0.27283   0.00000  Uiso   1.00
H408   H     0.69914   0.55461   0.28797   0.00000  Uiso   1.00
H409   H     0.69906   0.51084   0.33128   0.00000  Uiso   1.00
O410   O     0.77603   0.97185   0.16396   0.00000  Uiso   1.00
C411   C     0.72195   0.97880   0.16406   0.00000  Uiso   1.00
H412   H     0.71542   0.50552   0.18973   0.00000  Uiso   1.00
H413   H     0.70144   0.94747   0.17191   0.00000  Uiso   1.00
H414   H     0.70406   0.99026   0.12793   0.00000  Uiso   1.00
C415   C     0.75448   0.69442   0.02013   0.00000  Uiso   1.00
H416   H     0.72459   0.67906   0.03806   0.00000  Uiso   1.00
O417   O     0.75398   0.68666   0.47773   0.00000  Uiso   1.00
C418   C     0.91271   0.69715   0.48246   0.00000  Uiso   1.00
H419   H     0.91317   0.69435   0.02075   0.00000  Uiso   1.00
O420   O     0.94637   0.67734   0.46462   0.00000  Uiso   1.00
C421   C     0.16598   0.16380   0.74995   0.00000  Uiso   1.00
C422   C     0.16592   0.33622   0.74985   0.00000  Uiso   1.00
C423   C     0.12841   0.22332   0.54778   0.00000  Uiso   1.00
C424   C     0.20540   0.22438   0.95260   0.00000  Uiso   1.00
C425   C     0.13000   0.22513   0.59797   0.00000  Uiso   1.00
C426   C     0.20383   0.22578   0.90231   0.00000  Uiso   1.00
C427   C     0.20274   0.27411   0.60644   0.00000  Uiso   1.00
C428   C     0.13012   0.27376   0.89329   0.00000  Uiso   1.00
C429   C     0.20294   0.27371   0.55677   0.00000  Uiso   1.00
C430   C     0.12981   0.27350   0.94295   0.00000  Uiso   1.00
C431   C     0.16582   0.24830   0.52649   0.00000  Uiso   1.00
C432   C     0.16732   0.24861   0.97343   0.00000  Uiso   1.00
C433   C     0.06697   0.25001   0.73750   0.00000  Uiso   1.00
C434   C     0.26637   0.25001   0.76250   0.00000  Uiso   1.00
C435   C     0.01195   0.25003   0.73074   0.00000  Uiso   1.00
C436   C     0.32139   0.25002   0.76926   0.00000  Uiso   1.00
C437   C     0.12864   0.04894   0.78232   0.00000  Uiso   1.00
C438   C     0.13030   0.45124   0.70637   0.00000  Uiso   1.00
C439   C     0.13593   0.09484   0.78389   0.00000  Uiso   1.00
C440   C     0.13758   0.40534   0.70698   0.00000  Uiso   1.00
C441   C     0.16083   0.11597   0.74928   0.00000  Uiso   1.00
C442   C     0.16067   0.38409   0.74906   0.00000  Uiso   1.00
C443   C     0.17895   0.09146   0.71313   0.00000  Uiso   1.00
C444   C     0.17690   0.40852   0.79070   0.00000  Uiso   1.00
C445   C     0.17353   0.04559   0.71230   0.00000  Uiso   1.00
C446   C     0.17144   0.45440   0.78996   0.00000  Uiso   1.00
C447   C     0.14877   0.02420   0.74687   0.00000  Uiso   1.00
C448   C     0.14859   0.47589   0.74793   0.00000  Uiso   1.00
H449   H     0.32460   0.25005   0.69423   0.00000  Uiso   1.00
H450   H     0.00874   0.25001   0.80577   0.00000  Uiso   1.00
H451   H     0.12141   0.11391   0.81170   0.00000  Uiso   1.00
H452   H     0.12450   0.38639   0.67475   0.00000  Uiso   1.00
H453   H     0.19837   0.10766   0.68631   0.00000  Uiso   1.00
H454   H     0.19491   0.39229   0.82337   0.00000  Uiso   1.00
H455   H     0.18998   0.02664   0.68551   0.00000  Uiso   1.00
H456   H     0.18650   0.47327   0.82175   0.00000  Uiso   1.00
H457   H     0.10200   0.20614   0.61478   0.00000  Uiso   1.00
H458   H     0.23225   0.20723   0.88567   0.00000  Uiso   1.00
H459   H     0.23161   0.29375   0.62924   0.00000  Uiso   1.00
H460   H     0.10092   0.29296   0.87028   0.00000  Uiso   1.00
H461   H     0.23209   0.29316   0.54195   0.00000  Uiso   1.00
H462   H     0.10019   0.29250   0.95758   0.00000  Uiso   1.00
N463   N     0.16667   0.24999   0.62624   0.00000  Uiso   1.00
N464   N     0.16667   0.25001   0.87377   0.00000  Uiso   1.00
O465   O     0.16667   0.18453   0.78974   0.00000  Uiso   1.00
O466   O     0.16666   0.31546   0.71026   0.00000  Uiso   1.00
O467   O     0.16667   0.18453   0.71026   0.00000  Uiso   1.00
O468   O     0.16666   0.31547   0.78974   0.00000  Uiso   1.00
O469   O     0.09058   0.25000   0.78045   0.00000  Uiso   1.00
O470   O     0.24275   0.25000   0.71956   0.00000  Uiso   1.00
O471   O     0.09058   0.25000   0.70097   0.00000  Uiso   1.00
O472   O     0.24275   0.25000   0.79904   0.00000  Uiso   1.00
Zn473  Zn    0.16667   0.25000   0.80307   0.00000  Uiso   1.00
Zn474  Zn    0.16667   0.24999   0.69693   0.00000  Uiso   1.00
O475   O     0.10572   0.02838   0.81779   0.00000  Uiso   1.00
C476   C     0.05176   0.02266   0.80111   0.00000  Uiso   1.00
H477   H     0.04547   0.49666   0.77283   0.00000  Uiso   1.00
H478   H     0.03247   0.05461   0.78797   0.00000  Uiso   1.00
H479   H     0.03240   0.01084   0.83128   0.00000  Uiso   1.00
O480   O     0.10936   0.47185   0.66396   0.00000  Uiso   1.00
C481   C     0.05529   0.47880   0.66406   0.00000  Uiso   1.00
H482   H     0.04876   0.00552   0.68973   0.00000  Uiso   1.00
H483   H     0.03478   0.44747   0.67191   0.00000  Uiso   1.00
H484   H     0.03740   0.49026   0.62793   0.00000  Uiso   1.00
C485   C     0.08781   0.19442   0.52013   0.00000  Uiso   1.00
H486   H     0.05792   0.17906   0.53806   0.00000  Uiso   1.00
O487   O     0.08731   0.18666   0.97773   0.00000  Uiso   1.00
C488   C     0.24604   0.19715   0.98246   0.00000  Uiso   1.00
H489   H     0.24650   0.19435   0.52075   0.00000  Uiso   1.00
O490   O     0.27970   0.17734   0.96462   0.00000  Uiso   1.00
C491   C     0.49931   0.16380   0.74995   0.00000  Uiso   1.00
C492   C     0.49925   0.33622   0.74985   0.00000  Uiso   1.00
C493   C     0.46174   0.22332   0.54778   0.00000  Uiso   1.00
C494   C     0.53874   0.22438   0.95260   0.00000  Uiso   1.00
C495   C     0.46333   0.22513   0.59797   0.00000  Uiso   1.00
C496   C     0.53717   0.22578   0.90231   0.00000  Uiso   1.00
C497   C     0.53607   0.27411   0.60644   0.00000  Uiso   1.00
C498   C     0.46345   0.27376   0.89329   0.00000  Uiso   1.00
C499   C     0.53627   0.27371   0.55677   0.00000  Uiso   1.00
C500   C     0.46314   0.27350   0.94295   0.00000  Uiso   1.00
C501   C     0.49916   0.24830   0.52649   0.00000  Uiso   1.00
C502   C     0.50066   0.24861   0.97343   0.00000  Uiso   1.00
C503   C     0.40030   0.25001   0.73750   0.00000  Uiso   1.00
C504   C     0.59970   0.25001   0.76250   0.00000  Uiso   1.00
C505   C     0.34528   0.25003   0.73074   0.00000  Uiso   1.00
C506   C     0.65472   0.25002   0.76926   0.00000  Uiso   1.00
C507   C     0.46198   0.04894   0.78232   0.00000  Uiso   1.00
C508   C     0.46364   0.45124   0.70637   0.00000  Uiso   1.00
C509   C     0.46927   0.09484   0.78389   0.00000  Uiso   1.00
C510   C     0.47092   0.40534   0.70698   0.00000  Uiso   1.00
C511   C     0.49416   0.11597   0.74928   0.00000  Uiso   1.00
C512   C     0.49401   0.38409   0.74906   0.00000  Uiso   1.00
C513   C     0.51228   0.09146   0.71313   0.00000  Uiso   1.00
C514   C     0.51023   0.40852   0.79070   0.00000  Uiso   1.00
C515   C     0.50686   0.04559   0.71230   0.00000  Uiso   1.00
C516   C     0.50477   0.45440   0.78996   0.00000  Uiso   1.00
C517   C     0.48210   0.02420   0.74687   0.00000  Uiso   1.00
C518   C     0.48192   0.47589   0.74793   0.00000  Uiso   1.00
H519   H     0.65793   0.25005   0.69423   0.00000  Uiso   1.00
H520   H     0.34207   0.25001   0.80577   0.00000  Uiso   1.00
H521   H     0.45474   0.11391   0.81170   0.00000  Uiso   1.00
H522   H     0.45784   0.38639   0.67475   0.00000  Uiso   1.00
H523   H     0.53170   0.10766   0.68631   0.00000  Uiso   1.00
H524   H     0.52825   0.39229   0.82337   0.00000  Uiso   1.00
H525   H     0.52332   0.02664   0.68551   0.00000  Uiso   1.00
H526   H     0.51983   0.47327   0.82175   0.00000  Uiso   1.00
H527   H     0.43533   0.20614   0.61478   0.00000  Uiso   1.00
H528   H     0.56558   0.20723   0.88567   0.00000  Uiso   1.00
H529   H     0.56495   0.29375   0.62924   0.00000  Uiso   1.00
H530   H     0.43425   0.29296   0.87028   0.00000  Uiso   1.00
H531   H     0.56543   0.29316   0.54195   0.00000  Uiso   1.00
H532   H     0.43352   0.29250   0.95758   0.00000  Uiso   1.00
N533   N     0.50000   0.24999   0.62624   0.00000  Uiso   1.00
N534   N     0.50000   0.25001   0.87377   0.00000  Uiso   1.00
O535   O     0.50000   0.18453   0.78974   0.00000  Uiso   1.00
O536   O     0.50000   0.31546   0.71026   0.00000  Uiso   1.00
O537   O     0.50000   0.18453   0.71026   0.00000  Uiso   1.00
O538   O     0.50000   0.31547   0.78974   0.00000  Uiso   1.00
O539   O     0.42392   0.25000   0.78045   0.00000  Uiso   1.00
O540   O     0.57608   0.25000   0.71956   0.00000  Uiso   1.00
O541   O     0.42392   0.25000   0.70097   0.00000  Uiso   1.00
O542   O     0.57608   0.25000   0.79904   0.00000  Uiso   1.00
Zn543  Zn    0.50000   0.25000   0.80307   0.00000  Uiso   1.00
Zn544  Zn    0.50000   0.24999   0.69693   0.00000  Uiso   1.00
O545   O     0.43905   0.02838   0.81779   0.00000  Uiso   1.00
C546   C     0.38510   0.02266   0.80111   0.00000  Uiso   1.00
H547   H     0.37881   0.49666   0.77283   0.00000  Uiso   1.00
H548   H     0.36581   0.05461   0.78797   0.00000  Uiso   1.00
H549   H     0.36573   0.01084   0.83128   0.00000  Uiso   1.00
O550   O     0.44270   0.47185   0.66396   0.00000  Uiso   1.00
C551   C     0.38862   0.47880   0.66406   0.00000  Uiso   1.00
H552   H     0.38209   0.00552   0.68973   0.00000  Uiso   1.00
H553   H     0.36811   0.44747   0.67191   0.00000  Uiso   1.00
H554   H     0.37073   0.49026   0.62793   0.00000  Uiso   1.00
C555   C     0.42114   0.19442   0.52013   0.00000  Uiso   1.00
H556   H     0.39125   0.17906   0.53806   0.00000  Uiso   1.00
O557   O     0.42065   0.18666   0.97773   0.00000  Uiso   1.00
C558   C     0.57938   0.19715   0.98246   0.00000  Uiso   1.00
H559   H     0.57983   0.19435   0.52075   0.00000  Uiso   1.00
O560   O     0.61304   0.17734   0.96462   0.00000  Uiso   1.00
C561   C     0.83265   0.16380   0.74995   0.00000  Uiso   1.00
C562   C     0.83259   0.33622   0.74985   0.00000  Uiso   1.00
C563   C     0.79508   0.22332   0.54778   0.00000  Uiso   1.00
C564   C     0.87207   0.22438   0.95260   0.00000  Uiso   1.00
C565   C     0.79666   0.22513   0.59797   0.00000  Uiso   1.00
C566   C     0.87050   0.22578   0.90231   0.00000  Uiso   1.00
C567   C     0.86941   0.27411   0.60644   0.00000  Uiso   1.00
C568   C     0.79679   0.27376   0.89329   0.00000  Uiso   1.00
C569   C     0.86961   0.27371   0.55677   0.00000  Uiso   1.00
C570   C     0.79647   0.27350   0.94295   0.00000  Uiso   1.00
C571   C     0.83249   0.24830   0.52649   0.00000  Uiso   1.00
C572   C     0.83399   0.24861   0.97343   0.00000  Uiso   1.00
C573   C     0.73363   0.25001   0.73750   0.00000  Uiso   1.00
C574   C     0.93303   0.25001   0.76250   0.00000  Uiso   1.00
C575   C     0.67862   0.25003   0.73074   0.00000  Uiso   1.00
C576   C     0.98805   0.25002   0.76926   0.00000  Uiso   1.00
C577   C     0.79531   0.04894   0.78232   0.00000  Uiso   1.00
C578   C     0.79697   0.45124   0.70637   0.00000  Uiso   1.00
C579   C     0.80260   0.09484   0.78389   0.00000  Uiso   1.00
C580   C     0.80425   0.40534   0.70698   0.00000  Uiso   1.00
C581   C     0.82749   0.11597   0.74928   0.00000  Uiso   1.00
C582   C     0.82734   0.38409   0.74906   0.00000  Uiso   1.00
C583   C     0.84561   0.09146   0.71313   0.00000  Uiso   1.00
C584   C     0.84356   0.40852   0.79070   0.00000  Uiso   1.00
C585   C     0.84020   0.04559   0.71230   0.00000  Uiso   1.00
C586   C     0.83811   0.45440   0.78996   0.00000  Uiso   1.00
C587   C     0.81544   0.02420   0.74687   0.00000  Uiso   1.00
C588   C     0.81526   0.47589   0.74793   0.00000  Uiso   1.00
H589   H     0.99126   0.25005   0.69423   0.00000  Uiso   1.00
H590   H     0.67541   0.25001   0.80577   0.00000  Uiso   1.00
H591   H     0.78807   0.11391   0.81170   0.00000  Uiso   1.00
H592   H     0.79117   0.38639   0.67475   0.00000  Uiso   1.00
H593   H     0.86504   0.10766   0.68631   0.00000  Uiso   1.00
H594   H     0.86158   0.39229   0.82337   0.00000  Uiso   1.00
H595   H     0.85665   0.02664   0.68551   0.00000  Uiso   1.00
H596   H     0.85317   0.47327   0.82175   0.00000  Uiso   1.00
H597   H     0.76866   0.20614   0.61478   0.00000  Uiso   1.00
H598   H     0.89892   0.20723   0.88567   0.00000  Uiso   1.00
H599   H     0.89828   0.29375   0.62924   0.00000  Uiso   1.00
H600   H     0.76759   0.29296   0.87028   0.00000  Uiso   1.00
H601   H     0.89876   0.29316   0.54195   0.00000  Uiso   1.00
H602   H     0.76686   0.29250   0.95758   0.00000  Uiso   1.00
N603   N     0.83333   0.24999   0.62624   0.00000  Uiso   1.00
N604   N     0.83333   0.25001   0.87377   0.00000  Uiso   1.00
O605   O     0.83334   0.18453   0.78974   0.00000  Uiso   1.00
O606   O     0.83333   0.31546   0.71026   0.00000  Uiso   1.00
O607   O     0.83334   0.18453   0.71026   0.00000  Uiso   1.00
O608   O     0.83333   0.31547   0.78974   0.00000  Uiso   1.00
O609   O     0.75725   0.25000   0.78045   0.00000  Uiso   1.00
O610   O     0.90942   0.25000   0.71956   0.00000  Uiso   1.00
O611   O     0.75725   0.25000   0.70097   0.00000  Uiso   1.00
O612   O     0.90942   0.25000   0.79904   0.00000  Uiso   1.00
Zn613  Zn    0.83333   0.25000   0.80307   0.00000  Uiso   1.00
Zn614  Zn    0.83333   0.24999   0.69693   0.00000  Uiso   1.00
O615   O     0.77238   0.02838   0.81779   0.00000  Uiso   1.00
C616   C     0.71843   0.02266   0.80111   0.00000  Uiso   1.00
H617   H     0.71214   0.49666   0.77283   0.00000  Uiso   1.00
H618   H     0.69914   0.05461   0.78797   0.00000  Uiso   1.00
H619   H     0.69906   0.01084   0.83128   0.00000  Uiso   1.00
O620   O     0.77603   0.47185   0.66396   0.00000  Uiso   1.00
C621   C     0.72195   0.47880   0.66406   0.00000  Uiso   1.00
H622   H     0.71542   0.00552   0.68973   0.00000  Uiso   1.00
H623   H     0.70144   0.44747   0.67191   0.00000  Uiso   1.00
H624   H     0.70406   0.49026   0.62793   0.00000  Uiso   1.00
C625   C     0.75448   0.19442   0.52013   0.00000  Uiso   1.00
H626   H     0.72459   0.17906   0.53806   0.00000  Uiso   1.00
O627   O     0.75398   0.18666   0.97773   0.00000  Uiso   1.00
C628   C     0.91271   0.19715   0.98246   0.00000  Uiso   1.00
H629   H     0.91317   0.19435   0.52075   0.00000  Uiso   1.00
O630   O     0.94637   0.17734   0.96462   0.00000  Uiso   1.00
C631   C     0.16598   0.66380   0.74995   0.00000  Uiso   1.00
C632   C     0.16592   0.83622   0.74985   0.00000  Uiso   1.00
C633   C     0.12841   0.72332   0.54778   0.00000  Uiso   1.00
C634   C     0.20540   0.72438   0.95260   0.00000  Uiso   1.00
C635   C     0.13000   0.72513   0.59797   0.00000  Uiso   1.00
C636   C     0.20383   0.72578   0.90231   0.00000  Uiso   1.00
C637   C     0.20274   0.77411   0.60644   0.00000  Uiso   1.00
C638   C     0.13012   0.77376   0.89329   0.00000  Uiso   1.00
C639   C     0.20294   0.77371   0.55677   0.00000  Uiso   1.00
C640   C     0.12981   0.77350   0.94295   0.00000  Uiso   1.00
C641   C     0.16582   0.74830   0.52649   0.00000  Uiso   1.00
C642   C     0.16732   0.74861   0.97343   0.00000  Uiso   1.00
C643   C     0.06697   0.75001   0.73750   0.00000  Uiso   1.00
C644   C     0.26637   0.75001   0.76250   0.00000  Uiso   1.00
C645   C     0.01195   0.75003   0.73074   0.00000  Uiso   1.00
C646   C     0.32139   0.75002   0.76926   0.00000  Uiso   1.00
C647   C     0.12864   0.54894   0.78232   0.00000  Uiso   1.00
C648   C     0.13030   0.95124   0.70637   0.00000  Uiso   1.00
C649   C     0.13593   0.59484   0.78389   0.00000  Uiso   1.00
C650   C     0.13758   0.90534   0.70698   0.00000  Uiso   1.00
C651   C     0.16083   0.61597   0.74928   0.00000  Uiso   1.00
C652   C     0.16067   0.88409   0.74906   0.00000  Uiso   1.00
C653   C     0.17895   0.59146   0.71313   0.00000  Uiso   1.00
C654   C     0.17690   0.90852   0.79070   0.00000  Uiso   1.00
C655   C     0.17353   0.54559   0.71230   0.00000  Uiso   1.00
C656   C     0.17144   0.95440   0.78996   0.00000  Uiso   1.00
C657   C     0.14877   0.52420   0.74687   0.00000  Uiso   1.00
C658   C     0.14859   0.97589   0.74793   0.00000  Uiso   1.00
H659   H     0.32460   0.75005   0.69423   0.00000  Uiso   1.00
H660   H     0.00874   0.75001   0.80577   0.00000  Uiso   1.00
H661   H     0.12141   0.61391   0.81170   0.00000  Uiso   1.00
H662   H     0.12450   0.88639   0.67475   0.00000  Uiso   1.00
H663   H     0.19837   0.60766   0.68631   0.00000  Uiso   1.00
H664   H     0.19491   0.89229   0.82337   0.00000  Uiso   1.00
H665   H     0.18998   0.52664   0.68551   0.00000  Uiso   1.00
H666   H     0.18650   0.97327   0.82175   0.00000  Uiso   1.00
H667   H     0.10200   0.70614   0.61478   0.00000  Uiso   1.00
H668   H     0.23225   0.70723   0.88567   0.00000  Uiso   1.00
H669   H     0.23161   0.79375   0.62924   0.00000  Uiso   1.00
H670   H     0.10092   0.79296   0.87028   0.00000  Uiso   1.00
H671   H     0.23209   0.79316   0.54195   0.00000  Uiso   1.00
H672   H     0.10019   0.79250   0.95758   0.00000  Uiso   1.00
N673   N     0.16667   0.74999   0.62624   0.00000  Uiso   1.00
N674   N     0.16667   0.75001   0.87377   0.00000  Uiso   1.00
O675   O     0.16667   0.68453   0.78974   0.00000  Uiso   1.00
O676   O     0.16666   0.81546   0.71026   0.00000  Uiso   1.00
O677   O     0.16667   0.68453   0.71026   0.00000  Uiso   1.00
O678   O     0.16666   0.81547   0.78974   0.00000  Uiso   1.00
O679   O     0.09058   0.75000   0.78045   0.00000  Uiso   1.00
O680   O     0.24275   0.75000   0.71956   0.00000  Uiso   1.00
O681   O     0.09058   0.75000   0.70097   0.00000  Uiso   1.00
O682   O     0.24275   0.75000   0.79904   0.00000  Uiso   1.00
Zn683  Zn    0.16667   0.75000   0.80307   0.00000  Uiso   1.00
Zn684  Zn    0.16667   0.74999   0.69693   0.00000  Uiso   1.00
O685   O     0.10572   0.52838   0.81779   0.00000  Uiso   1.00
C686   C     0.05176   0.52266   0.80111   0.00000  Uiso   1.00
H687   H     0.04547   0.99666   0.77283   0.00000  Uiso   1.00
H688   H     0.03247   0.55461   0.78797   0.00000  Uiso   1.00
H689   H     0.03240   0.51084   0.83128   0.00000  Uiso   1.00
O690   O     0.10936   0.97185   0.66396   0.00000  Uiso   1.00
C691   C     0.05529   0.97880   0.66406   0.00000  Uiso   1.00
H692   H     0.04876   0.50552   0.68973   0.00000  Uiso   1.00
H693   H     0.03478   0.94747   0.67191   0.00000  Uiso   1.00
H694   H     0.03740   0.99026   0.62793   0.00000  Uiso   1.00
C695   C     0.08781   0.69442   0.52013   0.00000  Uiso   1.00
H696   H     0.05792   0.67906   0.53806   0.00000  Uiso   1.00
O697   O     0.08731   0.68666   0.97773   0.00000  Uiso   1.00
C698   C     0.24604   0.69715   0.98246   0.00000  Uiso   1.00
H699   H     0.24650   0.69435   0.52075   0.00000  Uiso   1.00
O700   O     0.27970   0.67734   0.96462   0.00000  Uiso   1.00
C701   C     0.49931   0.66380   0.74995   0.00000  Uiso   1.00
C702   C     0.49925   0.83622   0.74985   0.00000  Uiso   1.00
C703   C     0.46174   0.72332   0.54778   0.00000  Uiso   1.00
C704   C     0.53874   0.72438   0.95260   0.00000  Uiso   1.00
C705   C     0.46333   0.72513   0.59797   0.00000  Uiso   1.00
C706   C     0.53717   0.72578   0.90231   0.00000  Uiso   1.00
C707   C     0.53607   0.77411   0.60644   0.00000  Uiso   1.00
C708   C     0.46345   0.77376   0.89329   0.00000  Uiso   1.00
C709   C     0.53627   0.77371   0.55677   0.00000  Uiso   1.00
C710   C     0.46314   0.77350   0.94295   0.00000  Uiso   1.00
C711   C     0.49916   0.74830   0.52649   0.00000  Uiso   1.00
C712   C     0.50066   0.74861   0.97343   0.00000  Uiso   1.00
C713   C     0.40030   0.75001   0.73750   0.00000  Uiso   1.00
C714   C     0.59970   0.75001   0.76250   0.00000  Uiso   1.00
C715   C     0.34528   0.75003   0.73074   0.00000  Uiso   1.00
C716   C     0.65472   0.75002   0.76926   0.00000  Uiso   1.00
C717   C     0.46198   0.54894   0.78232   0.00000  Uiso   1.00
C718   C     0.46364   0.95124   0.70637   0.00000  Uiso   1.00
C719   C     0.46927   0.59484   0.78389   0.00000  Uiso   1.00
C720   C     0.47092   0.90534   0.70698   0.00000  Uiso   1.00
C721   C     0.49416   0.61597   0.74928   0.00000  Uiso   1.00
C722   C     0.49401   0.88409   0.74906   0.00000  Uiso   1.00
C723   C     0.51228   0.59146   0.71313   0.00000  Uiso   1.00
C724   C     0.51023   0.90852   0.79070   0.00000  Uiso   1.00
C725   C     0.50686   0.54559   0.71230   0.00000  Uiso   1.00
C726   C     0.50477   0.95440   0.78996   0.00000  Uiso   1.00
C727   C     0.48210   0.52420   0.74687   0.00000  Uiso   1.00
C728   C     0.48192   0.97589   0.74793   0.00000  Uiso   1.00
H729   H     0.65793   0.75005   0.69423   0.00000  Uiso   1.00
H730   H     0.34207   0.75001   0.80577   0.00000  Uiso   1.00
H731   H     0.45474   0.61391   0.81170   0.00000  Uiso   1.00
H732   H     0.45784   0.88639   0.67475   0.00000  Uiso   1.00
H733   H     0.53170   0.60766   0.68631   0.00000  Uiso   1.00
H734   H     0.52825   0.89229   0.82337   0.00000  Uiso   1.00
H735   H     0.52332   0.52664   0.68551   0.00000  Uiso   1.00
H736   H     0.51983   0.97327   0.82175   0.00000  Uiso   1.00
H737   H     0.43533   0.70614   0.61478   0.00000  Uiso   1.00
H738   H     0.56558   0.70723   0.88567   0.00000  Uiso   1.00
H739   H     0.56495   0.79375   0.62924   0.00000  Uiso   1.00
H740   H     0.43425   0.79296   0.87028   0.00000  Uiso   1.00
H741   H     0.56543   0.79316   0.54195   0.00000  Uiso   1.00
H742   H     0.43352   0.79250   0.95758   0.00000  Uiso   1.00
N743   N     0.50000   0.74999   0.62624   0.00000  Uiso   1.00
N744   N     0.50000   0.75001   0.87377   0.00000  Uiso   1.00
O745   O     0.50000   0.68453   0.78974   0.00000  Uiso   1.00
O746   O     0.50000   0.81546   0.71026   0.00000  Uiso   1.00
O747   O     0.50000   0.68453   0.71026   0.00000  Uiso   1.00
O748   O     0.50000   0.81547   0.78974   0.00000  Uiso   1.00
O749   O     0.42392   0.75000   0.78045   0.00000  Uiso   1.00
O750   O     0.57608   0.75000   0.71956   0.00000  Uiso   1.00
O751   O     0.42392   0.75000   0.70097   0.00000  Uiso   1.00
O752   O     0.57608   0.75000   0.79904   0.00000  Uiso   1.00
Zn753  Zn    0.50000   0.75000   0.80307   0.00000  Uiso   1.00
Zn754  Zn    0.50000   0.74999   0.69693   0.00000  Uiso   1.00
O755   O     0.43905   0.52838   0.81779   0.00000  Uiso   1.00
C756   C     0.38510   0.52266   0.80111   0.00000  Uiso   1.00
H757   H     0.37881   0.99666   0.77283   0.00000  Uiso   1.00
H758   H     0.36581   0.55461   0.78797   0.00000  Uiso   1.00
H759   H     0.36573   0.51084   0.83128   0.00000  Uiso   1.00
O760   O     0.44270   0.97185   0.66396   0.00000  Uiso   1.00
C761   C     0.38862   0.97880   0.66406   0.00000  Uiso   1.00
H762   H     0.38209   0.50552   0.68973   0.00000  Uiso   1.00
H763   H     0.36811   0.94747   0.67191   0.00000  Uiso   1.00
H764   H     0.37073   0.99026   0.62793   0.00000  Uiso   1.00
C765   C     0.42114   0.69442   0.52013   0.00000  Uiso   1.00
H766   H     0.39125   0.67906   0.53806   0.00000  Uiso   1.00
O767   O     0.42065   0.68666   0.97773   0.00000  Uiso   1.00
C768   C     0.57938   0.69715   0.98246   0.00000  Uiso   1.00
H769   H     0.57983   0.69435   0.52075   0.00000  Uiso   1.00
O770   O     0.61304   0.67734   0.96462   0.00000  Uiso   1.00
C771   C     0.83265   0.66380   0.74995   0.00000  Uiso   1.00
C772   C     0.83259   0.83622   0.74985   0.00000  Uiso   1.00
C773   C     0.79508   0.72332   0.54778   0.00000  Uiso   1.00
C774   C     0.87207   0.72438   0.95260   0.00000  Uiso   1.00
C775   C     0.79666   0.72513   0.59797   0.00000  Uiso   1.00
C776   C     0.87050   0.72578   0.90231   0.00000  Uiso   1.00
C777   C     0.86941   0.77411   0.60644   0.00000  Uiso   1.00
C778   C     0.79679   0.77376   0.89329   0.00000  Uiso   1.00
C779   C     0.86961   0.77371   0.55677   0.00000  Uiso   1.00
C780   C     0.79647   0.77350   0.94295   0.00000  Uiso   1.00
C781   C     0.83249   0.74830   0.52649   0.00000  Uiso   1.00
C782   C     0.83399   0.74861   0.97343   0.00000  Uiso   1.00
C783   C     0.73363   0.75001   0.73750   0.00000  Uiso   1.00
C784   C     0.93303   0.75001   0.76250   0.00000  Uiso   1.00
C785   C     0.67862   0.75003   0.73074   0.00000  Uiso   1.00
C786   C     0.98805   0.75002   0.76926   0.00000  Uiso   1.00
C787   C     0.79531   0.54894   0.78232   0.00000  Uiso   1.00
C788   C     0.79697   0.95124   0.70637   0.00000  Uiso   1.00
C789   C     0.80260   0.59484   0.78389   0.00000  Uiso   1.00
C790   C     0.80425   0.90534   0.70698   0.00000  Uiso   1.00
C791   C     0.82749   0.61597   0.74928   0.00000  Uiso   1.00
C792   C     0.82734   0.88409   0.74906   0.00000  Uiso   1.00
C793   C     0.84561   0.59146   0.71313   0.00000  Uiso   1.00
C794   C     0.84356   0.90852   0.79070   0.00000  Uiso   1.00
C795   C     0.84020   0.54559   0.71230   0.00000  Uiso   1.00
C796   C     0.83811   0.95440   0.78996   0.00000  Uiso   1.00
C797   C     0.81544   0.52420   0.74687   0.00000  Uiso   1.00
C798   C     0.81526   0.97589   0.74793   0.00000  Uiso   1.00
H799   H     0.99126   0.75005   0.69423   0.00000  Uiso   1.00
H800   H     0.67541   0.75001   0.80577   0.00000  Uiso   1.00
H801   H     0.78807   0.61391   0.81170   0.00000  Uiso   1.00
H802   H     0.79117   0.88639   0.67475   0.00000  Uiso   1.00
H803   H     0.86504   0.60766   0.68631   0.00000  Uiso   1.00
H804   H     0.86158   0.89229   0.82337   0.00000  Uiso   1.00
H805   H     0.85665   0.52664   0.68551   0.00000  Uiso   1.00
H806   H     0.85317   0.97327   0.82175   0.00000  Uiso   1.00
H807   H     0.76866   0.70614   0.61478   0.00000  Uiso   1.00
H808   H     0.89892   0.70723   0.88567   0.00000  Uiso   1.00
H809   H     0.89828   0.79375   0.62924   0.00000  Uiso   1.00
H810   H     0.76759   0.79296   0.87028   0.00000  Uiso   1.00
H811   H     0.89876   0.79316   0.54195   0.00000  Uiso   1.00
H812   H     0.76686   0.79250   0.95758   0.00000  Uiso   1.00
N813   N     0.83333   0.74999   0.62624   0.00000  Uiso   1.00
N814   N     0.83333   0.75001   0.87377   0.00000  Uiso   1.00
O815   O     0.83334   0.68453   0.78974   0.00000  Uiso   1.00
O816   O     0.83333   0.81546   0.71026   0.00000  Uiso   1.00
O817   O     0.83334   0.68453   0.71026   0.00000  Uiso   1.00
O818   O     0.83333   0.81547   0.78974   0.00000  Uiso   1.00
O819   O     0.75725   0.75000   0.78045   0.00000  Uiso   1.00
O820   O     0.90942   0.75000   0.71956   0.00000  Uiso   1.00
O821   O     0.75725   0.75000   0.70097   0.00000  Uiso   1.00
O822   O     0.90942   0.75000   0.79904   0.00000  Uiso   1.00
Zn823  Zn    0.83333   0.75000   0.80307   0.00000  Uiso   1.00
Zn824  Zn    0.83333   0.74999   0.69693   0.00000  Uiso   1.00
O825   O     0.77238   0.52838   0.81779   0.00000  Uiso   1.00
C826   C     0.71843   0.52266   0.80111   0.00000  Uiso   1.00
H827   H     0.71214   0.99666   0.77283   0.00000  Uiso   1.00
H828   H     0.69914   0.55461   0.78797   0.00000  Uiso   1.00
H829   H     0.69906   0.51084   0.83128   0.00000  Uiso   1.00
O830   O     0.77603   0.97185   0.66396   0.00000  Uiso   1.00
C831   C     0.72195   0.97880   0.66406   0.00000  Uiso   1.00
H832   H     0.71542   0.50552   0.68973   0.00000  Uiso   1.00
H833   H     0.70144   0.94747   0.67191   0.00000  Uiso   1.00
H834   H     0.70406   0.99026   0.62793   0.00000  Uiso   1.00
C835   C     0.75448   0.69442   0.52013   0.00000  Uiso   1.00
H836   H     0.72459   0.67906   0.53806   0.00000  Uiso   1.00
O837   O     0.75398   0.68666   0.97773   0.00000  Uiso   1.00
C838   C     0.91271   0.69715   0.98246   0.00000  Uiso   1.00
H839   H     0.91317   0.69435   0.52075   0.00000  Uiso   1.00
O840   O     0.94637   0.67734   0.96462   0.00000  Uiso   1.00
loop_
_geom_bond_atom_site_label_1
_geom_bond_atom_site_label_2
_geom_bond_distance
_geom_bond_site_symmetry_2
_ccdc_geom_bond_type
C1     C21     1.437   .     S
C1     O45     1.284   .     A
C1     O47     1.284   .     A
C2     C22     1.438   .     S
C2     O46     1.284   .     A
C2     O48     1.284   .     A
C3     C5      1.415   .     A
C3     C65     1.486   .     S
C3     C11     1.423   .     A
C4     C12     1.418   .     A
C4     C6      1.417   .     A
C4     C68     1.485   .     S
C5     H37     1.083   .     S
C5     N43     1.363   .     A
C6     H38     1.082   .     S
C6     N44     1.363   .     A
C7     C9      1.406   .     A
C7     H39     1.082   .     S
C7     N43     1.362   .     A
C8     N44     1.362   .     A
C8     C10     1.406   .     A
C8     H40     1.082   .     S
C9     C11     1.407   .     A
C9     H41     1.083   .     S
C10    H42     1.083   .     S
C10    C12     1.406   .     A
C11    C432    1.507   1_554 S
C12    C431    1.507   .     S
C13    O49     1.273   .     A
C13    C15     1.401   .     S
C13    O51     1.276   .     A
C14    C16     1.401   .     S
C14    O50     1.273   .     A
C14    O52     1.276   .     A
C15    C156    1.330   1_455 S
C15    H169    1.088   1_455 S
C16    C85     1.330   .     S
C16    H100    1.088   .     S
C17    O55     1.383   .     S
C17    C27     1.408   .     A
C17    C19     1.386   .     A
C18    O60     1.383   .     S
C18    C20     1.386   .     A
C18    C28     1.408   .     A
C19    H31     1.084   .     S
C19    C21     1.399   .     A
C20    H32     1.084   .     S
C20    C22     1.399   .     A
C21    C23     1.396   .     A
C22    C24     1.396   .     A
C23    C25     1.379   .     A
C23    H33     1.084   .     S
C24    C26     1.379   .     A
C24    H34     1.084   .     S
C25    H35     1.084   .     S
C25    C27     1.400   .     A
C26    C28     1.400   .     A
C26    H36     1.084   .     S
C27    C238    1.446   1_545 S
C28    C237    1.446   .     S
H29    C85     1.088   .     S
H30    C156    1.088   1_455 S
N43    Zn54    2.000   .     S
N44    Zn53    2.000   .     S
O45    Zn53    1.995   .     S
O46    Zn54    1.995   .     S
O47    Zn54    1.994   .     S
O48    Zn53    1.994   .     S
O49    Zn53    1.968   .     S
O50    Zn54    1.968   .     S
O51    Zn54    1.981   .     S
O52    Zn53    1.981   .     S
O55    C56     1.409   .     S
C56    H59     1.109   .     S
C56    H58     1.114   .     S
C56    H267    1.111   1_545 S
H57    C266    1.111   .     S
O60    C61     1.409   .     S
C61    H64     1.109   .     S
C61    H63     1.114   .     S
C61    H272    1.111   .     S
H62    C271    1.111   1_545 S
C65    H66     1.086   .     S
C65    O487    1.220   1_554 S
O67    C485    1.220   .     S
C68    O70     1.221   .     D
C68    H489    1.084   .     S
H69    C488    1.084   1_554 S
C71    C91     1.437   .     S
C71    O115    1.284   .     A
C71    O117    1.284   .     A
C72    C92     1.438   .     S
C72    O116    1.284   .     A
C72    O118    1.284   .     A
C73    C75     1.415   .     A
C73    C135    1.486   .     S
C73    C81     1.423   .     A
C74    C82     1.418   .     A
C74    C76     1.417   .     A
C74    C138    1.485   .     S
C75    H107    1.083   .     S
C75    N113    1.363   .     A
C76    H108    1.082   .     S
C76    N114    1.363   .     A
C77    C79     1.406   .     A
C77    H109    1.082   .     S
C77    N113    1.362   .     A
C78    N114    1.362   .     A
C78    C80     1.406   .     A
C78    H110    1.082   .     S
C79    C81     1.407   .     A
C79    H111    1.083   .     S
C80    H112    1.083   .     S
C80    C82     1.406   .     A
C81    C502    1.507   1_554 S
C82    C501    1.507   .     S
C83    O119    1.273   .     A
C83    C85     1.401   .     S
C83    O121    1.276   .     A
C84    C86     1.401   .     S
C84    O120    1.273   .     A
C84    O122    1.276   .     A
C86    C155    1.330   .     S
C86    H170    1.088   .     S
C87    O125    1.383   .     S
C87    C97     1.408   .     A
C87    C89     1.386   .     A
C88    O130    1.383   .     S
C88    C90     1.386   .     A
C88    C98     1.408   .     A
C89    H101    1.084   .     S
C89    C91     1.399   .     A
C90    H102    1.084   .     S
C90    C92     1.399   .     A
C91    C93     1.396   .     A
C92    C94     1.396   .     A
C93    C95     1.379   .     A
C93    H103    1.084   .     S
C94    C96     1.379   .     A
C94    H104    1.084   .     S
C95    H105    1.084   .     S
C95    C97     1.400   .     A
C96    C98     1.400   .     A
C96    H106    1.084   .     S
C97    C308    1.446   1_545 S
C98    C307    1.446   .     S
H99    C155    1.088   .     S
N113   Zn124   2.000   .     S
N114   Zn123   2.000   .     S
O115   Zn123   1.995   .     S
O116   Zn124   1.995   .     S
O117   Zn124   1.994   .     S
O118   Zn123   1.994   .     S
O119   Zn123   1.968   .     S
O120   Zn124   1.968   .     S
O121   Zn124   1.981   .     S
O122   Zn123   1.981   .     S
O125   C126    1.409   .     S
C126   H129    1.109   .     S
C126   H128    1.114   .     S
C126   H337    1.111   1_545 S
H127   C336    1.111   .     S
O130   C131    1.409   .     S
C131   H134    1.109   .     S
C131   H133    1.114   .     S
C131   H342    1.111   .     S
H132   C341    1.111   1_545 S
C135   H136    1.086   .     S
C135   O557    1.220   1_554 S
O137   C555    1.220   .     S
C138   O140    1.221   .     D
C138   H559    1.084   .     S
H139   C558    1.084   1_554 S
C141   C161    1.437   .     S
C141   O185    1.284   .     A
C141   O187    1.284   .     A
C142   C162    1.438   .     S
C142   O186    1.284   .     A
C142   O188    1.284   .     A
C143   C145    1.415   .     A
C143   C205    1.486   .     S
C143   C151    1.423   .     A
C144   C152    1.418   .     A
C144   C146    1.417   .     A
C144   C208    1.485   .     S
C145   H177    1.083   .     S
C145   N183    1.363   .     A
C146   H178    1.082   .     S
C146   N184    1.363   .     A
C147   C149    1.406   .     A
C147   H179    1.082   .     S
C147   N183    1.362   .     A
C148   N184    1.362   .     A
C148   C150    1.406   .     A
C148   H180    1.082   .     S
C149   C151    1.407   .     A
C149   H181    1.083   .     S
C150   H182    1.083   .     S
C150   C152    1.406   .     A
C151   C572    1.507   1_554 S
C152   C571    1.507   .     S
C153   O189    1.273   .     A
C153   C155    1.401   .     S
C153   O191    1.276   .     A
C154   C156    1.401   .     S
C154   O190    1.273   .     A
C154   O192    1.276   .     A
C156   C15     1.330   1_655 S
C156   H30     1.088   1_655 S
C157   O195    1.383   .     S
C157   C167    1.408   .     A
C157   C159    1.386   .     A
C158   O200    1.383   .     S
C158   C160    1.386   .     A
C158   C168    1.408   .     A
C159   H171    1.084   .     S
C159   C161    1.399   .     A
C160   H172    1.084   .     S
C160   C162    1.399   .     A
C161   C163    1.396   .     A
C162   C164    1.396   .     A
C163   C165    1.379   .     A
C163   H173    1.084   .     S
C164   C166    1.379   .     A
C164   H174    1.084   .     S
C165   H175    1.084   .     S
C165   C167    1.400   .     A
C166   C168    1.400   .     A
C166   H176    1.084   .     S
C167   C378    1.446   1_545 S
C168   C377    1.446   .     S
H169   C15     1.088   1_655 S
N183   Zn194   2.000   .     S
N184   Zn193   2.000   .     S
O185   Zn193   1.995   .     S
O186   Zn194   1.995   .     S
O187   Zn194   1.994   .     S
O188   Zn193   1.994   .     S
O189   Zn193   1.968   .     S
O190   Zn194   1.968   .     S
O191   Zn194   1.981   .     S
O192   Zn193   1.981   .     S
O195   C196    1.409   .     S
C196   H199    1.109   .     S
C196   H198    1.114   .     S
C196   H407    1.111   1_545 S
H197   C406    1.111   .     S
O200   C201    1.409   .     S
C201   H204    1.109   .     S
C201   H203    1.114   .     S
C201   H412    1.111   .     S
H202   C411    1.111   1_545 S
C205   H206    1.086   .     S
C205   O627    1.220   1_554 S
O207   C625    1.220   .     S
C208   O210    1.221   .     D
C208   H629    1.084   .     S
H209   C628    1.084   1_554 S
C211   C231    1.437   .     S
C211   O255    1.284   .     A
C211   O257    1.284   .     A
C212   C232    1.438   .     S
C212   O256    1.284   .     A
C212   O258    1.284   .     A
C213   C215    1.415   .     A
C213   C275    1.486   .     S
C213   C221    1.423   .     A
C214   C222    1.418   .     A
C214   C216    1.417   .     A
C214   C278    1.485   .     S
C215   H247    1.083   .     S
C215   N253    1.363   .     A
C216   H248    1.082   .     S
C216   N254    1.363   .     A
C217   C219    1.406   .     A
C217   H249    1.082   .     S
C217   N253    1.362   .     A
C218   N254    1.362   .     A
C218   C220    1.406   .     A
C218   H250    1.082   .     S
C219   C221    1.407   .     A
C219   H251    1.083   .     S
C220   H252    1.083   .     S
C220   C222    1.406   .     A
C221   C642    1.507   1_554 S
C222   C641    1.507   .     S
C223   O259    1.273   .     A
C223   C225    1.401   .     S
C223   O261    1.276   .     A
C224   C226    1.401   .     S
C224   O260    1.273   .     A
C224   O262    1.276   .     A
C225   C366    1.330   1_455 S
C225   H379    1.088   1_455 S
C226   C295    1.330   .     S
C226   H310    1.088   .     S
C227   O265    1.383   .     S
C227   C237    1.408   .     A
C227   C229    1.386   .     A
C228   O270    1.383   .     S
C228   C230    1.386   .     A
C228   C238    1.408   .     A
C229   H241    1.084   .     S
C229   C231    1.399   .     A
C230   H242    1.084   .     S
C230   C232    1.399   .     A
C231   C233    1.396   .     A
C232   C234    1.396   .     A
C233   C235    1.379   .     A
C233   H243    1.084   .     S
C234   C236    1.379   .     A
C234   H244    1.084   .     S
C235   H245    1.084   .     S
C235   C237    1.400   .     A
C236   C238    1.400   .     A
C236   H246    1.084   .     S
C238   C27     1.446   1_565 S
H239   C295    1.088   .     S
H240   C366    1.088   1_455 S
N253   Zn264   2.000   .     S
N254   Zn263   2.000   .     S
O255   Zn263   1.995   .     S
O256   Zn264   1.995   .     S
O257   Zn264   1.994   .     S
O258   Zn263   1.994   .     S
O259   Zn263   1.968   .     S
O260   Zn264   1.968   .     S
O261   Zn264   1.981   .     S
O262   Zn263   1.981   .     S
O265   C266    1.409   .     S
C266   H269    1.109   .     S
C266   H268    1.114   .     S
H267   C56     1.111   1_565 S
O270   C271    1.409   .     S
C271   H274    1.109   .     S
C271   H273    1.114   .     S
C271   H62     1.111   1_565 S
C275   H276    1.086   .     S
C275   O697    1.220   1_554 S
O277   C695    1.220   .     S
C278   O280    1.221   .     D
C278   H699    1.084   .     S
H279   C698    1.084   1_554 S
C281   C301    1.437   .     S
C281   O325    1.284   .     A
C281   O327    1.284   .     A
C282   C302    1.438   .     S
C282   O326    1.284   .     A
C282   O328    1.284   .     A
C283   C285    1.415   .     A
C283   C345    1.486   .     S
C283   C291    1.423   .     A
C284   C292    1.418   .     A
C284   C286    1.417   .     A
C284   C348    1.485   .     S
C285   H317    1.083   .     S
C285   N323    1.363   .     A
C286   H318    1.082   .     S
C286   N324    1.363   .     A
C287   C289    1.406   .     A
C287   H319    1.082   .     S
C287   N323    1.362   .     A
C288   N324    1.362   .     A
C288   C290    1.406   .     A
C288   H320    1.082   .     S
C289   C291    1.407   .     A
C289   H321    1.083   .     S
C290   H322    1.083   .     S
C290   C292    1.406   .     A
C291   C712    1.507   1_554 S
C292   C711    1.507   .     S
C293   O329    1.273   .     A
C293   C295    1.401   .     S
C293   O331    1.276   .     A
C294   C296    1.401   .     S
C294   O330    1.273   .     A
C294   O332    1.276   .     A
C296   C365    1.330   .     S
C296   H380    1.088   .     S
C297   O335    1.383   .     S
C297   C307    1.408   .     A
C297   C299    1.386   .     A
C298   O340    1.383   .     S
C298   C300    1.386   .     A
C298   C308    1.408   .     A
C299   H311    1.084   .     S
C299   C301    1.399   .     A
C300   H312    1.084   .     S
C300   C302    1.399   .     A
C301   C303    1.396   .     A
C302   C304    1.396   .     A
C303   C305    1.379   .     A
C303   H313    1.084   .     S
C304   C306    1.379   .     A
C304   H314    1.084   .     S
C305   H315    1.084   .     S
C305   C307    1.400   .     A
C306   C308    1.400   .     A
C306   H316    1.084   .     S
C308   C97     1.446   1_565 S
H309   C365    1.088   .     S
N323   Zn334   2.000   .     S
N324   Zn333   2.000   .     S
O325   Zn333   1.995   .     S
O326   Zn334   1.995   .     S
O327   Zn334   1.994   .     S
O328   Zn333   1.994   .     S
O329   Zn333   1.968   .     S
O330   Zn334   1.968   .     S
O331   Zn334   1.981   .     S
O332   Zn333   1.981   .     S
O335   C336    1.409   .     S
C336   H339    1.109   .     S
C336   H338    1.114   .     S
H337   C126    1.111   1_565 S
O340   C341    1.409   .     S
C341   H344    1.109   .     S
C341   H343    1.114   .     S
C341   H132    1.111   1_565 S
C345   H346    1.086   .     S
C345   O767    1.220   1_554 S
O347   C765    1.220   .     S
C348   O350    1.221   .     D
C348   H769    1.084   .     S
H349   C768    1.084   1_554 S
C351   C371    1.437   .     S
C351   O395    1.284   .     A
C351   O397    1.284   .     A
C352   C372    1.438   .     S
C352   O396    1.284   .     A
C352   O398    1.284   .     A
C353   C355    1.415   .     A
C353   C415    1.486   .     S
C353   C361    1.423   .     A
C354   C362    1.418   .     A
C354   C356    1.417   .     A
C354   C418    1.485   .     S
C355   H387    1.083   .     S
C355   N393    1.363   .     A
C356   H388    1.082   .     S
C356   N394    1.363   .     A
C357   C359    1.406   .     A
C357   H389    1.082   .     S
C357   N393    1.362   .     A
C358   N394    1.362   .     A
C358   C360    1.406   .     A
C358   H390    1.082   .     S
C359   C361    1.407   .     A
C359   H391    1.083   .     S
C360   H392    1.083   .     S
C360   C362    1.406   .     A
C361   C782    1.507   1_554 S
C362   C781    1.507   .     S
C363   O399    1.273   .     A
C363   C365    1.401   .     S
C363   O401    1.276   .     A
C364   C366    1.401   .     S
C364   O400    1.273   .     A
C364   O402    1.276   .     A
C366   C225    1.330   1_655 S
C366   H240    1.088   1_655 S
C367   O405    1.383   .     S
C367   C377    1.408   .     A
C367   C369    1.386   .     A
C368   O410    1.383   .     S
C368   C370    1.386   .     A
C368   C378    1.408   .     A
C369   H381    1.084   .     S
C369   C371    1.399   .     A
C370   H382    1.084   .     S
C370   C372    1.399   .     A
C371   C373    1.396   .     A
C372   C374    1.396   .     A
C373   C375    1.379   .     A
C373   H383    1.084   .     S
C374   C376    1.379   .     A
C374   H384    1.084   .     S
C375   H385    1.084   .     S
C375   C377    1.400   .     A
C376   C378    1.400   .     A
C376   H386    1.084   .     S
C378   C167    1.446   1_565 S
H379   C225    1.088   1_655 S
N393   Zn404   2.000   .     S
N394   Zn403   2.000   .     S
O395   Zn403   1.995   .     S
O396   Zn404   1.995   .     S
O397   Zn404   1.994   .     S
O398   Zn403   1.994   .     S
O399   Zn403   1.968   .     S
O400   Zn404   1.968   .     S
O401   Zn404   1.981   .     S
O402   Zn403   1.981   .     S
O405   C406    1.409   .     S
C406   H409    1.109   .     S
C406   H408    1.114   .     S
H407   C196    1.111   1_565 S
O410   C411    1.409   .     S
C411   H414    1.109   .     S
C411   H413    1.114   .     S
C411   H202    1.111   1_565 S
C415   H416    1.086   .     S
C415   O837    1.220   1_554 S
O417   C835    1.220   .     S
C418   O420    1.221   .     D
C418   H839    1.084   .     S
H419   C838    1.084   1_554 S
C421   C441    1.437   .     S
C421   O465    1.284   .     A
C421   O467    1.284   .     A
C422   C442    1.438   .     S
C422   O466    1.284   .     A
C422   O468    1.284   .     A
C423   C425    1.415   .     A
C423   C485    1.486   .     S
C423   C431    1.423   .     A
C424   C432    1.418   .     A
C424   C426    1.417   .     A
C424   C488    1.485   .     S
C425   H457    1.083   .     S
C425   N463    1.363   .     A
C426   H458    1.082   .     S
C426   N464    1.363   .     A
C427   C429    1.406   .     A
C427   H459    1.082   .     S
C427   N463    1.362   .     A
C428   N464    1.362   .     A
C428   C430    1.406   .     A
C428   H460    1.082   .     S
C429   C431    1.407   .     A
C429   H461    1.083   .     S
C430   H462    1.083   .     S
C430   C432    1.406   .     A
C432   C11     1.507   1_556 S
C433   O469    1.273   .     A
C433   C435    1.401   .     S
C433   O471    1.276   .     A
C434   C436    1.401   .     S
C434   O470    1.273   .     A
C434   O472    1.276   .     A
C435   C576    1.330   1_455 S
C435   H589    1.088   1_455 S
C436   C505    1.330   .     S
C436   H520    1.088   .     S
C437   O475    1.383   .     S
C437   C447    1.408   .     A
C437   C439    1.386   .     A
C438   O480    1.383   .     S
C438   C440    1.386   .     A
C438   C448    1.408   .     A
C439   H451    1.084   .     S
C439   C441    1.399   .     A
C440   H452    1.084   .     S
C440   C442    1.399   .     A
C441   C443    1.396   .     A
C442   C444    1.396   .     A
C443   C445    1.379   .     A
C443   H453    1.084   .     S
C444   C446    1.379   .     A
C444   H454    1.084   .     S
C445   H455    1.084   .     S
C445   C447    1.400   .     A
C446   C448    1.400   .     A
C446   H456    1.084   .     S
C447   C658    1.446   1_545 S
C448   C657    1.446   .     S
H449   C505    1.088   .     S
H450   C576    1.088   1_455 S
N463   Zn474   2.000   .     S
N464   Zn473   2.000   .     S
O465   Zn473   1.995   .     S
O466   Zn474   1.995   .     S
O467   Zn474   1.994   .     S
O468   Zn473   1.994   .     S
O469   Zn473   1.968   .     S
O470   Zn474   1.968   .     S
O471   Zn474   1.981   .     S
O472   Zn473   1.981   .     S
O475   C476    1.409   .     S
C476   H479    1.109   .     S
C476   H478    1.114   .     S
C476   H687    1.111   1_545 S
H477   C686    1.111   .     S
O480   C481    1.409   .     S
C481   H484    1.109   .     S
C481   H483    1.114   .     S
C481   H692    1.111   .     S
H482   C691    1.111   1_545 S
C485   H486    1.086   .     S
O487   C65     1.220   1_556 S
C488   O490    1.221   .     D
C488   H69     1.084   1_556 S
C491   C511    1.437   .     S
C491   O535    1.284   .     A
C491   O537    1.284   .     A
C492   C512    1.438   .     S
C492   O536    1.284   .     A
C492   O538    1.284   .     A
C493   C495    1.415   .     A
C493   C555    1.486   .     S
C493   C501    1.423   .     A
C494   C502    1.418   .     A
C494   C496    1.417   .     A
C494   C558    1.485   .     S
C495   H527    1.083   .     S
C495   N533    1.363   .     A
C496   H528    1.082   .     S
C496   N534    1.363   .     A
C497   C499    1.406   .     A
C497   H529    1.082   .     S
C497   N533    1.362   .     A
C498   N534    1.362   .     A
C498   C500    1.406   .     A
C498   H530    1.082   .     S
C499   C501    1.407   .     A
C499   H531    1.083   .     S
C500   H532    1.083   .     S
C500   C502    1.406   .     A
C502   C81     1.507   1_556 S
C503   O539    1.273   .     A
C503   C505    1.401   .     S
C503   O541    1.276   .     A
C504   C506    1.401   .     S
C504   O540    1.273   .     A
C504   O542    1.276   .     A
C506   C575    1.330   .     S
C506   H590    1.088   .     S
C507   O545    1.383   .     S
C507   C517    1.408   .     A
C507   C509    1.386   .     A
C508   O550    1.383   .     S
C508   C510    1.386   .     A
C508   C518    1.408   .     A
C509   H521    1.084   .     S
C509   C511    1.399   .     A
C510   H522    1.084   .     S
C510   C512    1.399   .     A
C511   C513    1.396   .     A
C512   C514    1.396   .     A
C513   C515    1.379   .     A
C513   H523    1.084   .     S
C514   C516    1.379   .     A
C514   H524    1.084   .     S
C515   H525    1.084   .     S
C515   C517    1.400   .     A
C516   C518    1.400   .     A
C516   H526    1.084   .     S
C517   C728    1.446   1_545 S
C518   C727    1.446   .     S
H519   C575    1.088   .     S
N533   Zn544   2.000   .     S
N534   Zn543   2.000   .     S
O535   Zn543   1.995   .     S
O536   Zn544   1.995   .     S
O537   Zn544   1.994   .     S
O538   Zn543   1.994   .     S
O539   Zn543   1.968   .     S
O540   Zn544   1.968   .     S
O541   Zn544   1.981   .     S
O542   Zn543   1.981   .     S
O545   C546    1.409   .     S
C546   H549    1.109   .     S
C546   H548    1.114   .     S
C546   H757    1.111   1_545 S
H547   C756    1.111   .     S
O550   C551    1.409   .     S
C551   H554    1.109   .     S
C551   H553    1.114   .     S
C551   H762    1.111   .     S
H552   C761    1.111   1_545 S
C555   H556    1.086   .     S
O557   C135    1.220   1_556 S
C558   O560    1.221   .     D
C558   H139    1.084   1_556 S
C561   C581    1.437   .     S
C561   O605    1.284   .     A
C561   O607    1.284   .     A
C562   C582    1.438   .     S
C562   O606    1.284   .     A
C562   O608    1.284   .     A
C563   C565    1.415   .     A
C563   C625    1.486   .     S
C563   C571    1.423   .     A
C564   C572    1.418   .     A
C564   C566    1.417   .     A
C564   C628    1.485   .     S
C565   H597    1.083   .     S
C565   N603    1.363   .     A
C566   H598    1.082   .     S
C566   N604    1.363   .     A
C567   C569    1.406   .     A
C567   H599    1.082   .     S
C567   N603    1.362   .     A
C568   N604    1.362   .     A
C568   C570    1.406   .     A
C568   H600    1.082   .     S
C569   C571    1.407   .     A
C569   H601    1.083   .     S
C570   H602    1.083   .     S
C570   C572    1.406   .     A
C572   C151    1.507   1_556 S
C573   O609    1.273   .     A
C573   C575    1.401   .     S
C573   O611    1.276   .     A
C574   C576    1.401   .     S
C574   O610    1.273   .     A
C574   O612    1.276   .     A
C576   C435    1.330   1_655 S
C576   H450    1.088   1_655 S
C577   O615    1.383   .     S
C577   C587    1.408   .     A
C577   C579    1.386   .     A
C578   O620    1.383   .     S
C578   C580    1.386   .     A
C578   C588    1.408   .     A
C579   H591    1.084   .     S
C579   C581    1.399   .     A
C580   H592    1.084   .     S
C580   C582    1.399   .     A
C581   C583    1.396   .     A
C582   C584    1.396   .     A
C583   C585    1.379   .     A
C583   H593    1.084   .     S
C584   C586    1.379   .     A
C584   H594    1.084   .     S
C585   H595    1.084   .     S
C585   C587    1.400   .     A
C586   C588    1.400   .     A
C586   H596    1.084   .     S
C587   C798    1.446   1_545 S
C588   C797    1.446   .     S
H589   C435    1.088   1_655 S
N603   Zn614   2.000   .     S
N604   Zn613   2.000   .     S
O605   Zn613   1.995   .     S
O606   Zn614   1.995   .     S
O607   Zn614   1.994   .     S
O608   Zn613   1.994   .     S
O609   Zn613   1.968   .     S
O610   Zn614   1.968   .     S
O611   Zn614   1.981   .     S
O612   Zn613   1.981   .     S
O615   C616    1.409   .     S
C616   H619    1.109   .     S
C616   H618    1.114   .     S
C616   H827    1.111   1_545 S
H617   C826    1.111   .     S
O620   C621    1.409   .     S
C621   H624    1.109   .     S
C621   H623    1.114   .     S
C621   H832    1.111   .     S
H622   C831    1.111   1_545 S
C625   H626    1.086   .     S
O627   C205    1.220   1_556 S
C628   O630    1.221   .     D
C628   H209    1.084   1_556 S
C631   C651    1.437   .     S
C631   O675    1.284   .     A
C631   O677    1.284   .     A
C632   C652    1.438   .     S
C632   O676    1.284   .     A
C632   O678    1.284   .     A
C633   C635    1.415   .     A
C633   C695    1.486   .     S
C633   C641    1.423   .     A
C634   C642    1.418   .     A
C634   C636    1.417   .     A
C634   C698    1.485   .     S
C635   H667    1.083   .     S
C635   N673    1.363   .     A
C636   H668    1.082   .     S
C636   N674    1.363   .     A
C637   C639    1.406   .     A
C637   H669    1.082   .     S
C637   N673    1.362   .     A
C638   N674    1.362   .     A
C638   C640    1.406   .     A
C638   H670    1.082   .     S
C639   C641    1.407   .     A
C639   H671    1.083   .     S
C640   H672    1.083   .     S
C640   C642    1.406   .     A
C642   C221    1.507   1_556 S
C643   O679    1.273   .     A
C643   C645    1.401   .     S
C643   O681    1.276   .     A
C644   C646    1.401   .     S
C644   O680    1.273   .     A
C644   O682    1.276   .     A
C645   C786    1.330   1_455 S
C645   H799    1.088   1_455 S
C646   C715    1.330   .     S
C646   H730    1.088   .     S
C647   O685    1.383   .     S
C647   C657    1.408   .     A
C647   C649    1.386   .     A
C648   O690    1.383   .     S
C648   C650    1.386   .     A
C648   C658    1.408   .     A
C649   H661    1.084   .     S
C649   C651    1.399   .     A
C650   H662    1.084   .     S
C650   C652    1.399   .     A
C651   C653    1.396   .     A
C652   C654    1.396   .     A
C653   C655    1.379   .     A
C653   H663    1.084   .     S
C654   C656    1.379   .     A
C654   H664    1.084   .     S
C655   H665    1.084   .     S
C655   C657    1.400   .     A
C656   C658    1.400   .     A
C656   H666    1.084   .     S
C658   C447    1.446   1_565 S
H659   C715    1.088   .     S
H660   C786    1.088   1_455 S
N673   Zn684   2.000   .     S
N674   Zn683   2.000   .     S
O675   Zn683   1.995   .     S
O676   Zn684   1.995   .     S
O677   Zn684   1.994   .     S
O678   Zn683   1.994   .     S
O679   Zn683   1.968   .     S
O680   Zn684   1.968   .     S
O681   Zn684   1.981   .     S
O682   Zn683   1.981   .     S
O685   C686    1.409   .     S
C686   H689    1.109   .     S
C686   H688    1.114   .     S
H687   C476    1.111   1_565 S
O690   C691    1.409   .     S
C691   H694    1.109   .     S
C691   H693    1.114   .     S
C691   H482    1.111   1_565 S
C695   H696    1.086   .     S
O697   C275    1.220   1_556 S
C698   O700    1.221   .     D
C698   H279    1.084   1_556 S
C701   C721    1.437   .     S
C701   O745    1.284   .     A
C701   O747    1.284   .     A
C702   C722    1.438   .     S
C702   O746    1.284   .     A
C702   O748    1.284   .     A
C703   C705    1.415   .     A
C703   C765    1.486   .     S
C703   C711    1.423   .     A
C704   C712    1.418   .     A
C704   C706    1.417   .     A
C704   C768    1.485   .     S
C705   H737    1.083   .     S
C705   N743    1.363   .     A
C706   H738    1.082   .     S
C706   N744    1.363   .     A
C707   C709    1.406   .     A
C707   H739    1.082   .     S
C707   N743    1.362   .     A
C708   N744    1.362   .     A
C708   C710    1.406   .     A
C708   H740    1.082   .     S
C709   C711    1.407   .     A
C709   H741    1.083   .     S
C710   H742    1.083   .     S
C710   C712    1.406   .     A
C712   C291    1.507   1_556 S
C713   O749    1.273   .     A
C713   C715    1.401   .     S
C713   O751    1.276   .     A
C714   C716    1.401   .     S
C714   O750    1.273   .     A
C714   O752    1.276   .     A
C716   C785    1.330   .     S
C716   H800    1.088   .     S
C717   O755    1.383   .     S
C717   C727    1.408   .     A
C717   C719    1.386   .     A
C718   O760    1.383   .     S
C718   C720    1.386   .     A
C718   C728    1.408   .     A
C719   H731    1.084   .     S
C719   C721    1.399   .     A
C720   H732    1.084   .     S
C720   C722    1.399   .     A
C721   C723    1.396   .     A
C722   C724    1.396   .     A
C723   C725    1.379   .     A
C723   H733    1.084   .     S
C724   C726    1.379   .     A
C724   H734    1.084   .     S
C725   H735    1.084   .     S
C725   C727    1.400   .     A
C726   C728    1.400   .     A
C726   H736    1.084   .     S
C728   C517    1.446   1_565 S
H729   C785    1.088   .     S
N743   Zn754   2.000   .     S
N744   Zn753   2.000   .     S
O745   Zn753   1.995   .     S
O746   Zn754   1.995   .     S
O747   Zn754   1.994   .     S
O748   Zn753   1.994   .     S
O749   Zn753   1.968   .     S
O750   Zn754   1.968   .     S
O751   Zn754   1.981   .     S
O752   Zn753   1.981   .     S
O755   C756    1.409   .     S
C756   H759    1.109   .     S
C756   H758    1.114   .     S
H757   C546    1.111   1_565 S
O760   C761    1.409   .     S
C761   H764    1.109   .     S
C761   H763    1.114   .     S
C761   H552    1.111   1_565 S
C765   H766    1.086   .     S
O767   C345    1.220   1_556 S
C768   O770    1.221   .     D
C768   H349    1.084   1_556 S
C771   C791    1.437   .     S
C771   O815    1.284   .     A
C771   O817    1.284   .     A
C772   C792    1.438   .     S
C772   O816    1.284   .     A
C772   O818    1.284   .     A
C773   C775    1.415   .     A
C773   C835    1.486   .     S
C773   C781    1.423   .     A
C774   C782    1.418   .     A
C774   C776    1.417   .     A
C774   C838    1.485   .     S
C775   H807    1.083   .     S
C775   N813    1.363   .     A
C776   H808    1.082   .     S
C776   N814    1.363   .     A
C777   C779    1.406   .     A
C777   H809    1.082   .     S
C777   N813    1.362   .     A
C778   N814    1.362   .     A
C778   C780    1.406   .     A
C778   H810    1.082   .     S
C779   C781    1.407   .     A
C779   H811    1.083   .     S
C780   H812    1.083   .     S
C780   C782    1.406   .     A
C782   C361    1.507   1_556 S
C783   O819    1.273   .     A
C783   C785    1.401   .     S
C783   O821    1.276   .     A
C784   C786    1.401   .     S
C784   O820    1.273   .     A
C784   O822    1.276   .     A
C786   C645    1.330   1_655 S
C786   H660    1.088   1_655 S
C787   O825    1.383   .     S
C787   C797    1.408   .     A
C787   C789    1.386   .     A
C788   O830    1.383   .     S
C788   C790    1.386   .     A
C788   C798    1.408   .     A
C789   H801    1.084   .     S
C789   C791    1.399   .     A
C790   H802    1.084   .     S
C790   C792    1.399   .     A
C791   C793    1.396   .     A
C792   C794    1.396   .     A
C793   C795    1.379   .     A
C793   H803    1.084   .     S
C794   C796    1.379   .     A
C794   H804    1.084   .     S
C795   H805    1.084   .     S
C795   C797    1.400   .     A
C796   C798    1.400   .     A
C796   H806    1.084   .     S
C798   C587    1.446   1_565 S
H799   C645    1.088   1_655 S
N813   Zn824   2.000   .     S
N814   Zn823   2.000   .     S
O815   Zn823   1.995   .     S
O816   Zn824   1.995   .     S
O817   Zn824   1.994   .     S
O818   Zn823   1.994   .     S
O819   Zn823   1.968   .     S
O820   Zn824   1.968   .     S
O821   Zn824   1.981   .     S
O822   Zn823   1.981   .     S
O825   C826    1.409   .     S
C826   H829    1.109   .     S
C826   H828    1.114   .     S
H827   C616    1.111   1_565 S
O830   C831    1.409   .     S
C831   H834    1.109   .     S
C831   H833    1.114   .     S
C831   H622    1.111   1_565 S
C835   H836    1.086   .     S
O837   C415    1.220   1_556 S
C838   O840    1.221   .     D
C838   H419    1.084   1_556 S
