data_str_m3_o10_o17_pcu_sym.124
_audit_creation_date              2020-01-03
_audit_creation_method            'Materials Studio'
_symmetry_space_group_name_H-M    'P1'
_symmetry_Int_Tables_number       1
_symmetry_cell_setting            triclinic
loop_
_symmetry_equiv_pos_as_xyz
  x,y,z
_cell_length_a                    23.3072
_cell_length_b                    25.7044
_cell_length_c                    29.8228
_cell_angle_alpha                 90.9611
_cell_angle_beta                  85.6715
_cell_angle_gamma                 93.5979
loop_
_atom_site_label
_atom_site_type_symbol
_atom_site_fract_x
_atom_site_fract_y
_atom_site_fract_z
_atom_site_U_iso_or_equiv
_atom_site_adp_type
_atom_site_occupancy
C1     C     0.18192   0.26491   0.24882   0.00000  Uiso   1.00
C2     C     0.21302   0.19114   0.40441   0.00000  Uiso   1.00
C3     C     0.16539   0.16777   0.11582   0.00000  Uiso   1.00
C4     C     0.16857   0.16387   0.38405   0.00000  Uiso   1.00
C5     C     0.20988   0.19515   0.09095   0.00000  Uiso   1.00
C6     C     0.12568   0.13419   0.40863   0.00000  Uiso   1.00
C7     C     0.21204   0.19369   0.04433   0.00000  Uiso   1.00
C8     C     0.12589   0.13221   0.45516   0.00000  Uiso   1.00
C9     C     0.16905   0.16307   0.02310   0.00000  Uiso   1.00
C10    C     0.17008   0.16152   0.47637   0.00000  Uiso   1.00
C11    C     0.12438   0.13480   0.04882   0.00000  Uiso   1.00
C12    C     0.15142   0.06843   0.25117   0.00000  Uiso   1.00
C13    C     0.21447   0.19042   0.45076   0.00000  Uiso   1.00
C14    C     0.25619   0.22215   0.01884   0.00000  Uiso   1.00
C15    C     0.08269   0.10239   0.48098   0.00000  Uiso   1.00
C16    C     0.01377   0.21801   0.43456   0.00000  Uiso   1.00
C17    C     0.06186   0.02465   0.06090   0.00000  Uiso   1.00
C18    C     0.25852   0.21926   0.47183   0.00000  Uiso   1.00
C19    C     0.08294   0.10284   0.02776   0.00000  Uiso   1.00
C20    C     0.18996   0.31939   0.24813   0.00000  Uiso   1.00
C21    C     0.14337   0.01394   0.25185   0.00000  Uiso   1.00
C22    C     0.16724   0.16611   0.33646   0.00000  Uiso   1.00
C23    C     0.16616   0.16723   0.16352   0.00000  Uiso   1.00
C24    C     0.12236   0.13856   0.09539   0.00000  Uiso   1.00
H25    H     0.08859   0.11754   0.11606   0.00000  Uiso   1.00
H26    H     0.29588   0.29318   0.02871   0.00000  Uiso   1.00
H27    H     0.05708   0.04423   0.43868   0.00000  Uiso   1.00
H28    H     0.01411   0.09565   0.44266   0.00000  Uiso   1.00
H29    H     0.00078   0.18524   0.41193   0.00000  Uiso   1.00
H30    H     0.04824   0.24244   0.41589   0.00000  Uiso   1.00
H31    H     0.03245   0.20269   0.46451   0.00000  Uiso   1.00
H32    H     0.10288   0.02843   0.07789   0.00000  Uiso   1.00
H33    H     0.06803   0.00185   0.02904   0.00000  Uiso   1.00
H34    H     0.02979   0.00245   0.08370   0.00000  Uiso   1.00
H35    H     0.24532   0.21406   0.38388   0.00000  Uiso   1.00
H36    H     0.24256   0.21755   0.10838   0.00000  Uiso   1.00
H37    H     0.09252   0.11293   0.39095   0.00000  Uiso   1.00
H38    H     0.23398   0.00304   0.24458   0.00000  Uiso   1.00
H39    H     0.09935   0.33029   0.25540   0.00000  Uiso   1.00
H40    H     0.00469   0.12764   0.21601   0.00000  Uiso   1.00
H41    H     0.32864   0.20568   0.28401   0.00000  Uiso   1.00
H42    H     0.00531   0.24263   0.03248   0.00000  Uiso   1.00
N43    N     0.31678   0.15265   0.23783   0.00000  Uiso   1.00
N44    N     0.01656   0.18068   0.26217   0.00000  Uiso   1.00
N45    N     0.29747   0.25539   0.04081   0.00000  Uiso   1.00
N46    N     0.03804   0.07133   0.46071   0.00000  Uiso   1.00
O47    O     0.12975   0.24619   0.25298   0.00000  Uiso   1.00
O48    O     0.04065   0.07363   0.05297   0.00000  Uiso   1.00
O49    O     0.20358   0.08714   0.24701   0.00000  Uiso   1.00
O50    O     0.22613   0.23721   0.24518   0.00000  Uiso   1.00
O51    O     0.10720   0.09613   0.25481   0.00000  Uiso   1.00
O52    O     0.11847   0.17117   0.31997   0.00000  Uiso   1.00
O53    O     0.21486   0.16216   0.18002   0.00000  Uiso   1.00
O54    O     0.21485   0.16219   0.31217   0.00000  Uiso   1.00
O55    O     0.11848   0.17115   0.18782   0.00000  Uiso   1.00
O56    O     0.30058   0.24915   0.44689   0.00000  Uiso   1.00
Zn57   Zn    0.10231   0.17266   0.25521   0.00000  Uiso   1.00
Zn58   Zn    0.23102   0.16067   0.24479   0.00000  Uiso   1.00
C59    C     0.51525   0.26491   0.24882   0.00000  Uiso   1.00
C60    C     0.54635   0.19114   0.40441   0.00000  Uiso   1.00
C61    C     0.49872   0.16777   0.11582   0.00000  Uiso   1.00
C62    C     0.50190   0.16387   0.38405   0.00000  Uiso   1.00
C63    C     0.54321   0.19515   0.09095   0.00000  Uiso   1.00
C64    C     0.45901   0.13419   0.40863   0.00000  Uiso   1.00
C65    C     0.54537   0.19369   0.04433   0.00000  Uiso   1.00
C66    C     0.45922   0.13221   0.45516   0.00000  Uiso   1.00
C67    C     0.50238   0.16307   0.02310   0.00000  Uiso   1.00
C68    C     0.50341   0.16152   0.47637   0.00000  Uiso   1.00
C69    C     0.45771   0.13480   0.04882   0.00000  Uiso   1.00
C70    C     0.48475   0.06843   0.25117   0.00000  Uiso   1.00
C71    C     0.54780   0.19042   0.45076   0.00000  Uiso   1.00
C72    C     0.58952   0.22215   0.01884   0.00000  Uiso   1.00
C73    C     0.41603   0.10239   0.48098   0.00000  Uiso   1.00
C74    C     0.34710   0.21801   0.43456   0.00000  Uiso   1.00
C75    C     0.39519   0.02465   0.06090   0.00000  Uiso   1.00
C76    C     0.59186   0.21926   0.47183   0.00000  Uiso   1.00
C77    C     0.41628   0.10284   0.02776   0.00000  Uiso   1.00
C78    C     0.52330   0.31939   0.24813   0.00000  Uiso   1.00
C79    C     0.47670   0.01394   0.25185   0.00000  Uiso   1.00
C80    C     0.50057   0.16611   0.33646   0.00000  Uiso   1.00
C81    C     0.49949   0.16723   0.16352   0.00000  Uiso   1.00
C82    C     0.45569   0.13856   0.09539   0.00000  Uiso   1.00
H83    H     0.42192   0.11754   0.11606   0.00000  Uiso   1.00
H84    H     0.62921   0.29318   0.02871   0.00000  Uiso   1.00
H85    H     0.39042   0.04423   0.43868   0.00000  Uiso   1.00
H86    H     0.34745   0.09565   0.44266   0.00000  Uiso   1.00
H87    H     0.33412   0.18524   0.41193   0.00000  Uiso   1.00
H88    H     0.38158   0.24244   0.41589   0.00000  Uiso   1.00
H89    H     0.36578   0.20269   0.46451   0.00000  Uiso   1.00
H90    H     0.43621   0.02843   0.07789   0.00000  Uiso   1.00
H91    H     0.40136   0.00185   0.02904   0.00000  Uiso   1.00
H92    H     0.36312   0.00245   0.08370   0.00000  Uiso   1.00
H93    H     0.57866   0.21406   0.38388   0.00000  Uiso   1.00
H94    H     0.57589   0.21755   0.10838   0.00000  Uiso   1.00
H95    H     0.42585   0.11293   0.39095   0.00000  Uiso   1.00
H96    H     0.56732   0.00304   0.24458   0.00000  Uiso   1.00
H97    H     0.43268   0.33029   0.25540   0.00000  Uiso   1.00
H98    H     0.33803   0.12764   0.21601   0.00000  Uiso   1.00
H99    H     0.66197   0.20568   0.28401   0.00000  Uiso   1.00
H100   H     0.33864   0.24263   0.03248   0.00000  Uiso   1.00
N101   N     0.65011   0.15265   0.23783   0.00000  Uiso   1.00
N102   N     0.34989   0.18068   0.26217   0.00000  Uiso   1.00
N103   N     0.63081   0.25539   0.04081   0.00000  Uiso   1.00
N104   N     0.37137   0.07133   0.46071   0.00000  Uiso   1.00
O105   O     0.46308   0.24619   0.25298   0.00000  Uiso   1.00
O106   O     0.37398   0.07363   0.05297   0.00000  Uiso   1.00
O107   O     0.53692   0.08714   0.24701   0.00000  Uiso   1.00
O108   O     0.55946   0.23721   0.24518   0.00000  Uiso   1.00
O109   O     0.44054   0.09613   0.25481   0.00000  Uiso   1.00
O110   O     0.45181   0.17117   0.31997   0.00000  Uiso   1.00
O111   O     0.54819   0.16216   0.18002   0.00000  Uiso   1.00
O112   O     0.54819   0.16219   0.31217   0.00000  Uiso   1.00
O113   O     0.45181   0.17115   0.18782   0.00000  Uiso   1.00
O114   O     0.63392   0.24915   0.44689   0.00000  Uiso   1.00
Zn115  Zn    0.43565   0.17266   0.25521   0.00000  Uiso   1.00
Zn116  Zn    0.56435   0.16067   0.24479   0.00000  Uiso   1.00
C117   C     0.84858   0.26491   0.24882   0.00000  Uiso   1.00
C118   C     0.87969   0.19114   0.40441   0.00000  Uiso   1.00
C119   C     0.83206   0.16777   0.11582   0.00000  Uiso   1.00
C120   C     0.83524   0.16387   0.38405   0.00000  Uiso   1.00
C121   C     0.87655   0.19515   0.09095   0.00000  Uiso   1.00
C122   C     0.79235   0.13419   0.40863   0.00000  Uiso   1.00
C123   C     0.87871   0.19369   0.04433   0.00000  Uiso   1.00
C124   C     0.79256   0.13221   0.45516   0.00000  Uiso   1.00
C125   C     0.83572   0.16307   0.02310   0.00000  Uiso   1.00
C126   C     0.83674   0.16152   0.47637   0.00000  Uiso   1.00
C127   C     0.79105   0.13480   0.04882   0.00000  Uiso   1.00
C128   C     0.81808   0.06843   0.25117   0.00000  Uiso   1.00
C129   C     0.88114   0.19042   0.45076   0.00000  Uiso   1.00
C130   C     0.92286   0.22215   0.01884   0.00000  Uiso   1.00
C131   C     0.74936   0.10239   0.48098   0.00000  Uiso   1.00
C132   C     0.68043   0.21801   0.43456   0.00000  Uiso   1.00
C133   C     0.72853   0.02465   0.06090   0.00000  Uiso   1.00
C134   C     0.92519   0.21926   0.47183   0.00000  Uiso   1.00
C135   C     0.74961   0.10284   0.02776   0.00000  Uiso   1.00
C136   C     0.85663   0.31939   0.24813   0.00000  Uiso   1.00
C137   C     0.81003   0.01394   0.25185   0.00000  Uiso   1.00
C138   C     0.83390   0.16611   0.33646   0.00000  Uiso   1.00
C139   C     0.83282   0.16723   0.16352   0.00000  Uiso   1.00
C140   C     0.78903   0.13856   0.09539   0.00000  Uiso   1.00
H141   H     0.75526   0.11754   0.11606   0.00000  Uiso   1.00
H142   H     0.96254   0.29318   0.02871   0.00000  Uiso   1.00
H143   H     0.72375   0.04423   0.43868   0.00000  Uiso   1.00
H144   H     0.68078   0.09565   0.44266   0.00000  Uiso   1.00
H145   H     0.66745   0.18524   0.41193   0.00000  Uiso   1.00
H146   H     0.71491   0.24244   0.41589   0.00000  Uiso   1.00
H147   H     0.69912   0.20269   0.46451   0.00000  Uiso   1.00
H148   H     0.76955   0.02843   0.07789   0.00000  Uiso   1.00
H149   H     0.73469   0.00185   0.02904   0.00000  Uiso   1.00
H150   H     0.69646   0.00245   0.08370   0.00000  Uiso   1.00
H151   H     0.91199   0.21406   0.38388   0.00000  Uiso   1.00
H152   H     0.90922   0.21755   0.10838   0.00000  Uiso   1.00
H153   H     0.75918   0.11293   0.39095   0.00000  Uiso   1.00
H154   H     0.90065   0.00304   0.24458   0.00000  Uiso   1.00
H155   H     0.76601   0.33029   0.25540   0.00000  Uiso   1.00
H156   H     0.67136   0.12764   0.21601   0.00000  Uiso   1.00
H157   H     0.99531   0.20568   0.28401   0.00000  Uiso   1.00
H158   H     0.67197   0.24263   0.03248   0.00000  Uiso   1.00
N159   N     0.98344   0.15265   0.23783   0.00000  Uiso   1.00
N160   N     0.68322   0.18068   0.26217   0.00000  Uiso   1.00
N161   N     0.96414   0.25539   0.04081   0.00000  Uiso   1.00
N162   N     0.70471   0.07133   0.46071   0.00000  Uiso   1.00
O163   O     0.79642   0.24619   0.25298   0.00000  Uiso   1.00
O164   O     0.70732   0.07363   0.05297   0.00000  Uiso   1.00
O165   O     0.87025   0.08714   0.24701   0.00000  Uiso   1.00
O166   O     0.89280   0.23721   0.24518   0.00000  Uiso   1.00
O167   O     0.77387   0.09613   0.25481   0.00000  Uiso   1.00
O168   O     0.78514   0.17117   0.31997   0.00000  Uiso   1.00
O169   O     0.88153   0.16216   0.18002   0.00000  Uiso   1.00
O170   O     0.88152   0.16219   0.31217   0.00000  Uiso   1.00
O171   O     0.78515   0.17115   0.18782   0.00000  Uiso   1.00
O172   O     0.96725   0.24915   0.44689   0.00000  Uiso   1.00
Zn173  Zn    0.76898   0.17266   0.25521   0.00000  Uiso   1.00
Zn174  Zn    0.89769   0.16067   0.24479   0.00000  Uiso   1.00
C175   C     0.18192   0.59824   0.24882   0.00000  Uiso   1.00
C176   C     0.21302   0.52447   0.40441   0.00000  Uiso   1.00
C177   C     0.16539   0.50111   0.11582   0.00000  Uiso   1.00
C178   C     0.16857   0.49721   0.38405   0.00000  Uiso   1.00
C179   C     0.20988   0.52849   0.09095   0.00000  Uiso   1.00
C180   C     0.12568   0.46753   0.40863   0.00000  Uiso   1.00
C181   C     0.21204   0.52703   0.04433   0.00000  Uiso   1.00
C182   C     0.12589   0.46554   0.45516   0.00000  Uiso   1.00
C183   C     0.16905   0.49640   0.02310   0.00000  Uiso   1.00
C184   C     0.17008   0.49485   0.47637   0.00000  Uiso   1.00
C185   C     0.12438   0.46813   0.04882   0.00000  Uiso   1.00
C186   C     0.15142   0.40176   0.25117   0.00000  Uiso   1.00
C187   C     0.21447   0.52376   0.45076   0.00000  Uiso   1.00
C188   C     0.25619   0.55549   0.01884   0.00000  Uiso   1.00
C189   C     0.08269   0.43572   0.48098   0.00000  Uiso   1.00
C190   C     0.01377   0.55135   0.43456   0.00000  Uiso   1.00
C191   C     0.06186   0.35798   0.06090   0.00000  Uiso   1.00
C192   C     0.25852   0.55260   0.47183   0.00000  Uiso   1.00
C193   C     0.08294   0.43617   0.02776   0.00000  Uiso   1.00
C194   C     0.18996   0.65272   0.24813   0.00000  Uiso   1.00
C195   C     0.14337   0.34727   0.25185   0.00000  Uiso   1.00
C196   C     0.16724   0.49944   0.33646   0.00000  Uiso   1.00
C197   C     0.16616   0.50056   0.16352   0.00000  Uiso   1.00
C198   C     0.12236   0.47189   0.09539   0.00000  Uiso   1.00
H199   H     0.08859   0.45087   0.11606   0.00000  Uiso   1.00
H200   H     0.29588   0.62651   0.02871   0.00000  Uiso   1.00
H201   H     0.05708   0.37756   0.43868   0.00000  Uiso   1.00
H202   H     0.01411   0.42898   0.44266   0.00000  Uiso   1.00
H203   H     0.00078   0.51857   0.41193   0.00000  Uiso   1.00
H204   H     0.04824   0.57577   0.41589   0.00000  Uiso   1.00
H205   H     0.03245   0.53602   0.46451   0.00000  Uiso   1.00
H206   H     0.10288   0.36177   0.07789   0.00000  Uiso   1.00
H207   H     0.06803   0.33518   0.02904   0.00000  Uiso   1.00
H208   H     0.02979   0.33578   0.08370   0.00000  Uiso   1.00
H209   H     0.24532   0.54740   0.38388   0.00000  Uiso   1.00
H210   H     0.24256   0.55088   0.10838   0.00000  Uiso   1.00
H211   H     0.09252   0.44626   0.39095   0.00000  Uiso   1.00
H212   H     0.23398   0.33638   0.24458   0.00000  Uiso   1.00
H213   H     0.09935   0.66362   0.25540   0.00000  Uiso   1.00
H214   H     0.00469   0.46097   0.21601   0.00000  Uiso   1.00
H215   H     0.32864   0.53901   0.28401   0.00000  Uiso   1.00
H216   H     0.00531   0.57596   0.03248   0.00000  Uiso   1.00
N217   N     0.31678   0.48598   0.23783   0.00000  Uiso   1.00
N218   N     0.01656   0.51402   0.26217   0.00000  Uiso   1.00
N219   N     0.29747   0.58872   0.04081   0.00000  Uiso   1.00
N220   N     0.03804   0.40466   0.46071   0.00000  Uiso   1.00
O221   O     0.12975   0.57952   0.25298   0.00000  Uiso   1.00
O222   O     0.04065   0.40696   0.05297   0.00000  Uiso   1.00
O223   O     0.20358   0.42048   0.24701   0.00000  Uiso   1.00
O224   O     0.22613   0.57054   0.24518   0.00000  Uiso   1.00
O225   O     0.10720   0.42946   0.25481   0.00000  Uiso   1.00
O226   O     0.11847   0.50450   0.31997   0.00000  Uiso   1.00
O227   O     0.21486   0.49550   0.18002   0.00000  Uiso   1.00
O228   O     0.21485   0.49552   0.31217   0.00000  Uiso   1.00
O229   O     0.11848   0.50448   0.18782   0.00000  Uiso   1.00
O230   O     0.30058   0.58248   0.44689   0.00000  Uiso   1.00
Zn231  Zn    0.10231   0.50600   0.25521   0.00000  Uiso   1.00
Zn232  Zn    0.23102   0.49400   0.24479   0.00000  Uiso   1.00
C233   C     0.51525   0.59824   0.24882   0.00000  Uiso   1.00
C234   C     0.54635   0.52447   0.40441   0.00000  Uiso   1.00
C235   C     0.49872   0.50111   0.11582   0.00000  Uiso   1.00
C236   C     0.50190   0.49721   0.38405   0.00000  Uiso   1.00
C237   C     0.54321   0.52849   0.09095   0.00000  Uiso   1.00
C238   C     0.45901   0.46753   0.40863   0.00000  Uiso   1.00
C239   C     0.54537   0.52703   0.04433   0.00000  Uiso   1.00
C240   C     0.45922   0.46554   0.45516   0.00000  Uiso   1.00
C241   C     0.50238   0.49640   0.02310   0.00000  Uiso   1.00
C242   C     0.50341   0.49485   0.47637   0.00000  Uiso   1.00
C243   C     0.45771   0.46813   0.04882   0.00000  Uiso   1.00
C244   C     0.48475   0.40176   0.25117   0.00000  Uiso   1.00
C245   C     0.54780   0.52376   0.45076   0.00000  Uiso   1.00
C246   C     0.58952   0.55549   0.01884   0.00000  Uiso   1.00
C247   C     0.41603   0.43572   0.48098   0.00000  Uiso   1.00
C248   C     0.34710   0.55135   0.43456   0.00000  Uiso   1.00
C249   C     0.39519   0.35798   0.06090   0.00000  Uiso   1.00
C250   C     0.59186   0.55260   0.47183   0.00000  Uiso   1.00
C251   C     0.41628   0.43617   0.02776   0.00000  Uiso   1.00
C252   C     0.52330   0.65272   0.24813   0.00000  Uiso   1.00
C253   C     0.47670   0.34727   0.25185   0.00000  Uiso   1.00
C254   C     0.50057   0.49944   0.33646   0.00000  Uiso   1.00
C255   C     0.49949   0.50056   0.16352   0.00000  Uiso   1.00
C256   C     0.45569   0.47189   0.09539   0.00000  Uiso   1.00
H257   H     0.42192   0.45087   0.11606   0.00000  Uiso   1.00
H258   H     0.62921   0.62651   0.02871   0.00000  Uiso   1.00
H259   H     0.39042   0.37756   0.43868   0.00000  Uiso   1.00
H260   H     0.34745   0.42898   0.44266   0.00000  Uiso   1.00
H261   H     0.33412   0.51857   0.41193   0.00000  Uiso   1.00
H262   H     0.38158   0.57577   0.41589   0.00000  Uiso   1.00
H263   H     0.36578   0.53602   0.46451   0.00000  Uiso   1.00
H264   H     0.43621   0.36177   0.07789   0.00000  Uiso   1.00
H265   H     0.40136   0.33518   0.02904   0.00000  Uiso   1.00
H266   H     0.36312   0.33578   0.08370   0.00000  Uiso   1.00
H267   H     0.57866   0.54740   0.38388   0.00000  Uiso   1.00
H268   H     0.57589   0.55088   0.10838   0.00000  Uiso   1.00
H269   H     0.42585   0.44626   0.39095   0.00000  Uiso   1.00
H270   H     0.56732   0.33638   0.24458   0.00000  Uiso   1.00
H271   H     0.43268   0.66362   0.25540   0.00000  Uiso   1.00
H272   H     0.33803   0.46097   0.21601   0.00000  Uiso   1.00
H273   H     0.66197   0.53901   0.28401   0.00000  Uiso   1.00
H274   H     0.33864   0.57596   0.03248   0.00000  Uiso   1.00
N275   N     0.65011   0.48598   0.23783   0.00000  Uiso   1.00
N276   N     0.34989   0.51402   0.26217   0.00000  Uiso   1.00
N277   N     0.63081   0.58872   0.04081   0.00000  Uiso   1.00
N278   N     0.37137   0.40466   0.46071   0.00000  Uiso   1.00
O279   O     0.46308   0.57952   0.25298   0.00000  Uiso   1.00
O280   O     0.37398   0.40696   0.05297   0.00000  Uiso   1.00
O281   O     0.53692   0.42048   0.24701   0.00000  Uiso   1.00
O282   O     0.55946   0.57054   0.24518   0.00000  Uiso   1.00
O283   O     0.44054   0.42946   0.25481   0.00000  Uiso   1.00
O284   O     0.45181   0.50450   0.31997   0.00000  Uiso   1.00
O285   O     0.54819   0.49550   0.18002   0.00000  Uiso   1.00
O286   O     0.54819   0.49552   0.31217   0.00000  Uiso   1.00
O287   O     0.45181   0.50448   0.18782   0.00000  Uiso   1.00
O288   O     0.63392   0.58248   0.44689   0.00000  Uiso   1.00
Zn289  Zn    0.43565   0.50600   0.25521   0.00000  Uiso   1.00
Zn290  Zn    0.56435   0.49400   0.24479   0.00000  Uiso   1.00
C291   C     0.84858   0.59824   0.24882   0.00000  Uiso   1.00
C292   C     0.87969   0.52447   0.40441   0.00000  Uiso   1.00
C293   C     0.83206   0.50111   0.11582   0.00000  Uiso   1.00
C294   C     0.83524   0.49721   0.38405   0.00000  Uiso   1.00
C295   C     0.87655   0.52849   0.09095   0.00000  Uiso   1.00
C296   C     0.79235   0.46753   0.40863   0.00000  Uiso   1.00
C297   C     0.87871   0.52703   0.04433   0.00000  Uiso   1.00
C298   C     0.79256   0.46554   0.45516   0.00000  Uiso   1.00
C299   C     0.83572   0.49640   0.02310   0.00000  Uiso   1.00
C300   C     0.83674   0.49485   0.47637   0.00000  Uiso   1.00
C301   C     0.79105   0.46813   0.04882   0.00000  Uiso   1.00
C302   C     0.81808   0.40176   0.25117   0.00000  Uiso   1.00
C303   C     0.88114   0.52376   0.45076   0.00000  Uiso   1.00
C304   C     0.92286   0.55549   0.01884   0.00000  Uiso   1.00
C305   C     0.74936   0.43572   0.48098   0.00000  Uiso   1.00
C306   C     0.68043   0.55135   0.43456   0.00000  Uiso   1.00
C307   C     0.72853   0.35798   0.06090   0.00000  Uiso   1.00
C308   C     0.92519   0.55260   0.47183   0.00000  Uiso   1.00
C309   C     0.74961   0.43617   0.02776   0.00000  Uiso   1.00
C310   C     0.85663   0.65272   0.24813   0.00000  Uiso   1.00
C311   C     0.81003   0.34727   0.25185   0.00000  Uiso   1.00
C312   C     0.83390   0.49944   0.33646   0.00000  Uiso   1.00
C313   C     0.83282   0.50056   0.16352   0.00000  Uiso   1.00
C314   C     0.78903   0.47189   0.09539   0.00000  Uiso   1.00
H315   H     0.75526   0.45087   0.11606   0.00000  Uiso   1.00
H316   H     0.96254   0.62651   0.02871   0.00000  Uiso   1.00
H317   H     0.72375   0.37756   0.43868   0.00000  Uiso   1.00
H318   H     0.68078   0.42898   0.44266   0.00000  Uiso   1.00
H319   H     0.66745   0.51857   0.41193   0.00000  Uiso   1.00
H320   H     0.71491   0.57577   0.41589   0.00000  Uiso   1.00
H321   H     0.69912   0.53602   0.46451   0.00000  Uiso   1.00
H322   H     0.76955   0.36177   0.07789   0.00000  Uiso   1.00
H323   H     0.73469   0.33518   0.02904   0.00000  Uiso   1.00
H324   H     0.69646   0.33578   0.08370   0.00000  Uiso   1.00
H325   H     0.91199   0.54740   0.38388   0.00000  Uiso   1.00
H326   H     0.90922   0.55088   0.10838   0.00000  Uiso   1.00
H327   H     0.75918   0.44626   0.39095   0.00000  Uiso   1.00
H328   H     0.90065   0.33638   0.24458   0.00000  Uiso   1.00
H329   H     0.76601   0.66362   0.25540   0.00000  Uiso   1.00
H330   H     0.67136   0.46097   0.21601   0.00000  Uiso   1.00
H331   H     0.99531   0.53901   0.28401   0.00000  Uiso   1.00
H332   H     0.67197   0.57596   0.03248   0.00000  Uiso   1.00
N333   N     0.98344   0.48598   0.23783   0.00000  Uiso   1.00
N334   N     0.68322   0.51402   0.26217   0.00000  Uiso   1.00
N335   N     0.96414   0.58872   0.04081   0.00000  Uiso   1.00
N336   N     0.70471   0.40466   0.46071   0.00000  Uiso   1.00
O337   O     0.79642   0.57952   0.25298   0.00000  Uiso   1.00
O338   O     0.70732   0.40696   0.05297   0.00000  Uiso   1.00
O339   O     0.87025   0.42048   0.24701   0.00000  Uiso   1.00
O340   O     0.89280   0.57054   0.24518   0.00000  Uiso   1.00
O341   O     0.77387   0.42946   0.25481   0.00000  Uiso   1.00
O342   O     0.78514   0.50450   0.31997   0.00000  Uiso   1.00
O343   O     0.88153   0.49550   0.18002   0.00000  Uiso   1.00
O344   O     0.88152   0.49552   0.31217   0.00000  Uiso   1.00
O345   O     0.78515   0.50448   0.18782   0.00000  Uiso   1.00
O346   O     0.96725   0.58248   0.44689   0.00000  Uiso   1.00
Zn347  Zn    0.76898   0.50600   0.25521   0.00000  Uiso   1.00
Zn348  Zn    0.89769   0.49400   0.24479   0.00000  Uiso   1.00
C349   C     0.18192   0.93157   0.24882   0.00000  Uiso   1.00
C350   C     0.21302   0.85781   0.40441   0.00000  Uiso   1.00
C351   C     0.16539   0.83444   0.11582   0.00000  Uiso   1.00
C352   C     0.16857   0.83054   0.38405   0.00000  Uiso   1.00
C353   C     0.20988   0.86182   0.09095   0.00000  Uiso   1.00
C354   C     0.12568   0.80086   0.40863   0.00000  Uiso   1.00
C355   C     0.21204   0.86036   0.04433   0.00000  Uiso   1.00
C356   C     0.12589   0.79888   0.45516   0.00000  Uiso   1.00
C357   C     0.16905   0.82974   0.02310   0.00000  Uiso   1.00
C358   C     0.17008   0.82819   0.47637   0.00000  Uiso   1.00
C359   C     0.12438   0.80146   0.04882   0.00000  Uiso   1.00
C360   C     0.15142   0.73509   0.25117   0.00000  Uiso   1.00
C361   C     0.21447   0.85709   0.45076   0.00000  Uiso   1.00
C362   C     0.25619   0.88882   0.01884   0.00000  Uiso   1.00
C363   C     0.08269   0.76905   0.48098   0.00000  Uiso   1.00
C364   C     0.01377   0.88468   0.43456   0.00000  Uiso   1.00
C365   C     0.06186   0.69132   0.06090   0.00000  Uiso   1.00
C366   C     0.25852   0.88593   0.47183   0.00000  Uiso   1.00
C367   C     0.08294   0.76950   0.02776   0.00000  Uiso   1.00
C368   C     0.18996   0.98606   0.24813   0.00000  Uiso   1.00
C369   C     0.14337   0.68061   0.25185   0.00000  Uiso   1.00
C370   C     0.16724   0.83278   0.33646   0.00000  Uiso   1.00
C371   C     0.16616   0.83389   0.16352   0.00000  Uiso   1.00
C372   C     0.12236   0.80522   0.09539   0.00000  Uiso   1.00
H373   H     0.08859   0.78420   0.11606   0.00000  Uiso   1.00
H374   H     0.29588   0.95984   0.02871   0.00000  Uiso   1.00
H375   H     0.05708   0.71090   0.43868   0.00000  Uiso   1.00
H376   H     0.01411   0.76232   0.44266   0.00000  Uiso   1.00
H377   H     0.00078   0.85191   0.41193   0.00000  Uiso   1.00
H378   H     0.04824   0.90910   0.41589   0.00000  Uiso   1.00
H379   H     0.03245   0.86936   0.46451   0.00000  Uiso   1.00
H380   H     0.10288   0.69510   0.07789   0.00000  Uiso   1.00
H381   H     0.06803   0.66852   0.02904   0.00000  Uiso   1.00
H382   H     0.02979   0.66912   0.08370   0.00000  Uiso   1.00
H383   H     0.24532   0.88073   0.38388   0.00000  Uiso   1.00
H384   H     0.24256   0.88422   0.10838   0.00000  Uiso   1.00
H385   H     0.09252   0.77960   0.39095   0.00000  Uiso   1.00
H386   H     0.23398   0.66971   0.24458   0.00000  Uiso   1.00
H387   H     0.09935   0.99695   0.25540   0.00000  Uiso   1.00
H388   H     0.00469   0.79430   0.21601   0.00000  Uiso   1.00
H389   H     0.32864   0.87235   0.28401   0.00000  Uiso   1.00
H390   H     0.00531   0.90929   0.03248   0.00000  Uiso   1.00
N391   N     0.31678   0.81932   0.23783   0.00000  Uiso   1.00
N392   N     0.01656   0.84735   0.26217   0.00000  Uiso   1.00
N393   N     0.29747   0.92206   0.04081   0.00000  Uiso   1.00
N394   N     0.03804   0.73800   0.46071   0.00000  Uiso   1.00
O395   O     0.12975   0.91286   0.25298   0.00000  Uiso   1.00
O396   O     0.04065   0.74030   0.05297   0.00000  Uiso   1.00
O397   O     0.20358   0.75381   0.24701   0.00000  Uiso   1.00
O398   O     0.22613   0.90387   0.24518   0.00000  Uiso   1.00
O399   O     0.10720   0.76279   0.25481   0.00000  Uiso   1.00
O400   O     0.11847   0.83784   0.31997   0.00000  Uiso   1.00
O401   O     0.21486   0.82883   0.18002   0.00000  Uiso   1.00
O402   O     0.21485   0.82885   0.31217   0.00000  Uiso   1.00
O403   O     0.11848   0.83781   0.18782   0.00000  Uiso   1.00
O404   O     0.30058   0.91581   0.44689   0.00000  Uiso   1.00
Zn405  Zn    0.10231   0.83933   0.25521   0.00000  Uiso   1.00
Zn406  Zn    0.23102   0.82734   0.24479   0.00000  Uiso   1.00
C407   C     0.51525   0.93157   0.24882   0.00000  Uiso   1.00
C408   C     0.54635   0.85781   0.40441   0.00000  Uiso   1.00
C409   C     0.49872   0.83444   0.11582   0.00000  Uiso   1.00
C410   C     0.50190   0.83054   0.38405   0.00000  Uiso   1.00
C411   C     0.54321   0.86182   0.09095   0.00000  Uiso   1.00
C412   C     0.45901   0.80086   0.40863   0.00000  Uiso   1.00
C413   C     0.54537   0.86036   0.04433   0.00000  Uiso   1.00
C414   C     0.45922   0.79888   0.45516   0.00000  Uiso   1.00
C415   C     0.50238   0.82974   0.02310   0.00000  Uiso   1.00
C416   C     0.50341   0.82819   0.47637   0.00000  Uiso   1.00
C417   C     0.45771   0.80146   0.04882   0.00000  Uiso   1.00
C418   C     0.48475   0.73509   0.25117   0.00000  Uiso   1.00
C419   C     0.54780   0.85709   0.45076   0.00000  Uiso   1.00
C420   C     0.58952   0.88882   0.01884   0.00000  Uiso   1.00
C421   C     0.41603   0.76905   0.48098   0.00000  Uiso   1.00
C422   C     0.34710   0.88468   0.43456   0.00000  Uiso   1.00
C423   C     0.39519   0.69132   0.06090   0.00000  Uiso   1.00
C424   C     0.59186   0.88593   0.47183   0.00000  Uiso   1.00
C425   C     0.41628   0.76950   0.02776   0.00000  Uiso   1.00
C426   C     0.52330   0.98606   0.24813   0.00000  Uiso   1.00
C427   C     0.47670   0.68061   0.25185   0.00000  Uiso   1.00
C428   C     0.50057   0.83278   0.33646   0.00000  Uiso   1.00
C429   C     0.49949   0.83389   0.16352   0.00000  Uiso   1.00
C430   C     0.45569   0.80522   0.09539   0.00000  Uiso   1.00
H431   H     0.42192   0.78420   0.11606   0.00000  Uiso   1.00
H432   H     0.62921   0.95984   0.02871   0.00000  Uiso   1.00
H433   H     0.39042   0.71090   0.43868   0.00000  Uiso   1.00
H434   H     0.34745   0.76232   0.44266   0.00000  Uiso   1.00
H435   H     0.33412   0.85191   0.41193   0.00000  Uiso   1.00
H436   H     0.38158   0.90910   0.41589   0.00000  Uiso   1.00
H437   H     0.36578   0.86936   0.46451   0.00000  Uiso   1.00
H438   H     0.43621   0.69510   0.07789   0.00000  Uiso   1.00
H439   H     0.40136   0.66852   0.02904   0.00000  Uiso   1.00
H440   H     0.36312   0.66912   0.08370   0.00000  Uiso   1.00
H441   H     0.57866   0.88073   0.38388   0.00000  Uiso   1.00
H442   H     0.57589   0.88422   0.10838   0.00000  Uiso   1.00
H443   H     0.42585   0.77960   0.39095   0.00000  Uiso   1.00
H444   H     0.56732   0.66971   0.24458   0.00000  Uiso   1.00
H445   H     0.43268   0.99695   0.25540   0.00000  Uiso   1.00
H446   H     0.33803   0.79430   0.21601   0.00000  Uiso   1.00
H447   H     0.66197   0.87235   0.28401   0.00000  Uiso   1.00
H448   H     0.33864   0.90929   0.03248   0.00000  Uiso   1.00
N449   N     0.65011   0.81932   0.23783   0.00000  Uiso   1.00
N450   N     0.34989   0.84735   0.26217   0.00000  Uiso   1.00
N451   N     0.63081   0.92206   0.04081   0.00000  Uiso   1.00
N452   N     0.37137   0.73800   0.46071   0.00000  Uiso   1.00
O453   O     0.46308   0.91286   0.25298   0.00000  Uiso   1.00
O454   O     0.37398   0.74030   0.05297   0.00000  Uiso   1.00
O455   O     0.53692   0.75381   0.24701   0.00000  Uiso   1.00
O456   O     0.55946   0.90387   0.24518   0.00000  Uiso   1.00
O457   O     0.44054   0.76279   0.25481   0.00000  Uiso   1.00
O458   O     0.45181   0.83784   0.31997   0.00000  Uiso   1.00
O459   O     0.54819   0.82883   0.18002   0.00000  Uiso   1.00
O460   O     0.54819   0.82885   0.31217   0.00000  Uiso   1.00
O461   O     0.45181   0.83781   0.18782   0.00000  Uiso   1.00
O462   O     0.63392   0.91581   0.44689   0.00000  Uiso   1.00
Zn463  Zn    0.43565   0.83933   0.25521   0.00000  Uiso   1.00
Zn464  Zn    0.56435   0.82734   0.24479   0.00000  Uiso   1.00
C465   C     0.84858   0.93157   0.24882   0.00000  Uiso   1.00
C466   C     0.87969   0.85781   0.40441   0.00000  Uiso   1.00
C467   C     0.83206   0.83444   0.11582   0.00000  Uiso   1.00
C468   C     0.83524   0.83054   0.38405   0.00000  Uiso   1.00
C469   C     0.87655   0.86182   0.09095   0.00000  Uiso   1.00
C470   C     0.79235   0.80086   0.40863   0.00000  Uiso   1.00
C471   C     0.87871   0.86036   0.04433   0.00000  Uiso   1.00
C472   C     0.79256   0.79888   0.45516   0.00000  Uiso   1.00
C473   C     0.83572   0.82974   0.02310   0.00000  Uiso   1.00
C474   C     0.83674   0.82819   0.47637   0.00000  Uiso   1.00
C475   C     0.79105   0.80146   0.04882   0.00000  Uiso   1.00
C476   C     0.81808   0.73509   0.25117   0.00000  Uiso   1.00
C477   C     0.88114   0.85709   0.45076   0.00000  Uiso   1.00
C478   C     0.92286   0.88882   0.01884   0.00000  Uiso   1.00
C479   C     0.74936   0.76905   0.48098   0.00000  Uiso   1.00
C480   C     0.68043   0.88468   0.43456   0.00000  Uiso   1.00
C481   C     0.72853   0.69132   0.06090   0.00000  Uiso   1.00
C482   C     0.92519   0.88593   0.47183   0.00000  Uiso   1.00
C483   C     0.74961   0.76950   0.02776   0.00000  Uiso   1.00
C484   C     0.85663   0.98606   0.24813   0.00000  Uiso   1.00
C485   C     0.81003   0.68061   0.25185   0.00000  Uiso   1.00
C486   C     0.83390   0.83278   0.33646   0.00000  Uiso   1.00
C487   C     0.83282   0.83389   0.16352   0.00000  Uiso   1.00
C488   C     0.78903   0.80522   0.09539   0.00000  Uiso   1.00
H489   H     0.75526   0.78420   0.11606   0.00000  Uiso   1.00
H490   H     0.96254   0.95984   0.02871   0.00000  Uiso   1.00
H491   H     0.72375   0.71090   0.43868   0.00000  Uiso   1.00
H492   H     0.68078   0.76232   0.44266   0.00000  Uiso   1.00
H493   H     0.66745   0.85191   0.41193   0.00000  Uiso   1.00
H494   H     0.71491   0.90910   0.41589   0.00000  Uiso   1.00
H495   H     0.69912   0.86936   0.46451   0.00000  Uiso   1.00
H496   H     0.76955   0.69510   0.07789   0.00000  Uiso   1.00
H497   H     0.73469   0.66852   0.02904   0.00000  Uiso   1.00
H498   H     0.69646   0.66912   0.08370   0.00000  Uiso   1.00
H499   H     0.91199   0.88073   0.38388   0.00000  Uiso   1.00
H500   H     0.90922   0.88422   0.10838   0.00000  Uiso   1.00
H501   H     0.75918   0.77960   0.39095   0.00000  Uiso   1.00
H502   H     0.90065   0.66971   0.24458   0.00000  Uiso   1.00
H503   H     0.76601   0.99695   0.25540   0.00000  Uiso   1.00
H504   H     0.67136   0.79430   0.21601   0.00000  Uiso   1.00
H505   H     0.99531   0.87235   0.28401   0.00000  Uiso   1.00
H506   H     0.67197   0.90929   0.03248   0.00000  Uiso   1.00
N507   N     0.98344   0.81932   0.23783   0.00000  Uiso   1.00
N508   N     0.68322   0.84735   0.26217   0.00000  Uiso   1.00
N509   N     0.96414   0.92206   0.04081   0.00000  Uiso   1.00
N510   N     0.70471   0.73800   0.46071   0.00000  Uiso   1.00
O511   O     0.79642   0.91286   0.25298   0.00000  Uiso   1.00
O512   O     0.70732   0.74030   0.05297   0.00000  Uiso   1.00
O513   O     0.87025   0.75381   0.24701   0.00000  Uiso   1.00
O514   O     0.89280   0.90387   0.24518   0.00000  Uiso   1.00
O515   O     0.77387   0.76279   0.25481   0.00000  Uiso   1.00
O516   O     0.78514   0.83784   0.31997   0.00000  Uiso   1.00
O517   O     0.88153   0.82883   0.18002   0.00000  Uiso   1.00
O518   O     0.88152   0.82885   0.31217   0.00000  Uiso   1.00
O519   O     0.78515   0.83781   0.18782   0.00000  Uiso   1.00
O520   O     0.96725   0.91581   0.44689   0.00000  Uiso   1.00
Zn521  Zn    0.76898   0.83933   0.25521   0.00000  Uiso   1.00
Zn522  Zn    0.89769   0.82734   0.24479   0.00000  Uiso   1.00
C523   C     0.18192   0.26491   0.74882   0.00000  Uiso   1.00
C524   C     0.21302   0.19114   0.90441   0.00000  Uiso   1.00
C525   C     0.16539   0.16777   0.61582   0.00000  Uiso   1.00
C526   C     0.16857   0.16387   0.88405   0.00000  Uiso   1.00
C527   C     0.20988   0.19515   0.59095   0.00000  Uiso   1.00
C528   C     0.12568   0.13419   0.90863   0.00000  Uiso   1.00
C529   C     0.21204   0.19369   0.54433   0.00000  Uiso   1.00
C530   C     0.12589   0.13221   0.95516   0.00000  Uiso   1.00
C531   C     0.16905   0.16307   0.52310   0.00000  Uiso   1.00
C532   C     0.17008   0.16152   0.97637   0.00000  Uiso   1.00
C533   C     0.12438   0.13480   0.54882   0.00000  Uiso   1.00
C534   C     0.15142   0.06843   0.75117   0.00000  Uiso   1.00
C535   C     0.21447   0.19042   0.95076   0.00000  Uiso   1.00
C536   C     0.25619   0.22215   0.51884   0.00000  Uiso   1.00
C537   C     0.08269   0.10239   0.98098   0.00000  Uiso   1.00
C538   C     0.01377   0.21801   0.93456   0.00000  Uiso   1.00
C539   C     0.06186   0.02465   0.56090   0.00000  Uiso   1.00
C540   C     0.25852   0.21926   0.97183   0.00000  Uiso   1.00
C541   C     0.08294   0.10284   0.52776   0.00000  Uiso   1.00
C542   C     0.18996   0.31939   0.74813   0.00000  Uiso   1.00
C543   C     0.14337   0.01394   0.75185   0.00000  Uiso   1.00
C544   C     0.16724   0.16611   0.83646   0.00000  Uiso   1.00
C545   C     0.16616   0.16723   0.66352   0.00000  Uiso   1.00
C546   C     0.12236   0.13856   0.59539   0.00000  Uiso   1.00
H547   H     0.08859   0.11754   0.61606   0.00000  Uiso   1.00
H548   H     0.29588   0.29318   0.52871   0.00000  Uiso   1.00
H549   H     0.05708   0.04423   0.93868   0.00000  Uiso   1.00
H550   H     0.01411   0.09565   0.94266   0.00000  Uiso   1.00
H551   H     0.00078   0.18524   0.91193   0.00000  Uiso   1.00
H552   H     0.04824   0.24244   0.91589   0.00000  Uiso   1.00
H553   H     0.03245   0.20269   0.96451   0.00000  Uiso   1.00
H554   H     0.10288   0.02843   0.57789   0.00000  Uiso   1.00
H555   H     0.06803   0.00185   0.52904   0.00000  Uiso   1.00
H556   H     0.02979   0.00245   0.58370   0.00000  Uiso   1.00
H557   H     0.24532   0.21406   0.88388   0.00000  Uiso   1.00
H558   H     0.24256   0.21755   0.60838   0.00000  Uiso   1.00
H559   H     0.09252   0.11293   0.89095   0.00000  Uiso   1.00
H560   H     0.23398   0.00304   0.74458   0.00000  Uiso   1.00
H561   H     0.09935   0.33029   0.75540   0.00000  Uiso   1.00
H562   H     0.00469   0.12764   0.71601   0.00000  Uiso   1.00
H563   H     0.32864   0.20568   0.78401   0.00000  Uiso   1.00
H564   H     0.00531   0.24263   0.53248   0.00000  Uiso   1.00
N565   N     0.31678   0.15265   0.73783   0.00000  Uiso   1.00
N566   N     0.01656   0.18068   0.76217   0.00000  Uiso   1.00
N567   N     0.29747   0.25539   0.54081   0.00000  Uiso   1.00
N568   N     0.03804   0.07133   0.96071   0.00000  Uiso   1.00
O569   O     0.12975   0.24619   0.75298   0.00000  Uiso   1.00
O570   O     0.04065   0.07363   0.55297   0.00000  Uiso   1.00
O571   O     0.20358   0.08714   0.74701   0.00000  Uiso   1.00
O572   O     0.22613   0.23721   0.74518   0.00000  Uiso   1.00
O573   O     0.10720   0.09613   0.75481   0.00000  Uiso   1.00
O574   O     0.11847   0.17117   0.81997   0.00000  Uiso   1.00
O575   O     0.21486   0.16216   0.68002   0.00000  Uiso   1.00
O576   O     0.21485   0.16219   0.81217   0.00000  Uiso   1.00
O577   O     0.11848   0.17115   0.68782   0.00000  Uiso   1.00
O578   O     0.30058   0.24915   0.94689   0.00000  Uiso   1.00
Zn579  Zn    0.10231   0.17266   0.75521   0.00000  Uiso   1.00
Zn580  Zn    0.23102   0.16067   0.74479   0.00000  Uiso   1.00
C581   C     0.51525   0.26491   0.74882   0.00000  Uiso   1.00
C582   C     0.54635   0.19114   0.90441   0.00000  Uiso   1.00
C583   C     0.49872   0.16777   0.61582   0.00000  Uiso   1.00
C584   C     0.50190   0.16387   0.88405   0.00000  Uiso   1.00
C585   C     0.54321   0.19515   0.59095   0.00000  Uiso   1.00
C586   C     0.45901   0.13419   0.90863   0.00000  Uiso   1.00
C587   C     0.54537   0.19369   0.54433   0.00000  Uiso   1.00
C588   C     0.45922   0.13221   0.95516   0.00000  Uiso   1.00
C589   C     0.50238   0.16307   0.52310   0.00000  Uiso   1.00
C590   C     0.50341   0.16152   0.97637   0.00000  Uiso   1.00
C591   C     0.45771   0.13480   0.54882   0.00000  Uiso   1.00
C592   C     0.48475   0.06843   0.75117   0.00000  Uiso   1.00
C593   C     0.54780   0.19042   0.95076   0.00000  Uiso   1.00
C594   C     0.58952   0.22215   0.51884   0.00000  Uiso   1.00
C595   C     0.41603   0.10239   0.98098   0.00000  Uiso   1.00
C596   C     0.34710   0.21801   0.93456   0.00000  Uiso   1.00
C597   C     0.39519   0.02465   0.56090   0.00000  Uiso   1.00
C598   C     0.59186   0.21926   0.97183   0.00000  Uiso   1.00
C599   C     0.41628   0.10284   0.52776   0.00000  Uiso   1.00
C600   C     0.52330   0.31939   0.74813   0.00000  Uiso   1.00
C601   C     0.47670   0.01394   0.75185   0.00000  Uiso   1.00
C602   C     0.50057   0.16611   0.83646   0.00000  Uiso   1.00
C603   C     0.49949   0.16723   0.66352   0.00000  Uiso   1.00
C604   C     0.45569   0.13856   0.59539   0.00000  Uiso   1.00
H605   H     0.42192   0.11754   0.61606   0.00000  Uiso   1.00
H606   H     0.62921   0.29318   0.52871   0.00000  Uiso   1.00
H607   H     0.39042   0.04423   0.93868   0.00000  Uiso   1.00
H608   H     0.34745   0.09565   0.94266   0.00000  Uiso   1.00
H609   H     0.33412   0.18524   0.91193   0.00000  Uiso   1.00
H610   H     0.38158   0.24244   0.91589   0.00000  Uiso   1.00
H611   H     0.36578   0.20269   0.96451   0.00000  Uiso   1.00
H612   H     0.43621   0.02843   0.57789   0.00000  Uiso   1.00
H613   H     0.40136   0.00185   0.52904   0.00000  Uiso   1.00
H614   H     0.36312   0.00245   0.58370   0.00000  Uiso   1.00
H615   H     0.57866   0.21406   0.88388   0.00000  Uiso   1.00
H616   H     0.57589   0.21755   0.60838   0.00000  Uiso   1.00
H617   H     0.42585   0.11293   0.89095   0.00000  Uiso   1.00
H618   H     0.56732   0.00304   0.74458   0.00000  Uiso   1.00
H619   H     0.43268   0.33029   0.75540   0.00000  Uiso   1.00
H620   H     0.33803   0.12764   0.71601   0.00000  Uiso   1.00
H621   H     0.66197   0.20568   0.78401   0.00000  Uiso   1.00
H622   H     0.33864   0.24263   0.53248   0.00000  Uiso   1.00
N623   N     0.65011   0.15265   0.73783   0.00000  Uiso   1.00
N624   N     0.34989   0.18068   0.76217   0.00000  Uiso   1.00
N625   N     0.63081   0.25539   0.54081   0.00000  Uiso   1.00
N626   N     0.37137   0.07133   0.96071   0.00000  Uiso   1.00
O627   O     0.46308   0.24619   0.75298   0.00000  Uiso   1.00
O628   O     0.37398   0.07363   0.55297   0.00000  Uiso   1.00
O629   O     0.53692   0.08714   0.74701   0.00000  Uiso   1.00
O630   O     0.55946   0.23721   0.74518   0.00000  Uiso   1.00
O631   O     0.44054   0.09613   0.75481   0.00000  Uiso   1.00
O632   O     0.45181   0.17117   0.81997   0.00000  Uiso   1.00
O633   O     0.54819   0.16216   0.68002   0.00000  Uiso   1.00
O634   O     0.54819   0.16219   0.81217   0.00000  Uiso   1.00
O635   O     0.45181   0.17115   0.68782   0.00000  Uiso   1.00
O636   O     0.63392   0.24915   0.94689   0.00000  Uiso   1.00
Zn637  Zn    0.43565   0.17266   0.75521   0.00000  Uiso   1.00
Zn638  Zn    0.56435   0.16067   0.74479   0.00000  Uiso   1.00
C639   C     0.84858   0.26491   0.74882   0.00000  Uiso   1.00
C640   C     0.87969   0.19114   0.90441   0.00000  Uiso   1.00
C641   C     0.83206   0.16777   0.61582   0.00000  Uiso   1.00
C642   C     0.83524   0.16387   0.88405   0.00000  Uiso   1.00
C643   C     0.87655   0.19515   0.59095   0.00000  Uiso   1.00
C644   C     0.79235   0.13419   0.90863   0.00000  Uiso   1.00
C645   C     0.87871   0.19369   0.54433   0.00000  Uiso   1.00
C646   C     0.79256   0.13221   0.95516   0.00000  Uiso   1.00
C647   C     0.83572   0.16307   0.52310   0.00000  Uiso   1.00
C648   C     0.83674   0.16152   0.97637   0.00000  Uiso   1.00
C649   C     0.79105   0.13480   0.54882   0.00000  Uiso   1.00
C650   C     0.81808   0.06843   0.75117   0.00000  Uiso   1.00
C651   C     0.88114   0.19042   0.95076   0.00000  Uiso   1.00
C652   C     0.92286   0.22215   0.51884   0.00000  Uiso   1.00
C653   C     0.74936   0.10239   0.98098   0.00000  Uiso   1.00
C654   C     0.68043   0.21801   0.93456   0.00000  Uiso   1.00
C655   C     0.72853   0.02465   0.56090   0.00000  Uiso   1.00
C656   C     0.92519   0.21926   0.97183   0.00000  Uiso   1.00
C657   C     0.74961   0.10284   0.52776   0.00000  Uiso   1.00
C658   C     0.85663   0.31939   0.74813   0.00000  Uiso   1.00
C659   C     0.81003   0.01394   0.75185   0.00000  Uiso   1.00
C660   C     0.83390   0.16611   0.83646   0.00000  Uiso   1.00
C661   C     0.83282   0.16723   0.66352   0.00000  Uiso   1.00
C662   C     0.78903   0.13856   0.59539   0.00000  Uiso   1.00
H663   H     0.75526   0.11754   0.61606   0.00000  Uiso   1.00
H664   H     0.96254   0.29318   0.52871   0.00000  Uiso   1.00
H665   H     0.72375   0.04423   0.93868   0.00000  Uiso   1.00
H666   H     0.68078   0.09565   0.94266   0.00000  Uiso   1.00
H667   H     0.66745   0.18524   0.91193   0.00000  Uiso   1.00
H668   H     0.71491   0.24244   0.91589   0.00000  Uiso   1.00
H669   H     0.69912   0.20269   0.96451   0.00000  Uiso   1.00
H670   H     0.76955   0.02843   0.57789   0.00000  Uiso   1.00
H671   H     0.73469   0.00185   0.52904   0.00000  Uiso   1.00
H672   H     0.69646   0.00245   0.58370   0.00000  Uiso   1.00
H673   H     0.91199   0.21406   0.88388   0.00000  Uiso   1.00
H674   H     0.90922   0.21755   0.60838   0.00000  Uiso   1.00
H675   H     0.75918   0.11293   0.89095   0.00000  Uiso   1.00
H676   H     0.90065   0.00304   0.74458   0.00000  Uiso   1.00
H677   H     0.76601   0.33029   0.75540   0.00000  Uiso   1.00
H678   H     0.67136   0.12764   0.71601   0.00000  Uiso   1.00
H679   H     0.99531   0.20568   0.78401   0.00000  Uiso   1.00
H680   H     0.67197   0.24263   0.53248   0.00000  Uiso   1.00
N681   N     0.98344   0.15265   0.73783   0.00000  Uiso   1.00
N682   N     0.68322   0.18068   0.76217   0.00000  Uiso   1.00
N683   N     0.96414   0.25539   0.54081   0.00000  Uiso   1.00
N684   N     0.70471   0.07133   0.96071   0.00000  Uiso   1.00
O685   O     0.79642   0.24619   0.75298   0.00000  Uiso   1.00
O686   O     0.70732   0.07363   0.55297   0.00000  Uiso   1.00
O687   O     0.87025   0.08714   0.74701   0.00000  Uiso   1.00
O688   O     0.89280   0.23721   0.74518   0.00000  Uiso   1.00
O689   O     0.77387   0.09613   0.75481   0.00000  Uiso   1.00
O690   O     0.78514   0.17117   0.81997   0.00000  Uiso   1.00
O691   O     0.88153   0.16216   0.68002   0.00000  Uiso   1.00
O692   O     0.88152   0.16219   0.81217   0.00000  Uiso   1.00
O693   O     0.78515   0.17115   0.68782   0.00000  Uiso   1.00
O694   O     0.96725   0.24915   0.94689   0.00000  Uiso   1.00
Zn695  Zn    0.76898   0.17266   0.75521   0.00000  Uiso   1.00
Zn696  Zn    0.89769   0.16067   0.74479   0.00000  Uiso   1.00
C697   C     0.18192   0.59824   0.74882   0.00000  Uiso   1.00
C698   C     0.21302   0.52447   0.90441   0.00000  Uiso   1.00
C699   C     0.16539   0.50111   0.61582   0.00000  Uiso   1.00
C700   C     0.16857   0.49721   0.88405   0.00000  Uiso   1.00
C701   C     0.20988   0.52849   0.59095   0.00000  Uiso   1.00
C702   C     0.12568   0.46753   0.90863   0.00000  Uiso   1.00
C703   C     0.21204   0.52703   0.54433   0.00000  Uiso   1.00
C704   C     0.12589   0.46554   0.95516   0.00000  Uiso   1.00
C705   C     0.16905   0.49640   0.52310   0.00000  Uiso   1.00
C706   C     0.17008   0.49485   0.97637   0.00000  Uiso   1.00
C707   C     0.12438   0.46813   0.54882   0.00000  Uiso   1.00
C708   C     0.15142   0.40176   0.75117   0.00000  Uiso   1.00
C709   C     0.21447   0.52376   0.95076   0.00000  Uiso   1.00
C710   C     0.25619   0.55549   0.51884   0.00000  Uiso   1.00
C711   C     0.08269   0.43572   0.98098   0.00000  Uiso   1.00
C712   C     0.01377   0.55135   0.93456   0.00000  Uiso   1.00
C713   C     0.06186   0.35798   0.56090   0.00000  Uiso   1.00
C714   C     0.25852   0.55260   0.97183   0.00000  Uiso   1.00
C715   C     0.08294   0.43617   0.52776   0.00000  Uiso   1.00
C716   C     0.18996   0.65272   0.74813   0.00000  Uiso   1.00
C717   C     0.14337   0.34727   0.75185   0.00000  Uiso   1.00
C718   C     0.16724   0.49944   0.83646   0.00000  Uiso   1.00
C719   C     0.16616   0.50056   0.66352   0.00000  Uiso   1.00
C720   C     0.12236   0.47189   0.59539   0.00000  Uiso   1.00
H721   H     0.08859   0.45087   0.61606   0.00000  Uiso   1.00
H722   H     0.29588   0.62651   0.52871   0.00000  Uiso   1.00
H723   H     0.05708   0.37756   0.93868   0.00000  Uiso   1.00
H724   H     0.01411   0.42898   0.94266   0.00000  Uiso   1.00
H725   H     0.00078   0.51857   0.91193   0.00000  Uiso   1.00
H726   H     0.04824   0.57577   0.91589   0.00000  Uiso   1.00
H727   H     0.03245   0.53602   0.96451   0.00000  Uiso   1.00
H728   H     0.10288   0.36177   0.57789   0.00000  Uiso   1.00
H729   H     0.06803   0.33518   0.52904   0.00000  Uiso   1.00
H730   H     0.02979   0.33578   0.58370   0.00000  Uiso   1.00
H731   H     0.24532   0.54740   0.88388   0.00000  Uiso   1.00
H732   H     0.24256   0.55088   0.60838   0.00000  Uiso   1.00
H733   H     0.09252   0.44626   0.89095   0.00000  Uiso   1.00
H734   H     0.23398   0.33638   0.74458   0.00000  Uiso   1.00
H735   H     0.09935   0.66362   0.75540   0.00000  Uiso   1.00
H736   H     0.00469   0.46097   0.71601   0.00000  Uiso   1.00
H737   H     0.32864   0.53901   0.78401   0.00000  Uiso   1.00
H738   H     0.00531   0.57596   0.53248   0.00000  Uiso   1.00
N739   N     0.31678   0.48598   0.73783   0.00000  Uiso   1.00
N740   N     0.01656   0.51402   0.76217   0.00000  Uiso   1.00
N741   N     0.29747   0.58872   0.54081   0.00000  Uiso   1.00
N742   N     0.03804   0.40466   0.96071   0.00000  Uiso   1.00
O743   O     0.12975   0.57952   0.75298   0.00000  Uiso   1.00
O744   O     0.04065   0.40696   0.55297   0.00000  Uiso   1.00
O745   O     0.20358   0.42048   0.74701   0.00000  Uiso   1.00
O746   O     0.22613   0.57054   0.74518   0.00000  Uiso   1.00
O747   O     0.10720   0.42946   0.75481   0.00000  Uiso   1.00
O748   O     0.11847   0.50450   0.81997   0.00000  Uiso   1.00
O749   O     0.21486   0.49550   0.68002   0.00000  Uiso   1.00
O750   O     0.21485   0.49552   0.81217   0.00000  Uiso   1.00
O751   O     0.11848   0.50448   0.68782   0.00000  Uiso   1.00
O752   O     0.30058   0.58248   0.94689   0.00000  Uiso   1.00
Zn753  Zn    0.10231   0.50600   0.75521   0.00000  Uiso   1.00
Zn754  Zn    0.23102   0.49400   0.74479   0.00000  Uiso   1.00
C755   C     0.51525   0.59824   0.74882   0.00000  Uiso   1.00
C756   C     0.54635   0.52447   0.90441   0.00000  Uiso   1.00
C757   C     0.49872   0.50111   0.61582   0.00000  Uiso   1.00
C758   C     0.50190   0.49721   0.88405   0.00000  Uiso   1.00
C759   C     0.54321   0.52849   0.59095   0.00000  Uiso   1.00
C760   C     0.45901   0.46753   0.90863   0.00000  Uiso   1.00
C761   C     0.54537   0.52703   0.54433   0.00000  Uiso   1.00
C762   C     0.45922   0.46554   0.95516   0.00000  Uiso   1.00
C763   C     0.50238   0.49640   0.52310   0.00000  Uiso   1.00
C764   C     0.50341   0.49485   0.97637   0.00000  Uiso   1.00
C765   C     0.45771   0.46813   0.54882   0.00000  Uiso   1.00
C766   C     0.48475   0.40176   0.75117   0.00000  Uiso   1.00
C767   C     0.54780   0.52376   0.95076   0.00000  Uiso   1.00
C768   C     0.58952   0.55549   0.51884   0.00000  Uiso   1.00
C769   C     0.41603   0.43572   0.98098   0.00000  Uiso   1.00
C770   C     0.34710   0.55135   0.93456   0.00000  Uiso   1.00
C771   C     0.39519   0.35798   0.56090   0.00000  Uiso   1.00
C772   C     0.59186   0.55260   0.97183   0.00000  Uiso   1.00
C773   C     0.41628   0.43617   0.52776   0.00000  Uiso   1.00
C774   C     0.52330   0.65272   0.74813   0.00000  Uiso   1.00
C775   C     0.47670   0.34727   0.75185   0.00000  Uiso   1.00
C776   C     0.50057   0.49944   0.83646   0.00000  Uiso   1.00
C777   C     0.49949   0.50056   0.66352   0.00000  Uiso   1.00
C778   C     0.45569   0.47189   0.59539   0.00000  Uiso   1.00
H779   H     0.42192   0.45087   0.61606   0.00000  Uiso   1.00
H780   H     0.62921   0.62651   0.52871   0.00000  Uiso   1.00
H781   H     0.39042   0.37756   0.93868   0.00000  Uiso   1.00
H782   H     0.34745   0.42898   0.94266   0.00000  Uiso   1.00
H783   H     0.33412   0.51857   0.91193   0.00000  Uiso   1.00
H784   H     0.38158   0.57577   0.91589   0.00000  Uiso   1.00
H785   H     0.36578   0.53602   0.96451   0.00000  Uiso   1.00
H786   H     0.43621   0.36177   0.57789   0.00000  Uiso   1.00
H787   H     0.40136   0.33518   0.52904   0.00000  Uiso   1.00
H788   H     0.36312   0.33578   0.58370   0.00000  Uiso   1.00
H789   H     0.57866   0.54740   0.88388   0.00000  Uiso   1.00
H790   H     0.57589   0.55088   0.60838   0.00000  Uiso   1.00
H791   H     0.42585   0.44626   0.89095   0.00000  Uiso   1.00
H792   H     0.56732   0.33638   0.74458   0.00000  Uiso   1.00
H793   H     0.43268   0.66362   0.75540   0.00000  Uiso   1.00
H794   H     0.33803   0.46097   0.71601   0.00000  Uiso   1.00
H795   H     0.66197   0.53901   0.78401   0.00000  Uiso   1.00
H796   H     0.33864   0.57596   0.53248   0.00000  Uiso   1.00
N797   N     0.65011   0.48598   0.73783   0.00000  Uiso   1.00
N798   N     0.34989   0.51402   0.76217   0.00000  Uiso   1.00
N799   N     0.63081   0.58872   0.54081   0.00000  Uiso   1.00
N800   N     0.37137   0.40466   0.96071   0.00000  Uiso   1.00
O801   O     0.46308   0.57952   0.75298   0.00000  Uiso   1.00
O802   O     0.37398   0.40696   0.55297   0.00000  Uiso   1.00
O803   O     0.53692   0.42048   0.74701   0.00000  Uiso   1.00
O804   O     0.55946   0.57054   0.74518   0.00000  Uiso   1.00
O805   O     0.44054   0.42946   0.75481   0.00000  Uiso   1.00
O806   O     0.45181   0.50450   0.81997   0.00000  Uiso   1.00
O807   O     0.54819   0.49550   0.68002   0.00000  Uiso   1.00
O808   O     0.54819   0.49552   0.81217   0.00000  Uiso   1.00
O809   O     0.45181   0.50448   0.68782   0.00000  Uiso   1.00
O810   O     0.63392   0.58248   0.94689   0.00000  Uiso   1.00
Zn811  Zn    0.43565   0.50600   0.75521   0.00000  Uiso   1.00
Zn812  Zn    0.56435   0.49400   0.74479   0.00000  Uiso   1.00
C813   C     0.84858   0.59824   0.74882   0.00000  Uiso   1.00
C814   C     0.87969   0.52447   0.90441   0.00000  Uiso   1.00
C815   C     0.83206   0.50111   0.61582   0.00000  Uiso   1.00
C816   C     0.83524   0.49721   0.88405   0.00000  Uiso   1.00
C817   C     0.87655   0.52849   0.59095   0.00000  Uiso   1.00
C818   C     0.79235   0.46753   0.90863   0.00000  Uiso   1.00
C819   C     0.87871   0.52703   0.54433   0.00000  Uiso   1.00
C820   C     0.79256   0.46554   0.95516   0.00000  Uiso   1.00
C821   C     0.83572   0.49640   0.52310   0.00000  Uiso   1.00
C822   C     0.83674   0.49485   0.97637   0.00000  Uiso   1.00
C823   C     0.79105   0.46813   0.54882   0.00000  Uiso   1.00
C824   C     0.81808   0.40176   0.75117   0.00000  Uiso   1.00
C825   C     0.88114   0.52376   0.95076   0.00000  Uiso   1.00
C826   C     0.92286   0.55549   0.51884   0.00000  Uiso   1.00
C827   C     0.74936   0.43572   0.98098   0.00000  Uiso   1.00
C828   C     0.68043   0.55135   0.93456   0.00000  Uiso   1.00
C829   C     0.72853   0.35798   0.56090   0.00000  Uiso   1.00
C830   C     0.92519   0.55260   0.97183   0.00000  Uiso   1.00
C831   C     0.74961   0.43617   0.52776   0.00000  Uiso   1.00
C832   C     0.85663   0.65272   0.74813   0.00000  Uiso   1.00
C833   C     0.81003   0.34727   0.75185   0.00000  Uiso   1.00
C834   C     0.83390   0.49944   0.83646   0.00000  Uiso   1.00
C835   C     0.83282   0.50056   0.66352   0.00000  Uiso   1.00
C836   C     0.78903   0.47189   0.59539   0.00000  Uiso   1.00
H837   H     0.75526   0.45087   0.61606   0.00000  Uiso   1.00
H838   H     0.96254   0.62651   0.52871   0.00000  Uiso   1.00
H839   H     0.72375   0.37756   0.93868   0.00000  Uiso   1.00
H840   H     0.68078   0.42898   0.94266   0.00000  Uiso   1.00
H841   H     0.66745   0.51857   0.91193   0.00000  Uiso   1.00
H842   H     0.71491   0.57577   0.91589   0.00000  Uiso   1.00
H843   H     0.69912   0.53602   0.96451   0.00000  Uiso   1.00
H844   H     0.76955   0.36177   0.57789   0.00000  Uiso   1.00
H845   H     0.73469   0.33518   0.52904   0.00000  Uiso   1.00
H846   H     0.69646   0.33578   0.58370   0.00000  Uiso   1.00
H847   H     0.91199   0.54740   0.88388   0.00000  Uiso   1.00
H848   H     0.90922   0.55088   0.60838   0.00000  Uiso   1.00
H849   H     0.75918   0.44626   0.89095   0.00000  Uiso   1.00
H850   H     0.90065   0.33638   0.74458   0.00000  Uiso   1.00
H851   H     0.76601   0.66362   0.75540   0.00000  Uiso   1.00
H852   H     0.67136   0.46097   0.71601   0.00000  Uiso   1.00
H853   H     0.99531   0.53901   0.78401   0.00000  Uiso   1.00
H854   H     0.67197   0.57596   0.53248   0.00000  Uiso   1.00
N855   N     0.98344   0.48598   0.73783   0.00000  Uiso   1.00
N856   N     0.68322   0.51402   0.76217   0.00000  Uiso   1.00
N857   N     0.96414   0.58872   0.54081   0.00000  Uiso   1.00
N858   N     0.70471   0.40466   0.96071   0.00000  Uiso   1.00
O859   O     0.79642   0.57952   0.75298   0.00000  Uiso   1.00
O860   O     0.70732   0.40696   0.55297   0.00000  Uiso   1.00
O861   O     0.87025   0.42048   0.74701   0.00000  Uiso   1.00
O862   O     0.89280   0.57054   0.74518   0.00000  Uiso   1.00
O863   O     0.77387   0.42946   0.75481   0.00000  Uiso   1.00
O864   O     0.78514   0.50450   0.81997   0.00000  Uiso   1.00
O865   O     0.88153   0.49550   0.68002   0.00000  Uiso   1.00
O866   O     0.88152   0.49552   0.81217   0.00000  Uiso   1.00
O867   O     0.78515   0.50448   0.68782   0.00000  Uiso   1.00
O868   O     0.96725   0.58248   0.94689   0.00000  Uiso   1.00
Zn869  Zn    0.76898   0.50600   0.75521   0.00000  Uiso   1.00
Zn870  Zn    0.89769   0.49400   0.74479   0.00000  Uiso   1.00
C871   C     0.18192   0.93157   0.74882   0.00000  Uiso   1.00
C872   C     0.21302   0.85781   0.90441   0.00000  Uiso   1.00
C873   C     0.16539   0.83444   0.61582   0.00000  Uiso   1.00
C874   C     0.16857   0.83054   0.88405   0.00000  Uiso   1.00
C875   C     0.20988   0.86182   0.59095   0.00000  Uiso   1.00
C876   C     0.12568   0.80086   0.90863   0.00000  Uiso   1.00
C877   C     0.21204   0.86036   0.54433   0.00000  Uiso   1.00
C878   C     0.12589   0.79888   0.95516   0.00000  Uiso   1.00
C879   C     0.16905   0.82974   0.52310   0.00000  Uiso   1.00
C880   C     0.17008   0.82819   0.97637   0.00000  Uiso   1.00
C881   C     0.12438   0.80146   0.54882   0.00000  Uiso   1.00
C882   C     0.15142   0.73509   0.75117   0.00000  Uiso   1.00
C883   C     0.21447   0.85709   0.95076   0.00000  Uiso   1.00
C884   C     0.25619   0.88882   0.51884   0.00000  Uiso   1.00
C885   C     0.08269   0.76905   0.98098   0.00000  Uiso   1.00
C886   C     0.01377   0.88468   0.93456   0.00000  Uiso   1.00
C887   C     0.06186   0.69132   0.56090   0.00000  Uiso   1.00
C888   C     0.25852   0.88593   0.97183   0.00000  Uiso   1.00
C889   C     0.08294   0.76950   0.52776   0.00000  Uiso   1.00
C890   C     0.18996   0.98606   0.74813   0.00000  Uiso   1.00
C891   C     0.14337   0.68061   0.75185   0.00000  Uiso   1.00
C892   C     0.16724   0.83278   0.83646   0.00000  Uiso   1.00
C893   C     0.16616   0.83389   0.66352   0.00000  Uiso   1.00
C894   C     0.12236   0.80522   0.59539   0.00000  Uiso   1.00
H895   H     0.08859   0.78420   0.61606   0.00000  Uiso   1.00
H896   H     0.29588   0.95984   0.52871   0.00000  Uiso   1.00
H897   H     0.05708   0.71090   0.93868   0.00000  Uiso   1.00
H898   H     0.01411   0.76232   0.94266   0.00000  Uiso   1.00
H899   H     0.00078   0.85191   0.91193   0.00000  Uiso   1.00
H900   H     0.04824   0.90910   0.91589   0.00000  Uiso   1.00
H901   H     0.03245   0.86936   0.96451   0.00000  Uiso   1.00
H902   H     0.10288   0.69510   0.57789   0.00000  Uiso   1.00
H903   H     0.06803   0.66852   0.52904   0.00000  Uiso   1.00
H904   H     0.02979   0.66912   0.58370   0.00000  Uiso   1.00
H905   H     0.24532   0.88073   0.88388   0.00000  Uiso   1.00
H906   H     0.24256   0.88422   0.60838   0.00000  Uiso   1.00
H907   H     0.09252   0.77960   0.89095   0.00000  Uiso   1.00
H908   H     0.23398   0.66971   0.74458   0.00000  Uiso   1.00
H909   H     0.09935   0.99695   0.75540   0.00000  Uiso   1.00
H910   H     0.00469   0.79430   0.71601   0.00000  Uiso   1.00
H911   H     0.32864   0.87235   0.78401   0.00000  Uiso   1.00
H912   H     0.00531   0.90929   0.53248   0.00000  Uiso   1.00
N913   N     0.31678   0.81932   0.73783   0.00000  Uiso   1.00
N914   N     0.01656   0.84735   0.76217   0.00000  Uiso   1.00
N915   N     0.29747   0.92206   0.54081   0.00000  Uiso   1.00
N916   N     0.03804   0.73800   0.96071   0.00000  Uiso   1.00
O917   O     0.12975   0.91286   0.75298   0.00000  Uiso   1.00
O918   O     0.04065   0.74030   0.55297   0.00000  Uiso   1.00
O919   O     0.20358   0.75381   0.74701   0.00000  Uiso   1.00
O920   O     0.22613   0.90387   0.74518   0.00000  Uiso   1.00
O921   O     0.10720   0.76279   0.75481   0.00000  Uiso   1.00
O922   O     0.11847   0.83784   0.81997   0.00000  Uiso   1.00
O923   O     0.21486   0.82883   0.68002   0.00000  Uiso   1.00
O924   O     0.21485   0.82885   0.81217   0.00000  Uiso   1.00
O925   O     0.11848   0.83781   0.68782   0.00000  Uiso   1.00
O926   O     0.30058   0.91581   0.94689   0.00000  Uiso   1.00
Zn927  Zn    0.10231   0.83933   0.75521   0.00000  Uiso   1.00
Zn928  Zn    0.23102   0.82734   0.74479   0.00000  Uiso   1.00
C929   C     0.51525   0.93157   0.74882   0.00000  Uiso   1.00
C930   C     0.54635   0.85781   0.90441   0.00000  Uiso   1.00
C931   C     0.49872   0.83444   0.61582   0.00000  Uiso   1.00
C932   C     0.50190   0.83054   0.88405   0.00000  Uiso   1.00
C933   C     0.54321   0.86182   0.59095   0.00000  Uiso   1.00
C934   C     0.45901   0.80086   0.90863   0.00000  Uiso   1.00
C935   C     0.54537   0.86036   0.54433   0.00000  Uiso   1.00
C936   C     0.45922   0.79888   0.95516   0.00000  Uiso   1.00
C937   C     0.50238   0.82974   0.52310   0.00000  Uiso   1.00
C938   C     0.50341   0.82819   0.97637   0.00000  Uiso   1.00
C939   C     0.45771   0.80146   0.54882   0.00000  Uiso   1.00
C940   C     0.48475   0.73509   0.75117   0.00000  Uiso   1.00
C941   C     0.54780   0.85709   0.95076   0.00000  Uiso   1.00
C942   C     0.58952   0.88882   0.51884   0.00000  Uiso   1.00
C943   C     0.41603   0.76905   0.98098   0.00000  Uiso   1.00
C944   C     0.34710   0.88468   0.93456   0.00000  Uiso   1.00
C945   C     0.39519   0.69132   0.56090   0.00000  Uiso   1.00
C946   C     0.59186   0.88593   0.97183   0.00000  Uiso   1.00
C947   C     0.41628   0.76950   0.52776   0.00000  Uiso   1.00
C948   C     0.52330   0.98606   0.74813   0.00000  Uiso   1.00
C949   C     0.47670   0.68061   0.75185   0.00000  Uiso   1.00
C950   C     0.50057   0.83278   0.83646   0.00000  Uiso   1.00
C951   C     0.49949   0.83389   0.66352   0.00000  Uiso   1.00
C952   C     0.45569   0.80522   0.59539   0.00000  Uiso   1.00
H953   H     0.42192   0.78420   0.61606   0.00000  Uiso   1.00
H954   H     0.62921   0.95984   0.52871   0.00000  Uiso   1.00
H955   H     0.39042   0.71090   0.93868   0.00000  Uiso   1.00
H956   H     0.34745   0.76232   0.94266   0.00000  Uiso   1.00
H957   H     0.33412   0.85191   0.91193   0.00000  Uiso   1.00
H958   H     0.38158   0.90910   0.91589   0.00000  Uiso   1.00
H959   H     0.36578   0.86936   0.96451   0.00000  Uiso   1.00
H960   H     0.43621   0.69510   0.57789   0.00000  Uiso   1.00
H961   H     0.40136   0.66852   0.52904   0.00000  Uiso   1.00
H962   H     0.36312   0.66912   0.58370   0.00000  Uiso   1.00
H963   H     0.57866   0.88073   0.88388   0.00000  Uiso   1.00
H964   H     0.57589   0.88422   0.60838   0.00000  Uiso   1.00
H965   H     0.42585   0.77960   0.89095   0.00000  Uiso   1.00
H966   H     0.56732   0.66971   0.74458   0.00000  Uiso   1.00
H967   H     0.43268   0.99695   0.75540   0.00000  Uiso   1.00
H968   H     0.33803   0.79430   0.71601   0.00000  Uiso   1.00
H969   H     0.66197   0.87235   0.78401   0.00000  Uiso   1.00
H970   H     0.33864   0.90929   0.53248   0.00000  Uiso   1.00
N971   N     0.65011   0.81932   0.73783   0.00000  Uiso   1.00
N972   N     0.34989   0.84735   0.76217   0.00000  Uiso   1.00
N973   N     0.63081   0.92206   0.54081   0.00000  Uiso   1.00
N974   N     0.37137   0.73800   0.96071   0.00000  Uiso   1.00
O975   O     0.46308   0.91286   0.75298   0.00000  Uiso   1.00
O976   O     0.37398   0.74030   0.55297   0.00000  Uiso   1.00
O977   O     0.53692   0.75381   0.74701   0.00000  Uiso   1.00
O978   O     0.55946   0.90387   0.74518   0.00000  Uiso   1.00
O979   O     0.44054   0.76279   0.75481   0.00000  Uiso   1.00
O980   O     0.45181   0.83784   0.81997   0.00000  Uiso   1.00
O981   O     0.54819   0.82883   0.68002   0.00000  Uiso   1.00
O982   O     0.54819   0.82885   0.81217   0.00000  Uiso   1.00
O983   O     0.45181   0.83781   0.68782   0.00000  Uiso   1.00
O984   O     0.63392   0.91581   0.94689   0.00000  Uiso   1.00
Zn985  Zn    0.43565   0.83933   0.75521   0.00000  Uiso   1.00
Zn986  Zn    0.56435   0.82734   0.74479   0.00000  Uiso   1.00
C987   C     0.84858   0.93157   0.74882   0.00000  Uiso   1.00
C988   C     0.87969   0.85781   0.90441   0.00000  Uiso   1.00
C989   C     0.83206   0.83444   0.61582   0.00000  Uiso   1.00
C990   C     0.83524   0.83054   0.88405   0.00000  Uiso   1.00
C991   C     0.87655   0.86182   0.59095   0.00000  Uiso   1.00
C992   C     0.79235   0.80086   0.90863   0.00000  Uiso   1.00
C993   C     0.87871   0.86036   0.54433   0.00000  Uiso   1.00
C994   C     0.79256   0.79888   0.95516   0.00000  Uiso   1.00
C995   C     0.83572   0.82974   0.52310   0.00000  Uiso   1.00
C996   C     0.83674   0.82819   0.97637   0.00000  Uiso   1.00
C997   C     0.79105   0.80146   0.54882   0.00000  Uiso   1.00
C998   C     0.81808   0.73509   0.75117   0.00000  Uiso   1.00
C999   C     0.88114   0.85709   0.95076   0.00000  Uiso   1.00
C1000  C     0.92286   0.88882   0.51884   0.00000  Uiso   1.00
C1001  C     0.74936   0.76905   0.98098   0.00000  Uiso   1.00
C1002  C     0.68043   0.88468   0.93456   0.00000  Uiso   1.00
C1003  C     0.72853   0.69132   0.56090   0.00000  Uiso   1.00
C1004  C     0.92519   0.88593   0.97183   0.00000  Uiso   1.00
C1005  C     0.74961   0.76950   0.52776   0.00000  Uiso   1.00
C1006  C     0.85663   0.98606   0.74813   0.00000  Uiso   1.00
C1007  C     0.81003   0.68061   0.75185   0.00000  Uiso   1.00
C1008  C     0.83390   0.83278   0.83646   0.00000  Uiso   1.00
C1009  C     0.83282   0.83389   0.66352   0.00000  Uiso   1.00
C1010  C     0.78903   0.80522   0.59539   0.00000  Uiso   1.00
H1011  H     0.75526   0.78420   0.61606   0.00000  Uiso   1.00
H1012  H     0.96254   0.95984   0.52871   0.00000  Uiso   1.00
H1013  H     0.72375   0.71090   0.93868   0.00000  Uiso   1.00
H1014  H     0.68078   0.76232   0.94266   0.00000  Uiso   1.00
H1015  H     0.66745   0.85191   0.91193   0.00000  Uiso   1.00
H1016  H     0.71491   0.90910   0.91589   0.00000  Uiso   1.00
H1017  H     0.69912   0.86936   0.96451   0.00000  Uiso   1.00
H1018  H     0.76955   0.69510   0.57789   0.00000  Uiso   1.00
H1019  H     0.73469   0.66852   0.52904   0.00000  Uiso   1.00
H1020  H     0.69646   0.66912   0.58370   0.00000  Uiso   1.00
H1021  H     0.91199   0.88073   0.88388   0.00000  Uiso   1.00
H1022  H     0.90922   0.88422   0.60838   0.00000  Uiso   1.00
H1023  H     0.75918   0.77960   0.89095   0.00000  Uiso   1.00
H1024  H     0.90065   0.66971   0.74458   0.00000  Uiso   1.00
H1025  H     0.76601   0.99695   0.75540   0.00000  Uiso   1.00
H1026  H     0.67136   0.79430   0.71601   0.00000  Uiso   1.00
H1027  H     0.99531   0.87235   0.78401   0.00000  Uiso   1.00
H1028  H     0.67197   0.90929   0.53248   0.00000  Uiso   1.00
N1029  N     0.98344   0.81932   0.73783   0.00000  Uiso   1.00
N1030  N     0.68322   0.84735   0.76217   0.00000  Uiso   1.00
N1031  N     0.96414   0.92206   0.54081   0.00000  Uiso   1.00
N1032  N     0.70471   0.73800   0.96071   0.00000  Uiso   1.00
O1033  O     0.79642   0.91286   0.75298   0.00000  Uiso   1.00
O1034  O     0.70732   0.74030   0.55297   0.00000  Uiso   1.00
O1035  O     0.87025   0.75381   0.74701   0.00000  Uiso   1.00
O1036  O     0.89280   0.90387   0.74518   0.00000  Uiso   1.00
O1037  O     0.77387   0.76279   0.75481   0.00000  Uiso   1.00
O1038  O     0.78514   0.83784   0.81997   0.00000  Uiso   1.00
O1039  O     0.88153   0.82883   0.68002   0.00000  Uiso   1.00
O1040  O     0.88152   0.82885   0.81217   0.00000  Uiso   1.00
O1041  O     0.78515   0.83781   0.68782   0.00000  Uiso   1.00
O1042  O     0.96725   0.91581   0.94689   0.00000  Uiso   1.00
Zn1043 Zn    0.76898   0.83933   0.75521   0.00000  Uiso   1.00
Zn1044 Zn    0.89769   0.82734   0.74479   0.00000  Uiso   1.00
loop_
_geom_bond_atom_site_label_1
_geom_bond_atom_site_label_2
_geom_bond_distance
_geom_bond_site_symmetry_2
_ccdc_geom_bond_type
C1     O50     1.286   .     A
C1     O47     1.277   .     A
C1     C20     1.402   .     S
C2     H35     1.084   .     S
C2     C4      1.387   .     A
C2     C13     1.385   .     A
C3     C23     1.424   .     S
C3     C24     1.387   .     A
C3     C5      1.389   .     A
C4     C6      1.390   .     A
C4     C22     1.424   .     S
C5     C7      1.388   .     A
C5     H36     1.085   .     S
C6     H37     1.083   .     S
C6     C8      1.390   .     A
C7     C9      1.416   .     A
C7     C14     1.406   .     A
C8     C10     1.419   .     A
C8     C15     1.414   .     A
C9     C11     1.415   .     A
C9     C532    1.392   1_554 S
C10    C13     1.417   .     A
C10    C531    1.392   .     S
C11    C19     1.406   .     A
C11    C24     1.388   .     A
C12    O49     1.277   .     A
C12    O51     1.286   .     A
C12    C21     1.402   .     S
C13    C18     1.409   .     A
C14    N45     1.435   .     S
C14    C540    1.400   1_554 S
C15    N46     1.435   .     S
C15    C541    1.395   .     S
C16    H31     1.111   .     S
C16    H30     1.109   .     S
C16    H29     1.112   .     S
C16    O172    1.411   1_455 S
C17    O48     1.411   .     S
C17    H33     1.113   .     S
C17    H32     1.114   .     S
C17    H34     1.109   .     S
C18    O56     1.385   .     S
C18    C536    1.400   .     S
C19    O48     1.384   .     S
C19    C537    1.395   1_554 S
C20    C195    1.335   .     S
C20    H212    1.088   .     S
C21    C368    1.335   1_545 S
C21    H387    1.088   1_545 S
C22    O54     1.287   .     A
C22    O52     1.287   .     A
C23    O55     1.289   .     A
C23    O53     1.286   .     A
C24    H25     1.085   .     S
H26    N45     1.045   .     S
H27    N46     1.045   .     S
H28    N46     1.045   .     S
H38    C368    1.088   1_545 S
H39    C195    1.088   .     S
H40    N159    1.029   1_455 S
H41    N102    1.029   .     S
H42    N161    1.044   1_455 S
N43    Zn58    2.017   .     S
N43    H98     1.029   .     S
N43    N102    1.280   .     S
N44    Zn57    2.017   .     S
N44    N159    1.280   1_455 S
N44    H157    1.029   1_455 S
N45    H100    1.044   .     S
O47    Zn57    1.957   .     S
O49    Zn58    1.957   .     S
O50    Zn58    1.978   .     S
O51    Zn57    1.978   .     S
O52    Zn57    1.997   .     S
O53    Zn58    1.997   .     S
O54    Zn58    2.017   .     S
O55    Zn57    2.017   .     S
O56    C74     1.411   .     S
C59    O108    1.286   .     A
C59    O105    1.277   .     A
C59    C78     1.402   .     S
C60    H93     1.084   .     S
C60    C62     1.387   .     A
C60    C71     1.385   .     A
C61    C81     1.424   .     S
C61    C82     1.387   .     A
C61    C63     1.389   .     A
C62    C64     1.390   .     A
C62    C80     1.424   .     S
C63    C65     1.388   .     A
C63    H94     1.085   .     S
C64    H95     1.083   .     S
C64    C66     1.390   .     A
C65    C67     1.416   .     A
C65    C72     1.406   .     A
C66    C68     1.419   .     A
C66    C73     1.414   .     A
C67    C69     1.415   .     A
C67    C590    1.392   1_554 S
C68    C71     1.417   .     A
C68    C589    1.392   .     S
C69    C77     1.406   .     A
C69    C82     1.388   .     A
C70    O107    1.277   .     A
C70    O109    1.286   .     A
C70    C79     1.402   .     S
C71    C76     1.409   .     A
C72    N103    1.435   .     S
C72    C598    1.400   1_554 S
C73    N104    1.435   .     S
C73    C599    1.395   .     S
C74    H89     1.111   .     S
C74    H88     1.109   .     S
C74    H87     1.112   .     S
C75    O106    1.411   .     S
C75    H91     1.113   .     S
C75    H90     1.114   .     S
C75    H92     1.109   .     S
C76    O114    1.385   .     S
C76    C594    1.400   .     S
C77    O106    1.384   .     S
C77    C595    1.395   1_554 S
C78    C253    1.335   .     S
C78    H270    1.088   .     S
C79    C426    1.335   1_545 S
C79    H445    1.088   1_545 S
C80    O112    1.287   .     A
C80    O110    1.287   .     A
C81    O113    1.289   .     A
C81    O111    1.286   .     A
C82    H83     1.085   .     S
H84    N103    1.045   .     S
H85    N104    1.045   .     S
H86    N104    1.045   .     S
H96    C426    1.088   1_545 S
H97    C253    1.088   .     S
H99    N160    1.029   .     S
N101   Zn116   2.017   .     S
N101   H156    1.029   .     S
N101   N160    1.280   .     S
N102   Zn115   2.017   .     S
N103   H158    1.044   .     S
O105   Zn115   1.957   .     S
O107   Zn116   1.957   .     S
O108   Zn116   1.978   .     S
O109   Zn115   1.978   .     S
O110   Zn115   1.997   .     S
O111   Zn116   1.997   .     S
O112   Zn116   2.017   .     S
O113   Zn115   2.017   .     S
O114   C132    1.411   .     S
C117   O166    1.286   .     A
C117   O163    1.277   .     A
C117   C136    1.402   .     S
C118   H151    1.084   .     S
C118   C120    1.387   .     A
C118   C129    1.385   .     A
C119   C139    1.424   .     S
C119   C140    1.387   .     A
C119   C121    1.389   .     A
C120   C122    1.390   .     A
C120   C138    1.424   .     S
C121   C123    1.388   .     A
C121   H152    1.085   .     S
C122   H153    1.083   .     S
C122   C124    1.390   .     A
C123   C125    1.416   .     A
C123   C130    1.406   .     A
C124   C126    1.419   .     A
C124   C131    1.414   .     A
C125   C127    1.415   .     A
C125   C648    1.392   1_554 S
C126   C129    1.417   .     A
C126   C647    1.392   .     S
C127   C135    1.406   .     A
C127   C140    1.388   .     A
C128   O165    1.277   .     A
C128   O167    1.286   .     A
C128   C137    1.402   .     S
C129   C134    1.409   .     A
C130   N161    1.435   .     S
C130   C656    1.400   1_554 S
C131   N162    1.435   .     S
C131   C657    1.395   .     S
C132   H147    1.111   .     S
C132   H146    1.109   .     S
C132   H145    1.112   .     S
C133   O164    1.411   .     S
C133   H149    1.113   .     S
C133   H148    1.114   .     S
C133   H150    1.109   .     S
C134   O172    1.385   .     S
C134   C652    1.400   .     S
C135   O164    1.384   .     S
C135   C653    1.395   1_554 S
C136   C311    1.335   .     S
C136   H328    1.088   .     S
C137   C484    1.335   1_545 S
C137   H503    1.088   1_545 S
C138   O170    1.287   .     A
C138   O168    1.287   .     A
C139   O171    1.289   .     A
C139   O169    1.286   .     A
C140   H141    1.085   .     S
H142   N161    1.045   .     S
H143   N162    1.045   .     S
H144   N162    1.045   .     S
H154   C484    1.088   1_545 S
H155   C311    1.088   .     S
H157   N44     1.029   1_655 S
N159   Zn174   2.017   .     S
N159   H40     1.029   1_655 S
N159   N44     1.280   1_655 S
N160   Zn173   2.017   .     S
N161   H42     1.044   1_655 S
O163   Zn173   1.957   .     S
O165   Zn174   1.957   .     S
O166   Zn174   1.978   .     S
O167   Zn173   1.978   .     S
O168   Zn173   1.997   .     S
O169   Zn174   1.997   .     S
O170   Zn174   2.017   .     S
O171   Zn173   2.017   .     S
O172   C16     1.411   1_655 S
C175   O224    1.286   .     A
C175   O221    1.277   .     A
C175   C194    1.402   .     S
C176   H209    1.084   .     S
C176   C178    1.387   .     A
C176   C187    1.385   .     A
C177   C197    1.424   .     S
C177   C198    1.387   .     A
C177   C179    1.389   .     A
C178   C180    1.390   .     A
C178   C196    1.424   .     S
C179   C181    1.388   .     A
C179   H210    1.085   .     S
C180   H211    1.083   .     S
C180   C182    1.390   .     A
C181   C183    1.416   .     A
C181   C188    1.406   .     A
C182   C184    1.419   .     A
C182   C189    1.414   .     A
C183   C185    1.415   .     A
C183   C706    1.392   1_554 S
C184   C187    1.417   .     A
C184   C705    1.392   .     S
C185   C193    1.406   .     A
C185   C198    1.388   .     A
C186   O223    1.277   .     A
C186   O225    1.286   .     A
C186   C195    1.402   .     S
C187   C192    1.409   .     A
C188   N219    1.435   .     S
C188   C714    1.400   1_554 S
C189   N220    1.435   .     S
C189   C715    1.395   .     S
C190   H205    1.111   .     S
C190   H204    1.109   .     S
C190   H203    1.112   .     S
C190   O346    1.411   1_455 S
C191   O222    1.411   .     S
C191   H207    1.113   .     S
C191   H206    1.114   .     S
C191   H208    1.109   .     S
C192   O230    1.385   .     S
C192   C710    1.400   .     S
C193   O222    1.384   .     S
C193   C711    1.395   1_554 S
C194   C369    1.335   .     S
C194   H386    1.088   .     S
C196   O228    1.287   .     A
C196   O226    1.287   .     A
C197   O229    1.289   .     A
C197   O227    1.286   .     A
C198   H199    1.085   .     S
H200   N219    1.045   .     S
H201   N220    1.045   .     S
H202   N220    1.045   .     S
H213   C369    1.088   .     S
H214   N333    1.029   1_455 S
H215   N276    1.029   .     S
H216   N335    1.044   1_455 S
N217   Zn232   2.017   .     S
N217   H272    1.029   .     S
N217   N276    1.280   .     S
N218   Zn231   2.017   .     S
N218   N333    1.280   1_455 S
N218   H331    1.029   1_455 S
N219   H274    1.044   .     S
O221   Zn231   1.957   .     S
O223   Zn232   1.957   .     S
O224   Zn232   1.978   .     S
O225   Zn231   1.978   .     S
O226   Zn231   1.997   .     S
O227   Zn232   1.997   .     S
O228   Zn232   2.017   .     S
O229   Zn231   2.017   .     S
O230   C248    1.411   .     S
C233   O282    1.286   .     A
C233   O279    1.277   .     A
C233   C252    1.402   .     S
C234   H267    1.084   .     S
C234   C236    1.387   .     A
C234   C245    1.385   .     A
C235   C255    1.424   .     S
C235   C256    1.387   .     A
C235   C237    1.389   .     A
C236   C238    1.390   .     A
C236   C254    1.424   .     S
C237   C239    1.388   .     A
C237   H268    1.085   .     S
C238   H269    1.083   .     S
C238   C240    1.390   .     A
C239   C241    1.416   .     A
C239   C246    1.406   .     A
C240   C242    1.419   .     A
C240   C247    1.414   .     A
C241   C243    1.415   .     A
C241   C764    1.392   1_554 S
C242   C245    1.417   .     A
C242   C763    1.392   .     S
C243   C251    1.406   .     A
C243   C256    1.388   .     A
C244   O281    1.277   .     A
C244   O283    1.286   .     A
C244   C253    1.402   .     S
C245   C250    1.409   .     A
C246   N277    1.435   .     S
C246   C772    1.400   1_554 S
C247   N278    1.435   .     S
C247   C773    1.395   .     S
C248   H263    1.111   .     S
C248   H262    1.109   .     S
C248   H261    1.112   .     S
C249   O280    1.411   .     S
C249   H265    1.113   .     S
C249   H264    1.114   .     S
C249   H266    1.109   .     S
C250   O288    1.385   .     S
C250   C768    1.400   .     S
C251   O280    1.384   .     S
C251   C769    1.395   1_554 S
C252   C427    1.335   .     S
C252   H444    1.088   .     S
C254   O286    1.287   .     A
C254   O284    1.287   .     A
C255   O287    1.289   .     A
C255   O285    1.286   .     A
C256   H257    1.085   .     S
H258   N277    1.045   .     S
H259   N278    1.045   .     S
H260   N278    1.045   .     S
H271   C427    1.088   .     S
H273   N334    1.029   .     S
N275   Zn290   2.017   .     S
N275   H330    1.029   .     S
N275   N334    1.280   .     S
N276   Zn289   2.017   .     S
N277   H332    1.044   .     S
O279   Zn289   1.957   .     S
O281   Zn290   1.957   .     S
O282   Zn290   1.978   .     S
O283   Zn289   1.978   .     S
O284   Zn289   1.997   .     S
O285   Zn290   1.997   .     S
O286   Zn290   2.017   .     S
O287   Zn289   2.017   .     S
O288   C306    1.411   .     S
C291   O340    1.286   .     A
C291   O337    1.277   .     A
C291   C310    1.402   .     S
C292   H325    1.084   .     S
C292   C294    1.387   .     A
C292   C303    1.385   .     A
C293   C313    1.424   .     S
C293   C314    1.387   .     A
C293   C295    1.389   .     A
C294   C296    1.390   .     A
C294   C312    1.424   .     S
C295   C297    1.388   .     A
C295   H326    1.085   .     S
C296   H327    1.083   .     S
C296   C298    1.390   .     A
C297   C299    1.416   .     A
C297   C304    1.406   .     A
C298   C300    1.419   .     A
C298   C305    1.414   .     A
C299   C301    1.415   .     A
C299   C822    1.392   1_554 S
C300   C303    1.417   .     A
C300   C821    1.392   .     S
C301   C309    1.406   .     A
C301   C314    1.388   .     A
C302   O339    1.277   .     A
C302   O341    1.286   .     A
C302   C311    1.402   .     S
C303   C308    1.409   .     A
C304   N335    1.435   .     S
C304   C830    1.400   1_554 S
C305   N336    1.435   .     S
C305   C831    1.395   .     S
C306   H321    1.111   .     S
C306   H320    1.109   .     S
C306   H319    1.112   .     S
C307   O338    1.411   .     S
C307   H323    1.113   .     S
C307   H322    1.114   .     S
C307   H324    1.109   .     S
C308   O346    1.385   .     S
C308   C826    1.400   .     S
C309   O338    1.384   .     S
C309   C827    1.395   1_554 S
C310   C485    1.335   .     S
C310   H502    1.088   .     S
C312   O344    1.287   .     A
C312   O342    1.287   .     A
C313   O345    1.289   .     A
C313   O343    1.286   .     A
C314   H315    1.085   .     S
H316   N335    1.045   .     S
H317   N336    1.045   .     S
H318   N336    1.045   .     S
H329   C485    1.088   .     S
H331   N218    1.029   1_655 S
N333   Zn348   2.017   .     S
N333   H214    1.029   1_655 S
N333   N218    1.280   1_655 S
N334   Zn347   2.017   .     S
N335   H216    1.044   1_655 S
O337   Zn347   1.957   .     S
O339   Zn348   1.957   .     S
O340   Zn348   1.978   .     S
O341   Zn347   1.978   .     S
O342   Zn347   1.997   .     S
O343   Zn348   1.997   .     S
O344   Zn348   2.017   .     S
O345   Zn347   2.017   .     S
O346   C190    1.411   1_655 S
C349   O398    1.286   .     A
C349   O395    1.277   .     A
C349   C368    1.402   .     S
C350   H383    1.084   .     S
C350   C352    1.387   .     A
C350   C361    1.385   .     A
C351   C371    1.424   .     S
C351   C372    1.387   .     A
C351   C353    1.389   .     A
C352   C354    1.390   .     A
C352   C370    1.424   .     S
C353   C355    1.388   .     A
C353   H384    1.085   .     S
C354   H385    1.083   .     S
C354   C356    1.390   .     A
C355   C357    1.416   .     A
C355   C362    1.406   .     A
C356   C358    1.419   .     A
C356   C363    1.414   .     A
C357   C359    1.415   .     A
C357   C880    1.392   1_554 S
C358   C361    1.417   .     A
C358   C879    1.392   .     S
C359   C367    1.406   .     A
C359   C372    1.388   .     A
C360   O397    1.277   .     A
C360   O399    1.286   .     A
C360   C369    1.402   .     S
C361   C366    1.409   .     A
C362   N393    1.435   .     S
C362   C888    1.400   1_554 S
C363   N394    1.435   .     S
C363   C889    1.395   .     S
C364   H379    1.111   .     S
C364   H378    1.109   .     S
C364   H377    1.112   .     S
C364   O520    1.411   1_455 S
C365   O396    1.411   .     S
C365   H381    1.113   .     S
C365   H380    1.114   .     S
C365   H382    1.109   .     S
C366   O404    1.385   .     S
C366   C884    1.400   .     S
C367   O396    1.384   .     S
C367   C885    1.395   1_554 S
C368   C21     1.335   1_565 S
C368   H38     1.088   1_565 S
C370   O402    1.287   .     A
C370   O400    1.287   .     A
C371   O403    1.289   .     A
C371   O401    1.286   .     A
C372   H373    1.085   .     S
H374   N393    1.045   .     S
H375   N394    1.045   .     S
H376   N394    1.045   .     S
H387   C21     1.088   1_565 S
H388   N507    1.029   1_455 S
H389   N450    1.029   .     S
H390   N509    1.044   1_455 S
N391   Zn406   2.017   .     S
N391   H446    1.029   .     S
N391   N450    1.280   .     S
N392   Zn405   2.017   .     S
N392   N507    1.280   1_455 S
N392   H505    1.029   1_455 S
N393   H448    1.044   .     S
O395   Zn405   1.957   .     S
O397   Zn406   1.957   .     S
O398   Zn406   1.978   .     S
O399   Zn405   1.978   .     S
O400   Zn405   1.997   .     S
O401   Zn406   1.997   .     S
O402   Zn406   2.017   .     S
O403   Zn405   2.017   .     S
O404   C422    1.411   .     S
C407   O456    1.286   .     A
C407   O453    1.277   .     A
C407   C426    1.402   .     S
C408   H441    1.084   .     S
C408   C410    1.387   .     A
C408   C419    1.385   .     A
C409   C429    1.424   .     S
C409   C430    1.387   .     A
C409   C411    1.389   .     A
C410   C412    1.390   .     A
C410   C428    1.424   .     S
C411   C413    1.388   .     A
C411   H442    1.085   .     S
C412   H443    1.083   .     S
C412   C414    1.390   .     A
C413   C415    1.416   .     A
C413   C420    1.406   .     A
C414   C416    1.419   .     A
C414   C421    1.414   .     A
C415   C417    1.415   .     A
C415   C938    1.392   1_554 S
C416   C419    1.417   .     A
C416   C937    1.392   .     S
C417   C425    1.406   .     A
C417   C430    1.388   .     A
C418   O455    1.277   .     A
C418   O457    1.286   .     A
C418   C427    1.402   .     S
C419   C424    1.409   .     A
C420   N451    1.435   .     S
C420   C946    1.400   1_554 S
C421   N452    1.435   .     S
C421   C947    1.395   .     S
C422   H437    1.111   .     S
C422   H436    1.109   .     S
C422   H435    1.112   .     S
C423   O454    1.411   .     S
C423   H439    1.113   .     S
C423   H438    1.114   .     S
C423   H440    1.109   .     S
C424   O462    1.385   .     S
C424   C942    1.400   .     S
C425   O454    1.384   .     S
C425   C943    1.395   1_554 S
C426   C79     1.335   1_565 S
C426   H96     1.088   1_565 S
C428   O460    1.287   .     A
C428   O458    1.287   .     A
C429   O461    1.289   .     A
C429   O459    1.286   .     A
C430   H431    1.085   .     S
H432   N451    1.045   .     S
H433   N452    1.045   .     S
H434   N452    1.045   .     S
H445   C79     1.088   1_565 S
H447   N508    1.029   .     S
N449   Zn464   2.017   .     S
N449   H504    1.029   .     S
N449   N508    1.280   .     S
N450   Zn463   2.017   .     S
N451   H506    1.044   .     S
O453   Zn463   1.957   .     S
O455   Zn464   1.957   .     S
O456   Zn464   1.978   .     S
O457   Zn463   1.978   .     S
O458   Zn463   1.997   .     S
O459   Zn464   1.997   .     S
O460   Zn464   2.017   .     S
O461   Zn463   2.017   .     S
O462   C480    1.411   .     S
C465   O514    1.286   .     A
C465   O511    1.277   .     A
C465   C484    1.402   .     S
C466   H499    1.084   .     S
C466   C468    1.387   .     A
C466   C477    1.385   .     A
C467   C487    1.424   .     S
C467   C488    1.387   .     A
C467   C469    1.389   .     A
C468   C470    1.390   .     A
C468   C486    1.424   .     S
C469   C471    1.388   .     A
C469   H500    1.085   .     S
C470   H501    1.083   .     S
C470   C472    1.390   .     A
C471   C473    1.416   .     A
C471   C478    1.406   .     A
C472   C474    1.419   .     A
C472   C479    1.414   .     A
C473   C475    1.415   .     A
C473   C996    1.392   1_554 S
C474   C477    1.417   .     A
C474   C995    1.392   .     S
C475   C483    1.406   .     A
C475   C488    1.388   .     A
C476   O513    1.277   .     A
C476   O515    1.286   .     A
C476   C485    1.402   .     S
C477   C482    1.409   .     A
C478   N509    1.435   .     S
C478   C1004   1.400   1_554 S
C479   N510    1.435   .     S
C479   C1005   1.395   .     S
C480   H495    1.111   .     S
C480   H494    1.109   .     S
C480   H493    1.112   .     S
C481   O512    1.411   .     S
C481   H497    1.113   .     S
C481   H496    1.114   .     S
C481   H498    1.109   .     S
C482   O520    1.385   .     S
C482   C1000   1.400   .     S
C483   O512    1.384   .     S
C483   C1001   1.395   1_554 S
C484   C137    1.335   1_565 S
C484   H154    1.088   1_565 S
C486   O518    1.287   .     A
C486   O516    1.287   .     A
C487   O519    1.289   .     A
C487   O517    1.286   .     A
C488   H489    1.085   .     S
H490   N509    1.045   .     S
H491   N510    1.045   .     S
H492   N510    1.045   .     S
H503   C137    1.088   1_565 S
H505   N392    1.029   1_655 S
N507   Zn522   2.017   .     S
N507   H388    1.029   1_655 S
N507   N392    1.280   1_655 S
N508   Zn521   2.017   .     S
N509   H390    1.044   1_655 S
O511   Zn521   1.957   .     S
O513   Zn522   1.957   .     S
O514   Zn522   1.978   .     S
O515   Zn521   1.978   .     S
O516   Zn521   1.997   .     S
O517   Zn522   1.997   .     S
O518   Zn522   2.017   .     S
O519   Zn521   2.017   .     S
O520   C364    1.411   1_655 S
C523   O572    1.286   .     A
C523   O569    1.277   .     A
C523   C542    1.402   .     S
C524   H557    1.084   .     S
C524   C526    1.387   .     A
C524   C535    1.385   .     A
C525   C545    1.424   .     S
C525   C546    1.387   .     A
C525   C527    1.389   .     A
C526   C528    1.390   .     A
C526   C544    1.424   .     S
C527   C529    1.388   .     A
C527   H558    1.085   .     S
C528   H559    1.083   .     S
C528   C530    1.390   .     A
C529   C531    1.416   .     A
C529   C536    1.406   .     A
C530   C532    1.419   .     A
C530   C537    1.414   .     A
C531   C533    1.415   .     A
C532   C535    1.417   .     A
C532   C9      1.392   1_556 S
C533   C541    1.406   .     A
C533   C546    1.388   .     A
C534   O571    1.277   .     A
C534   O573    1.286   .     A
C534   C543    1.402   .     S
C535   C540    1.409   .     A
C536   N567    1.435   .     S
C537   N568    1.435   .     S
C537   C19     1.395   1_556 S
C538   H553    1.111   .     S
C538   H552    1.109   .     S
C538   H551    1.112   .     S
C538   O694    1.411   1_455 S
C539   O570    1.411   .     S
C539   H555    1.113   .     S
C539   H554    1.114   .     S
C539   H556    1.109   .     S
C540   O578    1.385   .     S
C540   C14     1.400   1_556 S
C541   O570    1.384   .     S
C542   C717    1.335   .     S
C542   H734    1.088   .     S
C543   C890    1.335   1_545 S
C543   H909    1.088   1_545 S
C544   O576    1.287   .     A
C544   O574    1.287   .     A
C545   O577    1.289   .     A
C545   O575    1.286   .     A
C546   H547    1.085   .     S
H548   N567    1.045   .     S
H549   N568    1.045   .     S
H550   N568    1.045   .     S
H560   C890    1.088   1_545 S
H561   C717    1.088   .     S
H562   N681    1.029   1_455 S
H563   N624    1.029   .     S
H564   N683    1.044   1_455 S
N565   Zn580   2.017   .     S
N565   H620    1.029   .     S
N565   N624    1.280   .     S
N566   Zn579   2.017   .     S
N566   N681    1.280   1_455 S
N566   H679    1.029   1_455 S
N567   H622    1.044   .     S
O569   Zn579   1.957   .     S
O571   Zn580   1.957   .     S
O572   Zn580   1.978   .     S
O573   Zn579   1.978   .     S
O574   Zn579   1.997   .     S
O575   Zn580   1.997   .     S
O576   Zn580   2.017   .     S
O577   Zn579   2.017   .     S
O578   C596    1.411   .     S
C581   O630    1.286   .     A
C581   O627    1.277   .     A
C581   C600    1.402   .     S
C582   H615    1.084   .     S
C582   C584    1.387   .     A
C582   C593    1.385   .     A
C583   C603    1.424   .     S
C583   C604    1.387   .     A
C583   C585    1.389   .     A
C584   C586    1.390   .     A
C584   C602    1.424   .     S
C585   C587    1.388   .     A
C585   H616    1.085   .     S
C586   H617    1.083   .     S
C586   C588    1.390   .     A
C587   C589    1.416   .     A
C587   C594    1.406   .     A
C588   C590    1.419   .     A
C588   C595    1.414   .     A
C589   C591    1.415   .     A
C590   C593    1.417   .     A
C590   C67     1.392   1_556 S
C591   C599    1.406   .     A
C591   C604    1.388   .     A
C592   O629    1.277   .     A
C592   O631    1.286   .     A
C592   C601    1.402   .     S
C593   C598    1.409   .     A
C594   N625    1.435   .     S
C595   N626    1.435   .     S
C595   C77     1.395   1_556 S
C596   H611    1.111   .     S
C596   H610    1.109   .     S
C596   H609    1.112   .     S
C597   O628    1.411   .     S
C597   H613    1.113   .     S
C597   H612    1.114   .     S
C597   H614    1.109   .     S
C598   O636    1.385   .     S
C598   C72     1.400   1_556 S
C599   O628    1.384   .     S
C600   C775    1.335   .     S
C600   H792    1.088   .     S
C601   C948    1.335   1_545 S
C601   H967    1.088   1_545 S
C602   O634    1.287   .     A
C602   O632    1.287   .     A
C603   O635    1.289   .     A
C603   O633    1.286   .     A
C604   H605    1.085   .     S
H606   N625    1.045   .     S
H607   N626    1.045   .     S
H608   N626    1.045   .     S
H618   C948    1.088   1_545 S
H619   C775    1.088   .     S
H621   N682    1.029   .     S
N623   Zn638   2.017   .     S
N623   H678    1.029   .     S
N623   N682    1.280   .     S
N624   Zn637   2.017   .     S
N625   H680    1.044   .     S
O627   Zn637   1.957   .     S
O629   Zn638   1.957   .     S
O630   Zn638   1.978   .     S
O631   Zn637   1.978   .     S
O632   Zn637   1.997   .     S
O633   Zn638   1.997   .     S
O634   Zn638   2.017   .     S
O635   Zn637   2.017   .     S
O636   C654    1.411   .     S
C639   O688    1.286   .     A
C639   O685    1.277   .     A
C639   C658    1.402   .     S
C640   H673    1.084   .     S
C640   C642    1.387   .     A
C640   C651    1.385   .     A
C641   C661    1.424   .     S
C641   C662    1.387   .     A
C641   C643    1.389   .     A
C642   C644    1.390   .     A
C642   C660    1.424   .     S
C643   C645    1.388   .     A
C643   H674    1.085   .     S
C644   H675    1.083   .     S
C644   C646    1.390   .     A
C645   C647    1.416   .     A
C645   C652    1.406   .     A
C646   C648    1.419   .     A
C646   C653    1.414   .     A
C647   C649    1.415   .     A
C648   C651    1.417   .     A
C648   C125    1.392   1_556 S
C649   C657    1.406   .     A
C649   C662    1.388   .     A
C650   O687    1.277   .     A
C650   O689    1.286   .     A
C650   C659    1.402   .     S
C651   C656    1.409   .     A
C652   N683    1.435   .     S
C653   N684    1.435   .     S
C653   C135    1.395   1_556 S
C654   H669    1.111   .     S
C654   H668    1.109   .     S
C654   H667    1.112   .     S
C655   O686    1.411   .     S
C655   H671    1.113   .     S
C655   H670    1.114   .     S
C655   H672    1.109   .     S
C656   O694    1.385   .     S
C656   C130    1.400   1_556 S
C657   O686    1.384   .     S
C658   C833    1.335   .     S
C658   H850    1.088   .     S
C659   C1006   1.335   1_545 S
C659   H1025   1.088   1_545 S
C660   O692    1.287   .     A
C660   O690    1.287   .     A
C661   O693    1.289   .     A
C661   O691    1.286   .     A
C662   H663    1.085   .     S
H664   N683    1.045   .     S
H665   N684    1.045   .     S
H666   N684    1.045   .     S
H676   C1006   1.088   1_545 S
H677   C833    1.088   .     S
H679   N566    1.029   1_655 S
N681   Zn696   2.017   .     S
N681   H562    1.029   1_655 S
N681   N566    1.280   1_655 S
N682   Zn695   2.017   .     S
N683   H564    1.044   1_655 S
O685   Zn695   1.957   .     S
O687   Zn696   1.957   .     S
O688   Zn696   1.978   .     S
O689   Zn695   1.978   .     S
O690   Zn695   1.997   .     S
O691   Zn696   1.997   .     S
O692   Zn696   2.017   .     S
O693   Zn695   2.017   .     S
O694   C538    1.411   1_655 S
C697   O746    1.286   .     A
C697   O743    1.277   .     A
C697   C716    1.402   .     S
C698   H731    1.084   .     S
C698   C700    1.387   .     A
C698   C709    1.385   .     A
C699   C719    1.424   .     S
C699   C720    1.387   .     A
C699   C701    1.389   .     A
C700   C702    1.390   .     A
C700   C718    1.424   .     S
C701   C703    1.388   .     A
C701   H732    1.085   .     S
C702   H733    1.083   .     S
C702   C704    1.390   .     A
C703   C705    1.416   .     A
C703   C710    1.406   .     A
C704   C706    1.419   .     A
C704   C711    1.414   .     A
C705   C707    1.415   .     A
C706   C709    1.417   .     A
C706   C183    1.392   1_556 S
C707   C715    1.406   .     A
C707   C720    1.388   .     A
C708   O745    1.277   .     A
C708   O747    1.286   .     A
C708   C717    1.402   .     S
C709   C714    1.409   .     A
C710   N741    1.435   .     S
C711   N742    1.435   .     S
C711   C193    1.395   1_556 S
C712   H727    1.111   .     S
C712   H726    1.109   .     S
C712   H725    1.112   .     S
C712   O868    1.411   1_455 S
C713   O744    1.411   .     S
C713   H729    1.113   .     S
C713   H728    1.114   .     S
C713   H730    1.109   .     S
C714   O752    1.385   .     S
C714   C188    1.400   1_556 S
C715   O744    1.384   .     S
C716   C891    1.335   .     S
C716   H908    1.088   .     S
C718   O750    1.287   .     A
C718   O748    1.287   .     A
C719   O751    1.289   .     A
C719   O749    1.286   .     A
C720   H721    1.085   .     S
H722   N741    1.045   .     S
H723   N742    1.045   .     S
H724   N742    1.045   .     S
H735   C891    1.088   .     S
H736   N855    1.029   1_455 S
H737   N798    1.029   .     S
H738   N857    1.044   1_455 S
N739   Zn754   2.017   .     S
N739   H794    1.029   .     S
N739   N798    1.280   .     S
N740   Zn753   2.017   .     S
N740   N855    1.280   1_455 S
N740   H853    1.029   1_455 S
N741   H796    1.044   .     S
O743   Zn753   1.957   .     S
O745   Zn754   1.957   .     S
O746   Zn754   1.978   .     S
O747   Zn753   1.978   .     S
O748   Zn753   1.997   .     S
O749   Zn754   1.997   .     S
O750   Zn754   2.017   .     S
O751   Zn753   2.017   .     S
O752   C770    1.411   .     S
C755   O804    1.286   .     A
C755   O801    1.277   .     A
C755   C774    1.402   .     S
C756   H789    1.084   .     S
C756   C758    1.387   .     A
C756   C767    1.385   .     A
C757   C777    1.424   .     S
C757   C778    1.387   .     A
C757   C759    1.389   .     A
C758   C760    1.390   .     A
C758   C776    1.424   .     S
C759   C761    1.388   .     A
C759   H790    1.085   .     S
C760   H791    1.083   .     S
C760   C762    1.390   .     A
C761   C763    1.416   .     A
C761   C768    1.406   .     A
C762   C764    1.419   .     A
C762   C769    1.414   .     A
C763   C765    1.415   .     A
C764   C767    1.417   .     A
C764   C241    1.392   1_556 S
C765   C773    1.406   .     A
C765   C778    1.388   .     A
C766   O803    1.277   .     A
C766   O805    1.286   .     A
C766   C775    1.402   .     S
C767   C772    1.409   .     A
C768   N799    1.435   .     S
C769   N800    1.435   .     S
C769   C251    1.395   1_556 S
C770   H785    1.111   .     S
C770   H784    1.109   .     S
C770   H783    1.112   .     S
C771   O802    1.411   .     S
C771   H787    1.113   .     S
C771   H786    1.114   .     S
C771   H788    1.109   .     S
C772   O810    1.385   .     S
C772   C246    1.400   1_556 S
C773   O802    1.384   .     S
C774   C949    1.335   .     S
C774   H966    1.088   .     S
C776   O808    1.287   .     A
C776   O806    1.287   .     A
C777   O809    1.289   .     A
C777   O807    1.286   .     A
C778   H779    1.085   .     S
H780   N799    1.045   .     S
H781   N800    1.045   .     S
H782   N800    1.045   .     S
H793   C949    1.088   .     S
H795   N856    1.029   .     S
N797   Zn812   2.017   .     S
N797   H852    1.029   .     S
N797   N856    1.280   .     S
N798   Zn811   2.017   .     S
N799   H854    1.044   .     S
O801   Zn811   1.957   .     S
O803   Zn812   1.957   .     S
O804   Zn812   1.978   .     S
O805   Zn811   1.978   .     S
O806   Zn811   1.997   .     S
O807   Zn812   1.997   .     S
O808   Zn812   2.017   .     S
O809   Zn811   2.017   .     S
O810   C828    1.411   .     S
C813   O862    1.286   .     A
C813   O859    1.277   .     A
C813   C832    1.402   .     S
C814   H847    1.084   .     S
C814   C816    1.387   .     A
C814   C825    1.385   .     A
C815   C835    1.424   .     S
C815   C836    1.387   .     A
C815   C817    1.389   .     A
C816   C818    1.390   .     A
C816   C834    1.424   .     S
C817   C819    1.388   .     A
C817   H848    1.085   .     S
C818   H849    1.083   .     S
C818   C820    1.390   .     A
C819   C821    1.416   .     A
C819   C826    1.406   .     A
C820   C822    1.419   .     A
C820   C827    1.414   .     A
C821   C823    1.415   .     A
C822   C825    1.417   .     A
C822   C299    1.392   1_556 S
C823   C831    1.406   .     A
C823   C836    1.388   .     A
C824   O861    1.277   .     A
C824   O863    1.286   .     A
C824   C833    1.402   .     S
C825   C830    1.409   .     A
C826   N857    1.435   .     S
C827   N858    1.435   .     S
C827   C309    1.395   1_556 S
C828   H843    1.111   .     S
C828   H842    1.109   .     S
C828   H841    1.112   .     S
C829   O860    1.411   .     S
C829   H845    1.113   .     S
C829   H844    1.114   .     S
C829   H846    1.109   .     S
C830   O868    1.385   .     S
C830   C304    1.400   1_556 S
C831   O860    1.384   .     S
C832   C1007   1.335   .     S
C832   H1024   1.088   .     S
C834   O866    1.287   .     A
C834   O864    1.287   .     A
C835   O867    1.289   .     A
C835   O865    1.286   .     A
C836   H837    1.085   .     S
H838   N857    1.045   .     S
H839   N858    1.045   .     S
H840   N858    1.045   .     S
H851   C1007   1.088   .     S
H853   N740    1.029   1_655 S
N855   Zn870   2.017   .     S
N855   H736    1.029   1_655 S
N855   N740    1.280   1_655 S
N856   Zn869   2.017   .     S
N857   H738    1.044   1_655 S
O859   Zn869   1.957   .     S
O861   Zn870   1.957   .     S
O862   Zn870   1.978   .     S
O863   Zn869   1.978   .     S
O864   Zn869   1.997   .     S
O865   Zn870   1.997   .     S
O866   Zn870   2.017   .     S
O867   Zn869   2.017   .     S
O868   C712    1.411   1_655 S
C871   O920    1.286   .     A
C871   O917    1.277   .     A
C871   C890    1.402   .     S
C872   H905    1.084   .     S
C872   C874    1.387   .     A
C872   C883    1.385   .     A
C873   C893    1.424   .     S
C873   C894    1.387   .     A
C873   C875    1.389   .     A
C874   C876    1.390   .     A
C874   C892    1.424   .     S
C875   C877    1.388   .     A
C875   H906    1.085   .     S
C876   H907    1.083   .     S
C876   C878    1.390   .     A
C877   C879    1.416   .     A
C877   C884    1.406   .     A
C878   C880    1.419   .     A
C878   C885    1.414   .     A
C879   C881    1.415   .     A
C880   C883    1.417   .     A
C880   C357    1.392   1_556 S
C881   C889    1.406   .     A
C881   C894    1.388   .     A
C882   O919    1.277   .     A
C882   O921    1.286   .     A
C882   C891    1.402   .     S
C883   C888    1.409   .     A
C884   N915    1.435   .     S
C885   N916    1.435   .     S
C885   C367    1.395   1_556 S
C886   H901    1.111   .     S
C886   H900    1.109   .     S
C886   H899    1.112   .     S
C886   O1042   1.411   1_455 S
C887   O918    1.411   .     S
C887   H903    1.113   .     S
C887   H902    1.114   .     S
C887   H904    1.109   .     S
C888   O926    1.385   .     S
C888   C362    1.400   1_556 S
C889   O918    1.384   .     S
C890   C543    1.335   1_565 S
C890   H560    1.088   1_565 S
C892   O924    1.287   .     A
C892   O922    1.287   .     A
C893   O925    1.289   .     A
C893   O923    1.286   .     A
C894   H895    1.085   .     S
H896   N915    1.045   .     S
H897   N916    1.045   .     S
H898   N916    1.045   .     S
H909   C543    1.088   1_565 S
H910   N1029   1.029   1_455 S
H911   N972    1.029   .     S
H912   N1031   1.044   1_455 S
N913   Zn928   2.017   .     S
N913   H968    1.029   .     S
N913   N972    1.280   .     S
N914   Zn927   2.017   .     S
N914   N1029   1.280   1_455 S
N914   H1027   1.029   1_455 S
N915   H970    1.044   .     S
O917   Zn927   1.957   .     S
O919   Zn928   1.957   .     S
O920   Zn928   1.978   .     S
O921   Zn927   1.978   .     S
O922   Zn927   1.997   .     S
O923   Zn928   1.997   .     S
O924   Zn928   2.017   .     S
O925   Zn927   2.017   .     S
O926   C944    1.411   .     S
C929   O978    1.286   .     A
C929   O975    1.277   .     A
C929   C948    1.402   .     S
C930   H963    1.084   .     S
C930   C932    1.387   .     A
C930   C941    1.385   .     A
C931   C951    1.424   .     S
C931   C952    1.387   .     A
C931   C933    1.389   .     A
C932   C934    1.390   .     A
C932   C950    1.424   .     S
C933   C935    1.388   .     A
C933   H964    1.085   .     S
C934   H965    1.083   .     S
C934   C936    1.390   .     A
C935   C937    1.416   .     A
C935   C942    1.406   .     A
C936   C938    1.419   .     A
C936   C943    1.414   .     A
C937   C939    1.415   .     A
C938   C941    1.417   .     A
C938   C415    1.392   1_556 S
C939   C947    1.406   .     A
C939   C952    1.388   .     A
C940   O977    1.277   .     A
C940   O979    1.286   .     A
C940   C949    1.402   .     S
C941   C946    1.409   .     A
C942   N973    1.435   .     S
C943   N974    1.435   .     S
C943   C425    1.395   1_556 S
C944   H959    1.111   .     S
C944   H958    1.109   .     S
C944   H957    1.112   .     S
C945   O976    1.411   .     S
C945   H961    1.113   .     S
C945   H960    1.114   .     S
C945   H962    1.109   .     S
C946   O984    1.385   .     S
C946   C420    1.400   1_556 S
C947   O976    1.384   .     S
C948   C601    1.335   1_565 S
C948   H618    1.088   1_565 S
C950   O982    1.287   .     A
C950   O980    1.287   .     A
C951   O983    1.289   .     A
C951   O981    1.286   .     A
C952   H953    1.085   .     S
H954   N973    1.045   .     S
H955   N974    1.045   .     S
H956   N974    1.045   .     S
H967   C601    1.088   1_565 S
H969   N1030   1.029   .     S
N971   Zn986   2.017   .     S
N971   H1026   1.029   .     S
N971   N1030   1.280   .     S
N972   Zn985   2.017   .     S
N973   H1028   1.044   .     S
O975   Zn985   1.957   .     S
O977   Zn986   1.957   .     S
O978   Zn986   1.978   .     S
O979   Zn985   1.978   .     S
O980   Zn985   1.997   .     S
O981   Zn986   1.997   .     S
O982   Zn986   2.017   .     S
O983   Zn985   2.017   .     S
O984   C1002   1.411   .     S
C987   O1036   1.286   .     A
C987   O1033   1.277   .     A
C987   C1006   1.402   .     S
C988   H1021   1.084   .     S
C988   C990    1.387   .     A
C988   C999    1.385   .     A
C989   C1009   1.424   .     S
C989   C1010   1.387   .     A
C989   C991    1.389   .     A
C990   C992    1.390   .     A
C990   C1008   1.424   .     S
C991   C993    1.388   .     A
C991   H1022   1.085   .     S
C992   H1023   1.083   .     S
C992   C994    1.390   .     A
C993   C995    1.416   .     A
C993   C1000   1.406   .     A
C994   C996    1.419   .     A
C994   C1001   1.414   .     A
C995   C997    1.415   .     A
C996   C999    1.417   .     A
C996   C473    1.392   1_556 S
C997   C1005   1.406   .     A
C997   C1010   1.388   .     A
C998   O1035   1.277   .     A
C998   O1037   1.286   .     A
C998   C1007   1.402   .     S
C999   C1004   1.409   .     A
C1000  N1031   1.435   .     S
C1001  N1032   1.435   .     S
C1001  C483    1.395   1_556 S
C1002  H1017   1.111   .     S
C1002  H1016   1.109   .     S
C1002  H1015   1.112   .     S
C1003  O1034   1.411   .     S
C1003  H1019   1.113   .     S
C1003  H1018   1.114   .     S
C1003  H1020   1.109   .     S
C1004  O1042   1.385   .     S
C1004  C478    1.400   1_556 S
C1005  O1034   1.384   .     S
C1006  C659    1.335   1_565 S
C1006  H676    1.088   1_565 S
C1008  O1040   1.287   .     A
C1008  O1038   1.287   .     A
C1009  O1041   1.289   .     A
C1009  O1039   1.286   .     A
C1010  H1011   1.085   .     S
H1012  N1031   1.045   .     S
H1013  N1032   1.045   .     S
H1014  N1032   1.045   .     S
H1025  C659    1.088   1_565 S
H1027  N914    1.029   1_655 S
N1029  Zn1044  2.017   .     S
N1029  H910    1.029   1_655 S
N1029  N914    1.280   1_655 S
N1030  Zn1043  2.017   .     S
N1031  H912    1.044   1_655 S
O1033  Zn1043  1.957   .     S
O1035  Zn1044  1.957   .     S
O1036  Zn1044  1.978   .     S
O1037  Zn1043  1.978   .     S
O1038  Zn1043  1.997   .     S
O1039  Zn1044  1.997   .     S
O1040  Zn1044  2.017   .     S
O1041  Zn1043  2.017   .     S
O1042  C886    1.411   1_655 S
