data_str_m3_o1_o5_pcu_sym.78
_audit_creation_date              2020-01-03
_audit_creation_method            'Materials Studio'
_symmetry_space_group_name_H-M    'P1'
_symmetry_Int_Tables_number       1
_symmetry_cell_setting            triclinic
loop_
_symmetry_equiv_pos_as_xyz
  x,y,z
_cell_length_a                    32.1528
_cell_length_b                    29.7853
_cell_length_c                    26.6717
_cell_angle_alpha                 89.7488
_cell_angle_beta                  90.9691
_cell_angle_gamma                 89.9769
loop_
_atom_site_label
_atom_site_type_symbol
_atom_site_fract_x
_atom_site_fract_y
_atom_site_fract_z
_atom_site_U_iso_or_equiv
_atom_site_adp_type
_atom_site_occupancy
C1     C     0.08672   0.16669   0.16625   0.00000  Uiso   1.00
C2     C     0.02122   0.20693   0.15583   0.00000  Uiso   1.00
C3     C     0.29082   0.16660   0.16395   0.00000  Uiso   1.00
C4     C     0.04253   0.16672   0.16493   0.00000  Uiso   1.00
C5     C     0.18459   0.02388   0.20557   0.00000  Uiso   1.00
C6     C     0.14730   0.30945   0.12863   0.00000  Uiso   1.00
C7     C     0.14678   0.02436   0.12915   0.00000  Uiso   1.00
C8     C     0.18493   0.30916   0.20538   0.00000  Uiso   1.00
C9     C     0.24479   0.05386   0.25142   0.00000  Uiso   1.00
C10    C     0.14338   0.28675   0.04093   0.00000  Uiso   1.00
C11    C     0.08046   0.04797   0.09076   0.00000  Uiso   1.00
C12    C     0.24662   0.16666   0.16577   0.00000  Uiso   1.00
C13    C     0.24664   0.27498   0.24405   0.00000  Uiso   1.00
C14    C     0.16669   0.16671   0.07298   0.00000  Uiso   1.00
C15    C     0.16684   0.16660   0.26036   0.00000  Uiso   1.00
C16    C     0.16687   0.16667   0.02183   0.00000  Uiso   1.00
C17    C     0.16692   0.16652   0.31151   0.00000  Uiso   1.00
C18    C     0.02142   0.12635   0.17228   0.00000  Uiso   1.00
C19    C     0.31189   0.20684   0.15530   0.00000  Uiso   1.00
C20    C     0.31222   0.12623   0.17114   0.00000  Uiso   1.00
H21    H     0.03761   0.09500   0.17931   0.00000  Uiso   1.00
H22    H     0.13299   0.31709   0.02010   0.00000  Uiso   1.00
H23    H     0.13233   0.25726   0.01924   0.00000  Uiso   1.00
H24    H     0.17793   0.28569   0.04318   0.00000  Uiso   1.00
H25    H     0.13929   0.05032   0.05659   0.00000  Uiso   1.00
H26    H     0.06885   0.02708   0.05912   0.00000  Uiso   1.00
H27    H     0.06835   0.08257   0.08540   0.00000  Uiso   1.00
H28    H     0.06833   0.03431   0.12652   0.00000  Uiso   1.00
H29    H     0.19343   0.29554   0.28154   0.00000  Uiso   1.00
H30    H     0.26425   0.29377   0.27328   0.00000  Uiso   1.00
H31    H     0.25947   0.28363   0.20680   0.00000  Uiso   1.00
H32    H     0.29560   0.23806   0.14804   0.00000  Uiso   1.00
H33    H     0.25148   0.23869   0.25156   0.00000  Uiso   1.00
H34    H     0.29632   0.09469   0.17637   0.00000  Uiso   1.00
H35    H     0.03735   0.23827   0.14918   0.00000  Uiso   1.00
H36    H     0.18654   0.03938   0.28144   0.00000  Uiso   1.00
H37    H     0.25727   0.03800   0.28629   0.00000  Uiso   1.00
H38    H     0.25172   0.09028   0.25340   0.00000  Uiso   1.00
H39    H     0.26087   0.03909   0.21882   0.00000  Uiso   1.00
H40    H     0.09383   0.28921   0.09057   0.00000  Uiso   1.00
N41    N     0.16667   0.28573   0.16667   0.00000  Uiso   1.00
N42    N     0.16667   0.04760   0.16667   0.00000  Uiso   1.00
N43    N     0.20022   0.04760   0.24793   0.00000  Uiso   1.00
N44    N     0.12566   0.28529   0.09049   0.00000  Uiso   1.00
N45    N     0.12546   0.04914   0.09111   0.00000  Uiso   1.00
N46    N     0.20269   0.28518   0.24667   0.00000  Uiso   1.00
O47    O     0.10559   0.20487   0.16666   0.00000  Uiso   1.00
O48    O     0.22774   0.12846   0.16667   0.00000  Uiso   1.00
O49    O     0.22774   0.20487   0.16667   0.00000  Uiso   1.00
O50    O     0.10559   0.12846   0.16666   0.00000  Uiso   1.00
O51    O     0.16667   0.20488   0.09511   0.00000  Uiso   1.00
O52    O     0.16666   0.12845   0.23822   0.00000  Uiso   1.00
O53    O     0.16666   0.20488   0.23822   0.00000  Uiso   1.00
O54    O     0.16667   0.12845   0.09511   0.00000  Uiso   1.00
Zn55   Zn    0.16667   0.21771   0.16667   0.00000  Uiso   1.00
Zn56   Zn    0.16667   0.11563   0.16667   0.00000  Uiso   1.00
C57    C     0.42005   0.16669   0.16625   0.00000  Uiso   1.00
C58    C     0.35455   0.20693   0.15583   0.00000  Uiso   1.00
C59    C     0.62415   0.16660   0.16395   0.00000  Uiso   1.00
C60    C     0.37586   0.16672   0.16493   0.00000  Uiso   1.00
C61    C     0.51792   0.02388   0.20557   0.00000  Uiso   1.00
C62    C     0.48064   0.30945   0.12863   0.00000  Uiso   1.00
C63    C     0.48012   0.02436   0.12915   0.00000  Uiso   1.00
C64    C     0.51827   0.30916   0.20538   0.00000  Uiso   1.00
C65    C     0.57813   0.05386   0.25142   0.00000  Uiso   1.00
C66    C     0.47671   0.28675   0.04093   0.00000  Uiso   1.00
C67    C     0.41379   0.04797   0.09076   0.00000  Uiso   1.00
C68    C     0.57996   0.16666   0.16577   0.00000  Uiso   1.00
C69    C     0.57998   0.27498   0.24405   0.00000  Uiso   1.00
C70    C     0.50002   0.16671   0.07298   0.00000  Uiso   1.00
C71    C     0.50017   0.16660   0.26036   0.00000  Uiso   1.00
C72    C     0.50020   0.16667   0.02183   0.00000  Uiso   1.00
C73    C     0.50025   0.16652   0.31151   0.00000  Uiso   1.00
C74    C     0.35476   0.12635   0.17228   0.00000  Uiso   1.00
C75    C     0.64523   0.20684   0.15530   0.00000  Uiso   1.00
C76    C     0.64555   0.12623   0.17114   0.00000  Uiso   1.00
H77    H     0.37094   0.09500   0.17931   0.00000  Uiso   1.00
H78    H     0.46632   0.31709   0.02010   0.00000  Uiso   1.00
H79    H     0.46566   0.25726   0.01924   0.00000  Uiso   1.00
H80    H     0.51127   0.28569   0.04318   0.00000  Uiso   1.00
H81    H     0.47262   0.05032   0.05659   0.00000  Uiso   1.00
H82    H     0.40219   0.02708   0.05912   0.00000  Uiso   1.00
H83    H     0.40168   0.08257   0.08540   0.00000  Uiso   1.00
H84    H     0.40167   0.03431   0.12652   0.00000  Uiso   1.00
H85    H     0.52676   0.29554   0.28154   0.00000  Uiso   1.00
H86    H     0.59758   0.29377   0.27328   0.00000  Uiso   1.00
H87    H     0.59280   0.28363   0.20680   0.00000  Uiso   1.00
H88    H     0.62893   0.23806   0.14804   0.00000  Uiso   1.00
H89    H     0.58482   0.23869   0.25156   0.00000  Uiso   1.00
H90    H     0.62965   0.09469   0.17637   0.00000  Uiso   1.00
H91    H     0.37068   0.23827   0.14918   0.00000  Uiso   1.00
H92    H     0.51988   0.03938   0.28144   0.00000  Uiso   1.00
H93    H     0.59060   0.03800   0.28629   0.00000  Uiso   1.00
H94    H     0.58505   0.09028   0.25340   0.00000  Uiso   1.00
H95    H     0.59420   0.03909   0.21882   0.00000  Uiso   1.00
H96    H     0.42717   0.28921   0.09057   0.00000  Uiso   1.00
N97    N     0.50000   0.28573   0.16667   0.00000  Uiso   1.00
N98    N     0.50000   0.04760   0.16667   0.00000  Uiso   1.00
N99    N     0.53356   0.04760   0.24793   0.00000  Uiso   1.00
N100   N     0.45899   0.28529   0.09049   0.00000  Uiso   1.00
N101   N     0.45879   0.04914   0.09111   0.00000  Uiso   1.00
N102   N     0.53603   0.28518   0.24667   0.00000  Uiso   1.00
O103   O     0.43892   0.20487   0.16666   0.00000  Uiso   1.00
O104   O     0.56108   0.12846   0.16667   0.00000  Uiso   1.00
O105   O     0.56108   0.20487   0.16667   0.00000  Uiso   1.00
O106   O     0.43892   0.12846   0.16666   0.00000  Uiso   1.00
O107   O     0.50000   0.20488   0.09511   0.00000  Uiso   1.00
O108   O     0.50000   0.12845   0.23822   0.00000  Uiso   1.00
O109   O     0.50000   0.20488   0.23822   0.00000  Uiso   1.00
O110   O     0.50000   0.12845   0.09511   0.00000  Uiso   1.00
Zn111  Zn    0.50000   0.21771   0.16667   0.00000  Uiso   1.00
Zn112  Zn    0.50000   0.11563   0.16667   0.00000  Uiso   1.00
C113   C     0.75338   0.16669   0.16625   0.00000  Uiso   1.00
C114   C     0.68789   0.20693   0.15583   0.00000  Uiso   1.00
C115   C     0.95749   0.16660   0.16395   0.00000  Uiso   1.00
C116   C     0.70920   0.16672   0.16493   0.00000  Uiso   1.00
C117   C     0.85126   0.02388   0.20557   0.00000  Uiso   1.00
C118   C     0.81397   0.30945   0.12863   0.00000  Uiso   1.00
C119   C     0.81345   0.02436   0.12915   0.00000  Uiso   1.00
C120   C     0.85160   0.30916   0.20538   0.00000  Uiso   1.00
C121   C     0.91146   0.05386   0.25142   0.00000  Uiso   1.00
C122   C     0.81005   0.28675   0.04093   0.00000  Uiso   1.00
C123   C     0.74713   0.04797   0.09076   0.00000  Uiso   1.00
C124   C     0.91329   0.16666   0.16577   0.00000  Uiso   1.00
C125   C     0.91331   0.27498   0.24405   0.00000  Uiso   1.00
C126   C     0.83335   0.16671   0.07298   0.00000  Uiso   1.00
C127   C     0.83351   0.16660   0.26036   0.00000  Uiso   1.00
C128   C     0.83353   0.16667   0.02183   0.00000  Uiso   1.00
C129   C     0.83358   0.16652   0.31151   0.00000  Uiso   1.00
C130   C     0.68809   0.12635   0.17228   0.00000  Uiso   1.00
C131   C     0.97856   0.20684   0.15530   0.00000  Uiso   1.00
C132   C     0.97889   0.12623   0.17114   0.00000  Uiso   1.00
H133   H     0.70427   0.09500   0.17931   0.00000  Uiso   1.00
H134   H     0.79965   0.31709   0.02010   0.00000  Uiso   1.00
H135   H     0.79900   0.25726   0.01924   0.00000  Uiso   1.00
H136   H     0.84460   0.28569   0.04318   0.00000  Uiso   1.00
H137   H     0.80595   0.05032   0.05659   0.00000  Uiso   1.00
H138   H     0.73552   0.02708   0.05912   0.00000  Uiso   1.00
H139   H     0.73501   0.08257   0.08540   0.00000  Uiso   1.00
H140   H     0.73500   0.03431   0.12652   0.00000  Uiso   1.00
H141   H     0.86009   0.29554   0.28154   0.00000  Uiso   1.00
H142   H     0.93091   0.29377   0.27328   0.00000  Uiso   1.00
H143   H     0.92613   0.28363   0.20680   0.00000  Uiso   1.00
H144   H     0.96227   0.23806   0.14804   0.00000  Uiso   1.00
H145   H     0.91815   0.23869   0.25156   0.00000  Uiso   1.00
H146   H     0.96298   0.09469   0.17637   0.00000  Uiso   1.00
H147   H     0.70402   0.23827   0.14918   0.00000  Uiso   1.00
H148   H     0.85321   0.03938   0.28144   0.00000  Uiso   1.00
H149   H     0.92393   0.03800   0.28629   0.00000  Uiso   1.00
H150   H     0.91839   0.09028   0.25340   0.00000  Uiso   1.00
H151   H     0.92754   0.03909   0.21882   0.00000  Uiso   1.00
H152   H     0.76050   0.28921   0.09057   0.00000  Uiso   1.00
N153   N     0.83333   0.28573   0.16667   0.00000  Uiso   1.00
N154   N     0.83333   0.04760   0.16667   0.00000  Uiso   1.00
N155   N     0.86689   0.04760   0.24793   0.00000  Uiso   1.00
N156   N     0.79233   0.28529   0.09049   0.00000  Uiso   1.00
N157   N     0.79212   0.04914   0.09111   0.00000  Uiso   1.00
N158   N     0.86936   0.28518   0.24667   0.00000  Uiso   1.00
O159   O     0.77226   0.20487   0.16666   0.00000  Uiso   1.00
O160   O     0.89441   0.12846   0.16667   0.00000  Uiso   1.00
O161   O     0.89441   0.20487   0.16667   0.00000  Uiso   1.00
O162   O     0.77226   0.12846   0.16666   0.00000  Uiso   1.00
O163   O     0.83334   0.20488   0.09511   0.00000  Uiso   1.00
O164   O     0.83333   0.12845   0.23822   0.00000  Uiso   1.00
O165   O     0.83333   0.20488   0.23822   0.00000  Uiso   1.00
O166   O     0.83334   0.12845   0.09511   0.00000  Uiso   1.00
Zn167  Zn    0.83333   0.21771   0.16667   0.00000  Uiso   1.00
Zn168  Zn    0.83333   0.11563   0.16667   0.00000  Uiso   1.00
C169   C     0.08672   0.50003   0.16625   0.00000  Uiso   1.00
C170   C     0.02122   0.54026   0.15583   0.00000  Uiso   1.00
C171   C     0.29082   0.49993   0.16395   0.00000  Uiso   1.00
C172   C     0.04253   0.50005   0.16493   0.00000  Uiso   1.00
C173   C     0.18459   0.35721   0.20557   0.00000  Uiso   1.00
C174   C     0.14730   0.64279   0.12863   0.00000  Uiso   1.00
C175   C     0.14678   0.35770   0.12915   0.00000  Uiso   1.00
C176   C     0.18493   0.64250   0.20538   0.00000  Uiso   1.00
C177   C     0.24479   0.38719   0.25142   0.00000  Uiso   1.00
C178   C     0.14338   0.62009   0.04093   0.00000  Uiso   1.00
C179   C     0.08046   0.38131   0.09076   0.00000  Uiso   1.00
C180   C     0.24662   0.49999   0.16577   0.00000  Uiso   1.00
C181   C     0.24664   0.60832   0.24405   0.00000  Uiso   1.00
C182   C     0.16669   0.50004   0.07298   0.00000  Uiso   1.00
C183   C     0.16684   0.49993   0.26036   0.00000  Uiso   1.00
C184   C     0.16687   0.50000   0.02183   0.00000  Uiso   1.00
C185   C     0.16692   0.49986   0.31151   0.00000  Uiso   1.00
C186   C     0.02142   0.45968   0.17228   0.00000  Uiso   1.00
C187   C     0.31189   0.54017   0.15530   0.00000  Uiso   1.00
C188   C     0.31222   0.45956   0.17114   0.00000  Uiso   1.00
H189   H     0.03761   0.42833   0.17931   0.00000  Uiso   1.00
H190   H     0.13299   0.65042   0.02010   0.00000  Uiso   1.00
H191   H     0.13233   0.59059   0.01924   0.00000  Uiso   1.00
H192   H     0.17793   0.61903   0.04318   0.00000  Uiso   1.00
H193   H     0.13929   0.38366   0.05659   0.00000  Uiso   1.00
H194   H     0.06885   0.36042   0.05912   0.00000  Uiso   1.00
H195   H     0.06835   0.41591   0.08540   0.00000  Uiso   1.00
H196   H     0.06833   0.36765   0.12652   0.00000  Uiso   1.00
H197   H     0.19343   0.62888   0.28154   0.00000  Uiso   1.00
H198   H     0.26425   0.62710   0.27328   0.00000  Uiso   1.00
H199   H     0.25947   0.61696   0.20680   0.00000  Uiso   1.00
H200   H     0.29560   0.57140   0.14804   0.00000  Uiso   1.00
H201   H     0.25148   0.57202   0.25156   0.00000  Uiso   1.00
H202   H     0.29632   0.42802   0.17637   0.00000  Uiso   1.00
H203   H     0.03735   0.57161   0.14918   0.00000  Uiso   1.00
H204   H     0.18654   0.37271   0.28144   0.00000  Uiso   1.00
H205   H     0.25727   0.37133   0.28629   0.00000  Uiso   1.00
H206   H     0.25172   0.42362   0.25340   0.00000  Uiso   1.00
H207   H     0.26087   0.37243   0.21882   0.00000  Uiso   1.00
H208   H     0.09383   0.62255   0.09057   0.00000  Uiso   1.00
N209   N     0.16667   0.61907   0.16667   0.00000  Uiso   1.00
N210   N     0.16667   0.38093   0.16667   0.00000  Uiso   1.00
N211   N     0.20022   0.38093   0.24793   0.00000  Uiso   1.00
N212   N     0.12566   0.61862   0.09049   0.00000  Uiso   1.00
N213   N     0.12546   0.38248   0.09111   0.00000  Uiso   1.00
N214   N     0.20269   0.61852   0.24667   0.00000  Uiso   1.00
O215   O     0.10559   0.53821   0.16666   0.00000  Uiso   1.00
O216   O     0.22774   0.46179   0.16667   0.00000  Uiso   1.00
O217   O     0.22774   0.53821   0.16667   0.00000  Uiso   1.00
O218   O     0.10559   0.46179   0.16666   0.00000  Uiso   1.00
O219   O     0.16667   0.53821   0.09511   0.00000  Uiso   1.00
O220   O     0.16666   0.46179   0.23822   0.00000  Uiso   1.00
O221   O     0.16666   0.53821   0.23822   0.00000  Uiso   1.00
O222   O     0.16667   0.46179   0.09511   0.00000  Uiso   1.00
Zn223  Zn    0.16667   0.55104   0.16667   0.00000  Uiso   1.00
Zn224  Zn    0.16667   0.44896   0.16667   0.00000  Uiso   1.00
C225   C     0.42005   0.50003   0.16625   0.00000  Uiso   1.00
C226   C     0.35455   0.54026   0.15583   0.00000  Uiso   1.00
C227   C     0.62415   0.49993   0.16395   0.00000  Uiso   1.00
C228   C     0.37586   0.50005   0.16493   0.00000  Uiso   1.00
C229   C     0.51792   0.35721   0.20557   0.00000  Uiso   1.00
C230   C     0.48064   0.64279   0.12863   0.00000  Uiso   1.00
C231   C     0.48012   0.35770   0.12915   0.00000  Uiso   1.00
C232   C     0.51827   0.64250   0.20538   0.00000  Uiso   1.00
C233   C     0.57813   0.38719   0.25142   0.00000  Uiso   1.00
C234   C     0.47671   0.62009   0.04093   0.00000  Uiso   1.00
C235   C     0.41379   0.38131   0.09076   0.00000  Uiso   1.00
C236   C     0.57996   0.49999   0.16577   0.00000  Uiso   1.00
C237   C     0.57998   0.60832   0.24405   0.00000  Uiso   1.00
C238   C     0.50002   0.50004   0.07298   0.00000  Uiso   1.00
C239   C     0.50017   0.49993   0.26036   0.00000  Uiso   1.00
C240   C     0.50020   0.50000   0.02183   0.00000  Uiso   1.00
C241   C     0.50025   0.49986   0.31151   0.00000  Uiso   1.00
C242   C     0.35476   0.45968   0.17228   0.00000  Uiso   1.00
C243   C     0.64523   0.54017   0.15530   0.00000  Uiso   1.00
C244   C     0.64555   0.45956   0.17114   0.00000  Uiso   1.00
H245   H     0.37094   0.42833   0.17931   0.00000  Uiso   1.00
H246   H     0.46632   0.65042   0.02010   0.00000  Uiso   1.00
H247   H     0.46566   0.59059   0.01924   0.00000  Uiso   1.00
H248   H     0.51127   0.61903   0.04318   0.00000  Uiso   1.00
H249   H     0.47262   0.38366   0.05659   0.00000  Uiso   1.00
H250   H     0.40219   0.36042   0.05912   0.00000  Uiso   1.00
H251   H     0.40168   0.41591   0.08540   0.00000  Uiso   1.00
H252   H     0.40167   0.36765   0.12652   0.00000  Uiso   1.00
H253   H     0.52676   0.62888   0.28154   0.00000  Uiso   1.00
H254   H     0.59758   0.62710   0.27328   0.00000  Uiso   1.00
H255   H     0.59280   0.61696   0.20680   0.00000  Uiso   1.00
H256   H     0.62893   0.57140   0.14804   0.00000  Uiso   1.00
H257   H     0.58482   0.57202   0.25156   0.00000  Uiso   1.00
H258   H     0.62965   0.42802   0.17637   0.00000  Uiso   1.00
H259   H     0.37068   0.57161   0.14918   0.00000  Uiso   1.00
H260   H     0.51988   0.37271   0.28144   0.00000  Uiso   1.00
H261   H     0.59060   0.37133   0.28629   0.00000  Uiso   1.00
H262   H     0.58505   0.42362   0.25340   0.00000  Uiso   1.00
H263   H     0.59420   0.37243   0.21882   0.00000  Uiso   1.00
H264   H     0.42717   0.62255   0.09057   0.00000  Uiso   1.00
N265   N     0.50000   0.61907   0.16667   0.00000  Uiso   1.00
N266   N     0.50000   0.38093   0.16667   0.00000  Uiso   1.00
N267   N     0.53356   0.38093   0.24793   0.00000  Uiso   1.00
N268   N     0.45899   0.61862   0.09049   0.00000  Uiso   1.00
N269   N     0.45879   0.38248   0.09111   0.00000  Uiso   1.00
N270   N     0.53603   0.61852   0.24667   0.00000  Uiso   1.00
O271   O     0.43892   0.53821   0.16666   0.00000  Uiso   1.00
O272   O     0.56108   0.46179   0.16667   0.00000  Uiso   1.00
O273   O     0.56108   0.53821   0.16667   0.00000  Uiso   1.00
O274   O     0.43892   0.46179   0.16666   0.00000  Uiso   1.00
O275   O     0.50000   0.53821   0.09511   0.00000  Uiso   1.00
O276   O     0.50000   0.46179   0.23822   0.00000  Uiso   1.00
O277   O     0.50000   0.53821   0.23822   0.00000  Uiso   1.00
O278   O     0.50000   0.46179   0.09511   0.00000  Uiso   1.00
Zn279  Zn    0.50000   0.55104   0.16667   0.00000  Uiso   1.00
Zn280  Zn    0.50000   0.44896   0.16667   0.00000  Uiso   1.00
C281   C     0.75338   0.50003   0.16625   0.00000  Uiso   1.00
C282   C     0.68789   0.54026   0.15583   0.00000  Uiso   1.00
C283   C     0.95749   0.49993   0.16395   0.00000  Uiso   1.00
C284   C     0.70920   0.50005   0.16493   0.00000  Uiso   1.00
C285   C     0.85126   0.35721   0.20557   0.00000  Uiso   1.00
C286   C     0.81397   0.64279   0.12863   0.00000  Uiso   1.00
C287   C     0.81345   0.35770   0.12915   0.00000  Uiso   1.00
C288   C     0.85160   0.64250   0.20538   0.00000  Uiso   1.00
C289   C     0.91146   0.38719   0.25142   0.00000  Uiso   1.00
C290   C     0.81005   0.62009   0.04093   0.00000  Uiso   1.00
C291   C     0.74713   0.38131   0.09076   0.00000  Uiso   1.00
C292   C     0.91329   0.49999   0.16577   0.00000  Uiso   1.00
C293   C     0.91331   0.60832   0.24405   0.00000  Uiso   1.00
C294   C     0.83335   0.50004   0.07298   0.00000  Uiso   1.00
C295   C     0.83351   0.49993   0.26036   0.00000  Uiso   1.00
C296   C     0.83353   0.50000   0.02183   0.00000  Uiso   1.00
C297   C     0.83358   0.49986   0.31151   0.00000  Uiso   1.00
C298   C     0.68809   0.45968   0.17228   0.00000  Uiso   1.00
C299   C     0.97856   0.54017   0.15530   0.00000  Uiso   1.00
C300   C     0.97889   0.45956   0.17114   0.00000  Uiso   1.00
H301   H     0.70427   0.42833   0.17931   0.00000  Uiso   1.00
H302   H     0.79965   0.65042   0.02010   0.00000  Uiso   1.00
H303   H     0.79900   0.59059   0.01924   0.00000  Uiso   1.00
H304   H     0.84460   0.61903   0.04318   0.00000  Uiso   1.00
H305   H     0.80595   0.38366   0.05659   0.00000  Uiso   1.00
H306   H     0.73552   0.36042   0.05912   0.00000  Uiso   1.00
H307   H     0.73501   0.41591   0.08540   0.00000  Uiso   1.00
H308   H     0.73500   0.36765   0.12652   0.00000  Uiso   1.00
H309   H     0.86009   0.62888   0.28154   0.00000  Uiso   1.00
H310   H     0.93091   0.62710   0.27328   0.00000  Uiso   1.00
H311   H     0.92613   0.61696   0.20680   0.00000  Uiso   1.00
H312   H     0.96227   0.57140   0.14804   0.00000  Uiso   1.00
H313   H     0.91815   0.57202   0.25156   0.00000  Uiso   1.00
H314   H     0.96298   0.42802   0.17637   0.00000  Uiso   1.00
H315   H     0.70402   0.57161   0.14918   0.00000  Uiso   1.00
H316   H     0.85321   0.37271   0.28144   0.00000  Uiso   1.00
H317   H     0.92393   0.37133   0.28629   0.00000  Uiso   1.00
H318   H     0.91839   0.42362   0.25340   0.00000  Uiso   1.00
H319   H     0.92754   0.37243   0.21882   0.00000  Uiso   1.00
H320   H     0.76050   0.62255   0.09057   0.00000  Uiso   1.00
N321   N     0.83333   0.61907   0.16667   0.00000  Uiso   1.00
N322   N     0.83333   0.38093   0.16667   0.00000  Uiso   1.00
N323   N     0.86689   0.38093   0.24793   0.00000  Uiso   1.00
N324   N     0.79233   0.61862   0.09049   0.00000  Uiso   1.00
N325   N     0.79212   0.38248   0.09111   0.00000  Uiso   1.00
N326   N     0.86936   0.61852   0.24667   0.00000  Uiso   1.00
O327   O     0.77226   0.53821   0.16666   0.00000  Uiso   1.00
O328   O     0.89441   0.46179   0.16667   0.00000  Uiso   1.00
O329   O     0.89441   0.53821   0.16667   0.00000  Uiso   1.00
O330   O     0.77226   0.46179   0.16666   0.00000  Uiso   1.00
O331   O     0.83334   0.53821   0.09511   0.00000  Uiso   1.00
O332   O     0.83333   0.46179   0.23822   0.00000  Uiso   1.00
O333   O     0.83333   0.53821   0.23822   0.00000  Uiso   1.00
O334   O     0.83334   0.46179   0.09511   0.00000  Uiso   1.00
Zn335  Zn    0.83333   0.55104   0.16667   0.00000  Uiso   1.00
Zn336  Zn    0.83333   0.44896   0.16667   0.00000  Uiso   1.00
C337   C     0.08672   0.83336   0.16625   0.00000  Uiso   1.00
C338   C     0.02122   0.87359   0.15583   0.00000  Uiso   1.00
C339   C     0.29082   0.83326   0.16395   0.00000  Uiso   1.00
C340   C     0.04253   0.83338   0.16493   0.00000  Uiso   1.00
C341   C     0.18459   0.69055   0.20557   0.00000  Uiso   1.00
C342   C     0.14730   0.97612   0.12863   0.00000  Uiso   1.00
C343   C     0.14678   0.69103   0.12915   0.00000  Uiso   1.00
C344   C     0.18493   0.97583   0.20538   0.00000  Uiso   1.00
C345   C     0.24479   0.72053   0.25142   0.00000  Uiso   1.00
C346   C     0.14338   0.95342   0.04093   0.00000  Uiso   1.00
C347   C     0.08046   0.71464   0.09076   0.00000  Uiso   1.00
C348   C     0.24662   0.83333   0.16577   0.00000  Uiso   1.00
C349   C     0.24664   0.94165   0.24405   0.00000  Uiso   1.00
C350   C     0.16669   0.83338   0.07298   0.00000  Uiso   1.00
C351   C     0.16684   0.83326   0.26036   0.00000  Uiso   1.00
C352   C     0.16687   0.83334   0.02183   0.00000  Uiso   1.00
C353   C     0.16692   0.83319   0.31151   0.00000  Uiso   1.00
C354   C     0.02142   0.79301   0.17228   0.00000  Uiso   1.00
C355   C     0.31189   0.87351   0.15530   0.00000  Uiso   1.00
C356   C     0.31222   0.79289   0.17114   0.00000  Uiso   1.00
H357   H     0.03761   0.76166   0.17931   0.00000  Uiso   1.00
H358   H     0.13299   0.98376   0.02010   0.00000  Uiso   1.00
H359   H     0.13233   0.92392   0.01924   0.00000  Uiso   1.00
H360   H     0.17793   0.95236   0.04318   0.00000  Uiso   1.00
H361   H     0.13929   0.71699   0.05659   0.00000  Uiso   1.00
H362   H     0.06885   0.69375   0.05912   0.00000  Uiso   1.00
H363   H     0.06835   0.74924   0.08540   0.00000  Uiso   1.00
H364   H     0.06833   0.70098   0.12652   0.00000  Uiso   1.00
H365   H     0.19343   0.96221   0.28154   0.00000  Uiso   1.00
H366   H     0.26425   0.96044   0.27328   0.00000  Uiso   1.00
H367   H     0.25947   0.95029   0.20680   0.00000  Uiso   1.00
H368   H     0.29560   0.90473   0.14804   0.00000  Uiso   1.00
H369   H     0.25148   0.90535   0.25156   0.00000  Uiso   1.00
H370   H     0.29632   0.76136   0.17637   0.00000  Uiso   1.00
H371   H     0.03735   0.90494   0.14918   0.00000  Uiso   1.00
H372   H     0.18654   0.70605   0.28144   0.00000  Uiso   1.00
H373   H     0.25727   0.70467   0.28629   0.00000  Uiso   1.00
H374   H     0.25172   0.75695   0.25340   0.00000  Uiso   1.00
H375   H     0.26087   0.70576   0.21882   0.00000  Uiso   1.00
H376   H     0.09383   0.95588   0.09057   0.00000  Uiso   1.00
N377   N     0.16667   0.95240   0.16667   0.00000  Uiso   1.00
N378   N     0.16667   0.71427   0.16667   0.00000  Uiso   1.00
N379   N     0.20022   0.71427   0.24793   0.00000  Uiso   1.00
N380   N     0.12566   0.95196   0.09049   0.00000  Uiso   1.00
N381   N     0.12546   0.71581   0.09111   0.00000  Uiso   1.00
N382   N     0.20269   0.95185   0.24667   0.00000  Uiso   1.00
O383   O     0.10559   0.87154   0.16666   0.00000  Uiso   1.00
O384   O     0.22774   0.79513   0.16667   0.00000  Uiso   1.00
O385   O     0.22774   0.87154   0.16667   0.00000  Uiso   1.00
O386   O     0.10559   0.79513   0.16666   0.00000  Uiso   1.00
O387   O     0.16667   0.87155   0.09511   0.00000  Uiso   1.00
O388   O     0.16666   0.79512   0.23822   0.00000  Uiso   1.00
O389   O     0.16666   0.87155   0.23822   0.00000  Uiso   1.00
O390   O     0.16667   0.79512   0.09511   0.00000  Uiso   1.00
Zn391  Zn    0.16667   0.88437   0.16667   0.00000  Uiso   1.00
Zn392  Zn    0.16667   0.78229   0.16667   0.00000  Uiso   1.00
C393   C     0.42005   0.83336   0.16625   0.00000  Uiso   1.00
C394   C     0.35455   0.87359   0.15583   0.00000  Uiso   1.00
C395   C     0.62415   0.83326   0.16395   0.00000  Uiso   1.00
C396   C     0.37586   0.83338   0.16493   0.00000  Uiso   1.00
C397   C     0.51792   0.69055   0.20557   0.00000  Uiso   1.00
C398   C     0.48064   0.97612   0.12863   0.00000  Uiso   1.00
C399   C     0.48012   0.69103   0.12915   0.00000  Uiso   1.00
C400   C     0.51827   0.97583   0.20538   0.00000  Uiso   1.00
C401   C     0.57813   0.72053   0.25142   0.00000  Uiso   1.00
C402   C     0.47671   0.95342   0.04093   0.00000  Uiso   1.00
C403   C     0.41379   0.71464   0.09076   0.00000  Uiso   1.00
C404   C     0.57996   0.83333   0.16577   0.00000  Uiso   1.00
C405   C     0.57998   0.94165   0.24405   0.00000  Uiso   1.00
C406   C     0.50002   0.83338   0.07298   0.00000  Uiso   1.00
C407   C     0.50017   0.83326   0.26036   0.00000  Uiso   1.00
C408   C     0.50020   0.83334   0.02183   0.00000  Uiso   1.00
C409   C     0.50025   0.83319   0.31151   0.00000  Uiso   1.00
C410   C     0.35476   0.79301   0.17228   0.00000  Uiso   1.00
C411   C     0.64523   0.87351   0.15530   0.00000  Uiso   1.00
C412   C     0.64555   0.79289   0.17114   0.00000  Uiso   1.00
H413   H     0.37094   0.76166   0.17931   0.00000  Uiso   1.00
H414   H     0.46632   0.98376   0.02010   0.00000  Uiso   1.00
H415   H     0.46566   0.92392   0.01924   0.00000  Uiso   1.00
H416   H     0.51127   0.95236   0.04318   0.00000  Uiso   1.00
H417   H     0.47262   0.71699   0.05659   0.00000  Uiso   1.00
H418   H     0.40219   0.69375   0.05912   0.00000  Uiso   1.00
H419   H     0.40168   0.74924   0.08540   0.00000  Uiso   1.00
H420   H     0.40167   0.70098   0.12652   0.00000  Uiso   1.00
H421   H     0.52676   0.96221   0.28154   0.00000  Uiso   1.00
H422   H     0.59758   0.96044   0.27328   0.00000  Uiso   1.00
H423   H     0.59280   0.95029   0.20680   0.00000  Uiso   1.00
H424   H     0.62893   0.90473   0.14804   0.00000  Uiso   1.00
H425   H     0.58482   0.90535   0.25156   0.00000  Uiso   1.00
H426   H     0.62965   0.76136   0.17637   0.00000  Uiso   1.00
H427   H     0.37068   0.90494   0.14918   0.00000  Uiso   1.00
H428   H     0.51988   0.70605   0.28144   0.00000  Uiso   1.00
H429   H     0.59060   0.70467   0.28629   0.00000  Uiso   1.00
H430   H     0.58505   0.75695   0.25340   0.00000  Uiso   1.00
H431   H     0.59420   0.70576   0.21882   0.00000  Uiso   1.00
H432   H     0.42717   0.95588   0.09057   0.00000  Uiso   1.00
N433   N     0.50000   0.95240   0.16667   0.00000  Uiso   1.00
N434   N     0.50000   0.71427   0.16667   0.00000  Uiso   1.00
N435   N     0.53356   0.71427   0.24793   0.00000  Uiso   1.00
N436   N     0.45899   0.95196   0.09049   0.00000  Uiso   1.00
N437   N     0.45879   0.71581   0.09111   0.00000  Uiso   1.00
N438   N     0.53603   0.95185   0.24667   0.00000  Uiso   1.00
O439   O     0.43892   0.87154   0.16666   0.00000  Uiso   1.00
O440   O     0.56108   0.79513   0.16667   0.00000  Uiso   1.00
O441   O     0.56108   0.87154   0.16667   0.00000  Uiso   1.00
O442   O     0.43892   0.79513   0.16666   0.00000  Uiso   1.00
O443   O     0.50000   0.87155   0.09511   0.00000  Uiso   1.00
O444   O     0.50000   0.79512   0.23822   0.00000  Uiso   1.00
O445   O     0.50000   0.87155   0.23822   0.00000  Uiso   1.00
O446   O     0.50000   0.79512   0.09511   0.00000  Uiso   1.00
Zn447  Zn    0.50000   0.88437   0.16667   0.00000  Uiso   1.00
Zn448  Zn    0.50000   0.78229   0.16667   0.00000  Uiso   1.00
C449   C     0.75338   0.83336   0.16625   0.00000  Uiso   1.00
C450   C     0.68789   0.87359   0.15583   0.00000  Uiso   1.00
C451   C     0.95749   0.83326   0.16395   0.00000  Uiso   1.00
C452   C     0.70920   0.83338   0.16493   0.00000  Uiso   1.00
C453   C     0.85126   0.69055   0.20557   0.00000  Uiso   1.00
C454   C     0.81397   0.97612   0.12863   0.00000  Uiso   1.00
C455   C     0.81345   0.69103   0.12915   0.00000  Uiso   1.00
C456   C     0.85160   0.97583   0.20538   0.00000  Uiso   1.00
C457   C     0.91146   0.72053   0.25142   0.00000  Uiso   1.00
C458   C     0.81005   0.95342   0.04093   0.00000  Uiso   1.00
C459   C     0.74713   0.71464   0.09076   0.00000  Uiso   1.00
C460   C     0.91329   0.83333   0.16577   0.00000  Uiso   1.00
C461   C     0.91331   0.94165   0.24405   0.00000  Uiso   1.00
C462   C     0.83335   0.83338   0.07298   0.00000  Uiso   1.00
C463   C     0.83351   0.83326   0.26036   0.00000  Uiso   1.00
C464   C     0.83353   0.83334   0.02183   0.00000  Uiso   1.00
C465   C     0.83358   0.83319   0.31151   0.00000  Uiso   1.00
C466   C     0.68809   0.79301   0.17228   0.00000  Uiso   1.00
C467   C     0.97856   0.87351   0.15530   0.00000  Uiso   1.00
C468   C     0.97889   0.79289   0.17114   0.00000  Uiso   1.00
H469   H     0.70427   0.76166   0.17931   0.00000  Uiso   1.00
H470   H     0.79965   0.98376   0.02010   0.00000  Uiso   1.00
H471   H     0.79900   0.92392   0.01924   0.00000  Uiso   1.00
H472   H     0.84460   0.95236   0.04318   0.00000  Uiso   1.00
H473   H     0.80595   0.71699   0.05659   0.00000  Uiso   1.00
H474   H     0.73552   0.69375   0.05912   0.00000  Uiso   1.00
H475   H     0.73501   0.74924   0.08540   0.00000  Uiso   1.00
H476   H     0.73500   0.70098   0.12652   0.00000  Uiso   1.00
H477   H     0.86009   0.96221   0.28154   0.00000  Uiso   1.00
H478   H     0.93091   0.96044   0.27328   0.00000  Uiso   1.00
H479   H     0.92613   0.95029   0.20680   0.00000  Uiso   1.00
H480   H     0.96227   0.90473   0.14804   0.00000  Uiso   1.00
H481   H     0.91815   0.90535   0.25156   0.00000  Uiso   1.00
H482   H     0.96298   0.76136   0.17637   0.00000  Uiso   1.00
H483   H     0.70402   0.90494   0.14918   0.00000  Uiso   1.00
H484   H     0.85321   0.70605   0.28144   0.00000  Uiso   1.00
H485   H     0.92393   0.70467   0.28629   0.00000  Uiso   1.00
H486   H     0.91839   0.75695   0.25340   0.00000  Uiso   1.00
H487   H     0.92754   0.70576   0.21882   0.00000  Uiso   1.00
H488   H     0.76050   0.95588   0.09057   0.00000  Uiso   1.00
N489   N     0.83333   0.95240   0.16667   0.00000  Uiso   1.00
N490   N     0.83333   0.71427   0.16667   0.00000  Uiso   1.00
N491   N     0.86689   0.71427   0.24793   0.00000  Uiso   1.00
N492   N     0.79233   0.95196   0.09049   0.00000  Uiso   1.00
N493   N     0.79212   0.71581   0.09111   0.00000  Uiso   1.00
N494   N     0.86936   0.95185   0.24667   0.00000  Uiso   1.00
O495   O     0.77226   0.87154   0.16666   0.00000  Uiso   1.00
O496   O     0.89441   0.79513   0.16667   0.00000  Uiso   1.00
O497   O     0.89441   0.87154   0.16667   0.00000  Uiso   1.00
O498   O     0.77226   0.79513   0.16666   0.00000  Uiso   1.00
O499   O     0.83334   0.87155   0.09511   0.00000  Uiso   1.00
O500   O     0.83333   0.79512   0.23822   0.00000  Uiso   1.00
O501   O     0.83333   0.87155   0.23822   0.00000  Uiso   1.00
O502   O     0.83334   0.79512   0.09511   0.00000  Uiso   1.00
Zn503  Zn    0.83333   0.88437   0.16667   0.00000  Uiso   1.00
Zn504  Zn    0.83333   0.78229   0.16667   0.00000  Uiso   1.00
C505   C     0.08672   0.16669   0.49958   0.00000  Uiso   1.00
C506   C     0.02122   0.20693   0.48917   0.00000  Uiso   1.00
C507   C     0.29082   0.16660   0.49728   0.00000  Uiso   1.00
C508   C     0.04253   0.16672   0.49827   0.00000  Uiso   1.00
C509   C     0.18459   0.02388   0.53890   0.00000  Uiso   1.00
C510   C     0.14730   0.30945   0.46197   0.00000  Uiso   1.00
C511   C     0.14678   0.02436   0.46248   0.00000  Uiso   1.00
C512   C     0.18493   0.30916   0.53871   0.00000  Uiso   1.00
C513   C     0.24479   0.05386   0.58475   0.00000  Uiso   1.00
C514   C     0.14338   0.28675   0.37426   0.00000  Uiso   1.00
C515   C     0.08046   0.04797   0.42409   0.00000  Uiso   1.00
C516   C     0.24662   0.16666   0.49911   0.00000  Uiso   1.00
C517   C     0.24664   0.27498   0.57738   0.00000  Uiso   1.00
C518   C     0.16669   0.16671   0.40631   0.00000  Uiso   1.00
C519   C     0.16684   0.16660   0.59369   0.00000  Uiso   1.00
C520   C     0.16687   0.16667   0.35516   0.00000  Uiso   1.00
C521   C     0.16692   0.16652   0.64484   0.00000  Uiso   1.00
C522   C     0.02142   0.12635   0.50561   0.00000  Uiso   1.00
C523   C     0.31189   0.20684   0.48863   0.00000  Uiso   1.00
C524   C     0.31222   0.12623   0.50447   0.00000  Uiso   1.00
H525   H     0.03761   0.09500   0.51265   0.00000  Uiso   1.00
H526   H     0.13299   0.31709   0.35344   0.00000  Uiso   1.00
H527   H     0.13233   0.25726   0.35257   0.00000  Uiso   1.00
H528   H     0.17793   0.28569   0.37651   0.00000  Uiso   1.00
H529   H     0.13929   0.05032   0.38992   0.00000  Uiso   1.00
H530   H     0.06885   0.02708   0.39245   0.00000  Uiso   1.00
H531   H     0.06835   0.08257   0.41874   0.00000  Uiso   1.00
H532   H     0.06833   0.03431   0.45985   0.00000  Uiso   1.00
H533   H     0.19343   0.29554   0.61487   0.00000  Uiso   1.00
H534   H     0.26425   0.29377   0.60661   0.00000  Uiso   1.00
H535   H     0.25947   0.28363   0.54013   0.00000  Uiso   1.00
H536   H     0.29560   0.23806   0.48137   0.00000  Uiso   1.00
H537   H     0.25148   0.23869   0.58489   0.00000  Uiso   1.00
H538   H     0.29632   0.09469   0.50971   0.00000  Uiso   1.00
H539   H     0.03735   0.23827   0.48252   0.00000  Uiso   1.00
H540   H     0.18654   0.03938   0.61477   0.00000  Uiso   1.00
H541   H     0.25727   0.03800   0.61962   0.00000  Uiso   1.00
H542   H     0.25172   0.09028   0.58674   0.00000  Uiso   1.00
H543   H     0.26087   0.03909   0.55216   0.00000  Uiso   1.00
H544   H     0.09383   0.28921   0.42391   0.00000  Uiso   1.00
N545   N     0.16667   0.28573   0.50000   0.00000  Uiso   1.00
N546   N     0.16667   0.04760   0.50000   0.00000  Uiso   1.00
N547   N     0.20022   0.04760   0.58127   0.00000  Uiso   1.00
N548   N     0.12566   0.28529   0.42382   0.00000  Uiso   1.00
N549   N     0.12546   0.04914   0.42444   0.00000  Uiso   1.00
N550   N     0.20269   0.28518   0.58000   0.00000  Uiso   1.00
O551   O     0.10559   0.20487   0.50000   0.00000  Uiso   1.00
O552   O     0.22774   0.12846   0.50000   0.00000  Uiso   1.00
O553   O     0.22774   0.20487   0.50000   0.00000  Uiso   1.00
O554   O     0.10559   0.12846   0.50000   0.00000  Uiso   1.00
O555   O     0.16667   0.20488   0.42845   0.00000  Uiso   1.00
O556   O     0.16666   0.12845   0.57155   0.00000  Uiso   1.00
O557   O     0.16666   0.20488   0.57155   0.00000  Uiso   1.00
O558   O     0.16667   0.12845   0.42845   0.00000  Uiso   1.00
Zn559  Zn    0.16667   0.21771   0.50000   0.00000  Uiso   1.00
Zn560  Zn    0.16667   0.11563   0.50000   0.00000  Uiso   1.00
C561   C     0.42005   0.16669   0.49958   0.00000  Uiso   1.00
C562   C     0.35455   0.20693   0.48917   0.00000  Uiso   1.00
C563   C     0.62415   0.16660   0.49728   0.00000  Uiso   1.00
C564   C     0.37586   0.16672   0.49827   0.00000  Uiso   1.00
C565   C     0.51792   0.02388   0.53890   0.00000  Uiso   1.00
C566   C     0.48064   0.30945   0.46197   0.00000  Uiso   1.00
C567   C     0.48012   0.02436   0.46248   0.00000  Uiso   1.00
C568   C     0.51827   0.30916   0.53871   0.00000  Uiso   1.00
C569   C     0.57813   0.05386   0.58475   0.00000  Uiso   1.00
C570   C     0.47671   0.28675   0.37426   0.00000  Uiso   1.00
C571   C     0.41379   0.04797   0.42409   0.00000  Uiso   1.00
C572   C     0.57996   0.16666   0.49911   0.00000  Uiso   1.00
C573   C     0.57998   0.27498   0.57738   0.00000  Uiso   1.00
C574   C     0.50002   0.16671   0.40631   0.00000  Uiso   1.00
C575   C     0.50017   0.16660   0.59369   0.00000  Uiso   1.00
C576   C     0.50020   0.16667   0.35516   0.00000  Uiso   1.00
C577   C     0.50025   0.16652   0.64484   0.00000  Uiso   1.00
C578   C     0.35476   0.12635   0.50561   0.00000  Uiso   1.00
C579   C     0.64523   0.20684   0.48863   0.00000  Uiso   1.00
C580   C     0.64555   0.12623   0.50447   0.00000  Uiso   1.00
H581   H     0.37094   0.09500   0.51265   0.00000  Uiso   1.00
H582   H     0.46632   0.31709   0.35344   0.00000  Uiso   1.00
H583   H     0.46566   0.25726   0.35257   0.00000  Uiso   1.00
H584   H     0.51127   0.28569   0.37651   0.00000  Uiso   1.00
H585   H     0.47262   0.05032   0.38992   0.00000  Uiso   1.00
H586   H     0.40219   0.02708   0.39245   0.00000  Uiso   1.00
H587   H     0.40168   0.08257   0.41874   0.00000  Uiso   1.00
H588   H     0.40167   0.03431   0.45985   0.00000  Uiso   1.00
H589   H     0.52676   0.29554   0.61487   0.00000  Uiso   1.00
H590   H     0.59758   0.29377   0.60661   0.00000  Uiso   1.00
H591   H     0.59280   0.28363   0.54013   0.00000  Uiso   1.00
H592   H     0.62893   0.23806   0.48137   0.00000  Uiso   1.00
H593   H     0.58482   0.23869   0.58489   0.00000  Uiso   1.00
H594   H     0.62965   0.09469   0.50971   0.00000  Uiso   1.00
H595   H     0.37068   0.23827   0.48252   0.00000  Uiso   1.00
H596   H     0.51988   0.03938   0.61477   0.00000  Uiso   1.00
H597   H     0.59060   0.03800   0.61962   0.00000  Uiso   1.00
H598   H     0.58505   0.09028   0.58674   0.00000  Uiso   1.00
H599   H     0.59420   0.03909   0.55216   0.00000  Uiso   1.00
H600   H     0.42717   0.28921   0.42391   0.00000  Uiso   1.00
N601   N     0.50000   0.28573   0.50000   0.00000  Uiso   1.00
N602   N     0.50000   0.04760   0.50000   0.00000  Uiso   1.00
N603   N     0.53356   0.04760   0.58127   0.00000  Uiso   1.00
N604   N     0.45899   0.28529   0.42382   0.00000  Uiso   1.00
N605   N     0.45879   0.04914   0.42444   0.00000  Uiso   1.00
N606   N     0.53603   0.28518   0.58000   0.00000  Uiso   1.00
O607   O     0.43892   0.20487   0.50000   0.00000  Uiso   1.00
O608   O     0.56108   0.12846   0.50000   0.00000  Uiso   1.00
O609   O     0.56108   0.20487   0.50000   0.00000  Uiso   1.00
O610   O     0.43892   0.12846   0.50000   0.00000  Uiso   1.00
O611   O     0.50000   0.20488   0.42845   0.00000  Uiso   1.00
O612   O     0.50000   0.12845   0.57155   0.00000  Uiso   1.00
O613   O     0.50000   0.20488   0.57155   0.00000  Uiso   1.00
O614   O     0.50000   0.12845   0.42845   0.00000  Uiso   1.00
Zn615  Zn    0.50000   0.21771   0.50000   0.00000  Uiso   1.00
Zn616  Zn    0.50000   0.11563   0.50000   0.00000  Uiso   1.00
C617   C     0.75338   0.16669   0.49958   0.00000  Uiso   1.00
C618   C     0.68789   0.20693   0.48917   0.00000  Uiso   1.00
C619   C     0.95749   0.16660   0.49728   0.00000  Uiso   1.00
C620   C     0.70920   0.16672   0.49827   0.00000  Uiso   1.00
C621   C     0.85126   0.02388   0.53890   0.00000  Uiso   1.00
C622   C     0.81397   0.30945   0.46197   0.00000  Uiso   1.00
C623   C     0.81345   0.02436   0.46248   0.00000  Uiso   1.00
C624   C     0.85160   0.30916   0.53871   0.00000  Uiso   1.00
C625   C     0.91146   0.05386   0.58475   0.00000  Uiso   1.00
C626   C     0.81005   0.28675   0.37426   0.00000  Uiso   1.00
C627   C     0.74713   0.04797   0.42409   0.00000  Uiso   1.00
C628   C     0.91329   0.16666   0.49911   0.00000  Uiso   1.00
C629   C     0.91331   0.27498   0.57738   0.00000  Uiso   1.00
C630   C     0.83335   0.16671   0.40631   0.00000  Uiso   1.00
C631   C     0.83351   0.16660   0.59369   0.00000  Uiso   1.00
C632   C     0.83353   0.16667   0.35516   0.00000  Uiso   1.00
C633   C     0.83358   0.16652   0.64484   0.00000  Uiso   1.00
C634   C     0.68809   0.12635   0.50561   0.00000  Uiso   1.00
C635   C     0.97856   0.20684   0.48863   0.00000  Uiso   1.00
C636   C     0.97889   0.12623   0.50447   0.00000  Uiso   1.00
H637   H     0.70427   0.09500   0.51265   0.00000  Uiso   1.00
H638   H     0.79965   0.31709   0.35344   0.00000  Uiso   1.00
H639   H     0.79900   0.25726   0.35257   0.00000  Uiso   1.00
H640   H     0.84460   0.28569   0.37651   0.00000  Uiso   1.00
H641   H     0.80595   0.05032   0.38992   0.00000  Uiso   1.00
H642   H     0.73552   0.02708   0.39245   0.00000  Uiso   1.00
H643   H     0.73501   0.08257   0.41874   0.00000  Uiso   1.00
H644   H     0.73500   0.03431   0.45985   0.00000  Uiso   1.00
H645   H     0.86009   0.29554   0.61487   0.00000  Uiso   1.00
H646   H     0.93091   0.29377   0.60661   0.00000  Uiso   1.00
H647   H     0.92613   0.28363   0.54013   0.00000  Uiso   1.00
H648   H     0.96227   0.23806   0.48137   0.00000  Uiso   1.00
H649   H     0.91815   0.23869   0.58489   0.00000  Uiso   1.00
H650   H     0.96298   0.09469   0.50971   0.00000  Uiso   1.00
H651   H     0.70402   0.23827   0.48252   0.00000  Uiso   1.00
H652   H     0.85321   0.03938   0.61477   0.00000  Uiso   1.00
H653   H     0.92393   0.03800   0.61962   0.00000  Uiso   1.00
H654   H     0.91839   0.09028   0.58674   0.00000  Uiso   1.00
H655   H     0.92754   0.03909   0.55216   0.00000  Uiso   1.00
H656   H     0.76050   0.28921   0.42391   0.00000  Uiso   1.00
N657   N     0.83333   0.28573   0.50000   0.00000  Uiso   1.00
N658   N     0.83333   0.04760   0.50000   0.00000  Uiso   1.00
N659   N     0.86689   0.04760   0.58127   0.00000  Uiso   1.00
N660   N     0.79233   0.28529   0.42382   0.00000  Uiso   1.00
N661   N     0.79212   0.04914   0.42444   0.00000  Uiso   1.00
N662   N     0.86936   0.28518   0.58000   0.00000  Uiso   1.00
O663   O     0.77226   0.20487   0.50000   0.00000  Uiso   1.00
O664   O     0.89441   0.12846   0.50000   0.00000  Uiso   1.00
O665   O     0.89441   0.20487   0.50000   0.00000  Uiso   1.00
O666   O     0.77226   0.12846   0.50000   0.00000  Uiso   1.00
O667   O     0.83334   0.20488   0.42845   0.00000  Uiso   1.00
O668   O     0.83333   0.12845   0.57155   0.00000  Uiso   1.00
O669   O     0.83333   0.20488   0.57155   0.00000  Uiso   1.00
O670   O     0.83334   0.12845   0.42845   0.00000  Uiso   1.00
Zn671  Zn    0.83333   0.21771   0.50000   0.00000  Uiso   1.00
Zn672  Zn    0.83333   0.11563   0.50000   0.00000  Uiso   1.00
C673   C     0.08672   0.50003   0.49958   0.00000  Uiso   1.00
C674   C     0.02122   0.54026   0.48917   0.00000  Uiso   1.00
C675   C     0.29082   0.49993   0.49728   0.00000  Uiso   1.00
C676   C     0.04253   0.50005   0.49827   0.00000  Uiso   1.00
C677   C     0.18459   0.35721   0.53890   0.00000  Uiso   1.00
C678   C     0.14730   0.64279   0.46197   0.00000  Uiso   1.00
C679   C     0.14678   0.35770   0.46248   0.00000  Uiso   1.00
C680   C     0.18493   0.64250   0.53871   0.00000  Uiso   1.00
C681   C     0.24479   0.38719   0.58475   0.00000  Uiso   1.00
C682   C     0.14338   0.62009   0.37426   0.00000  Uiso   1.00
C683   C     0.08046   0.38131   0.42409   0.00000  Uiso   1.00
C684   C     0.24662   0.49999   0.49911   0.00000  Uiso   1.00
C685   C     0.24664   0.60832   0.57738   0.00000  Uiso   1.00
C686   C     0.16669   0.50004   0.40631   0.00000  Uiso   1.00
C687   C     0.16684   0.49993   0.59369   0.00000  Uiso   1.00
C688   C     0.16687   0.50000   0.35516   0.00000  Uiso   1.00
C689   C     0.16692   0.49986   0.64484   0.00000  Uiso   1.00
C690   C     0.02142   0.45968   0.50561   0.00000  Uiso   1.00
C691   C     0.31189   0.54017   0.48863   0.00000  Uiso   1.00
C692   C     0.31222   0.45956   0.50447   0.00000  Uiso   1.00
H693   H     0.03761   0.42833   0.51265   0.00000  Uiso   1.00
H694   H     0.13299   0.65042   0.35344   0.00000  Uiso   1.00
H695   H     0.13233   0.59059   0.35257   0.00000  Uiso   1.00
H696   H     0.17793   0.61903   0.37651   0.00000  Uiso   1.00
H697   H     0.13929   0.38366   0.38992   0.00000  Uiso   1.00
H698   H     0.06885   0.36042   0.39245   0.00000  Uiso   1.00
H699   H     0.06835   0.41591   0.41874   0.00000  Uiso   1.00
H700   H     0.06833   0.36765   0.45985   0.00000  Uiso   1.00
H701   H     0.19343   0.62888   0.61487   0.00000  Uiso   1.00
H702   H     0.26425   0.62710   0.60661   0.00000  Uiso   1.00
H703   H     0.25947   0.61696   0.54013   0.00000  Uiso   1.00
H704   H     0.29560   0.57140   0.48137   0.00000  Uiso   1.00
H705   H     0.25148   0.57202   0.58489   0.00000  Uiso   1.00
H706   H     0.29632   0.42802   0.50971   0.00000  Uiso   1.00
H707   H     0.03735   0.57161   0.48252   0.00000  Uiso   1.00
H708   H     0.18654   0.37271   0.61477   0.00000  Uiso   1.00
H709   H     0.25727   0.37133   0.61962   0.00000  Uiso   1.00
H710   H     0.25172   0.42362   0.58674   0.00000  Uiso   1.00
H711   H     0.26087   0.37243   0.55216   0.00000  Uiso   1.00
H712   H     0.09383   0.62255   0.42391   0.00000  Uiso   1.00
N713   N     0.16667   0.61907   0.50000   0.00000  Uiso   1.00
N714   N     0.16667   0.38093   0.50000   0.00000  Uiso   1.00
N715   N     0.20022   0.38093   0.58127   0.00000  Uiso   1.00
N716   N     0.12566   0.61862   0.42382   0.00000  Uiso   1.00
N717   N     0.12546   0.38248   0.42444   0.00000  Uiso   1.00
N718   N     0.20269   0.61852   0.58000   0.00000  Uiso   1.00
O719   O     0.10559   0.53821   0.50000   0.00000  Uiso   1.00
O720   O     0.22774   0.46179   0.50000   0.00000  Uiso   1.00
O721   O     0.22774   0.53821   0.50000   0.00000  Uiso   1.00
O722   O     0.10559   0.46179   0.50000   0.00000  Uiso   1.00
O723   O     0.16667   0.53821   0.42845   0.00000  Uiso   1.00
O724   O     0.16666   0.46179   0.57155   0.00000  Uiso   1.00
O725   O     0.16666   0.53821   0.57155   0.00000  Uiso   1.00
O726   O     0.16667   0.46179   0.42845   0.00000  Uiso   1.00
Zn727  Zn    0.16667   0.55104   0.50000   0.00000  Uiso   1.00
Zn728  Zn    0.16667   0.44896   0.50000   0.00000  Uiso   1.00
C729   C     0.42005   0.50003   0.49958   0.00000  Uiso   1.00
C730   C     0.35455   0.54026   0.48917   0.00000  Uiso   1.00
C731   C     0.62415   0.49993   0.49728   0.00000  Uiso   1.00
C732   C     0.37586   0.50005   0.49827   0.00000  Uiso   1.00
C733   C     0.51792   0.35721   0.53890   0.00000  Uiso   1.00
C734   C     0.48064   0.64279   0.46197   0.00000  Uiso   1.00
C735   C     0.48012   0.35770   0.46248   0.00000  Uiso   1.00
C736   C     0.51827   0.64250   0.53871   0.00000  Uiso   1.00
C737   C     0.57813   0.38719   0.58475   0.00000  Uiso   1.00
C738   C     0.47671   0.62009   0.37426   0.00000  Uiso   1.00
C739   C     0.41379   0.38131   0.42409   0.00000  Uiso   1.00
C740   C     0.57996   0.49999   0.49911   0.00000  Uiso   1.00
C741   C     0.57998   0.60832   0.57738   0.00000  Uiso   1.00
C742   C     0.50002   0.50004   0.40631   0.00000  Uiso   1.00
C743   C     0.50017   0.49993   0.59369   0.00000  Uiso   1.00
C744   C     0.50020   0.50000   0.35516   0.00000  Uiso   1.00
C745   C     0.50025   0.49986   0.64484   0.00000  Uiso   1.00
C746   C     0.35476   0.45968   0.50561   0.00000  Uiso   1.00
C747   C     0.64523   0.54017   0.48863   0.00000  Uiso   1.00
C748   C     0.64555   0.45956   0.50447   0.00000  Uiso   1.00
H749   H     0.37094   0.42833   0.51265   0.00000  Uiso   1.00
H750   H     0.46632   0.65042   0.35344   0.00000  Uiso   1.00
H751   H     0.46566   0.59059   0.35257   0.00000  Uiso   1.00
H752   H     0.51127   0.61903   0.37651   0.00000  Uiso   1.00
H753   H     0.47262   0.38366   0.38992   0.00000  Uiso   1.00
H754   H     0.40219   0.36042   0.39245   0.00000  Uiso   1.00
H755   H     0.40168   0.41591   0.41874   0.00000  Uiso   1.00
H756   H     0.40167   0.36765   0.45985   0.00000  Uiso   1.00
H757   H     0.52676   0.62888   0.61487   0.00000  Uiso   1.00
H758   H     0.59758   0.62710   0.60661   0.00000  Uiso   1.00
H759   H     0.59280   0.61696   0.54013   0.00000  Uiso   1.00
H760   H     0.62893   0.57140   0.48137   0.00000  Uiso   1.00
H761   H     0.58482   0.57202   0.58489   0.00000  Uiso   1.00
H762   H     0.62965   0.42802   0.50971   0.00000  Uiso   1.00
H763   H     0.37068   0.57161   0.48252   0.00000  Uiso   1.00
H764   H     0.51988   0.37271   0.61477   0.00000  Uiso   1.00
H765   H     0.59060   0.37133   0.61962   0.00000  Uiso   1.00
H766   H     0.58505   0.42362   0.58674   0.00000  Uiso   1.00
H767   H     0.59420   0.37243   0.55216   0.00000  Uiso   1.00
H768   H     0.42717   0.62255   0.42391   0.00000  Uiso   1.00
N769   N     0.50000   0.61907   0.50000   0.00000  Uiso   1.00
N770   N     0.50000   0.38093   0.50000   0.00000  Uiso   1.00
N771   N     0.53356   0.38093   0.58127   0.00000  Uiso   1.00
N772   N     0.45899   0.61862   0.42382   0.00000  Uiso   1.00
N773   N     0.45879   0.38248   0.42444   0.00000  Uiso   1.00
N774   N     0.53603   0.61852   0.58000   0.00000  Uiso   1.00
O775   O     0.43892   0.53821   0.50000   0.00000  Uiso   1.00
O776   O     0.56108   0.46179   0.50000   0.00000  Uiso   1.00
O777   O     0.56108   0.53821   0.50000   0.00000  Uiso   1.00
O778   O     0.43892   0.46179   0.50000   0.00000  Uiso   1.00
O779   O     0.50000   0.53821   0.42845   0.00000  Uiso   1.00
O780   O     0.50000   0.46179   0.57155   0.00000  Uiso   1.00
O781   O     0.50000   0.53821   0.57155   0.00000  Uiso   1.00
O782   O     0.50000   0.46179   0.42845   0.00000  Uiso   1.00
Zn783  Zn    0.50000   0.55104   0.50000   0.00000  Uiso   1.00
Zn784  Zn    0.50000   0.44896   0.50000   0.00000  Uiso   1.00
C785   C     0.75338   0.50003   0.49958   0.00000  Uiso   1.00
C786   C     0.68789   0.54026   0.48917   0.00000  Uiso   1.00
C787   C     0.95749   0.49993   0.49728   0.00000  Uiso   1.00
C788   C     0.70920   0.50005   0.49827   0.00000  Uiso   1.00
C789   C     0.85126   0.35721   0.53890   0.00000  Uiso   1.00
C790   C     0.81397   0.64279   0.46197   0.00000  Uiso   1.00
C791   C     0.81345   0.35770   0.46248   0.00000  Uiso   1.00
C792   C     0.85160   0.64250   0.53871   0.00000  Uiso   1.00
C793   C     0.91146   0.38719   0.58475   0.00000  Uiso   1.00
C794   C     0.81005   0.62009   0.37426   0.00000  Uiso   1.00
C795   C     0.74713   0.38131   0.42409   0.00000  Uiso   1.00
C796   C     0.91329   0.49999   0.49911   0.00000  Uiso   1.00
C797   C     0.91331   0.60832   0.57738   0.00000  Uiso   1.00
C798   C     0.83335   0.50004   0.40631   0.00000  Uiso   1.00
C799   C     0.83351   0.49993   0.59369   0.00000  Uiso   1.00
C800   C     0.83353   0.50000   0.35516   0.00000  Uiso   1.00
C801   C     0.83358   0.49986   0.64484   0.00000  Uiso   1.00
C802   C     0.68809   0.45968   0.50561   0.00000  Uiso   1.00
C803   C     0.97856   0.54017   0.48863   0.00000  Uiso   1.00
C804   C     0.97889   0.45956   0.50447   0.00000  Uiso   1.00
H805   H     0.70427   0.42833   0.51265   0.00000  Uiso   1.00
H806   H     0.79965   0.65042   0.35344   0.00000  Uiso   1.00
H807   H     0.79900   0.59059   0.35257   0.00000  Uiso   1.00
H808   H     0.84460   0.61903   0.37651   0.00000  Uiso   1.00
H809   H     0.80595   0.38366   0.38992   0.00000  Uiso   1.00
H810   H     0.73552   0.36042   0.39245   0.00000  Uiso   1.00
H811   H     0.73501   0.41591   0.41874   0.00000  Uiso   1.00
H812   H     0.73500   0.36765   0.45985   0.00000  Uiso   1.00
H813   H     0.86009   0.62888   0.61487   0.00000  Uiso   1.00
H814   H     0.93091   0.62710   0.60661   0.00000  Uiso   1.00
H815   H     0.92613   0.61696   0.54013   0.00000  Uiso   1.00
H816   H     0.96227   0.57140   0.48137   0.00000  Uiso   1.00
H817   H     0.91815   0.57202   0.58489   0.00000  Uiso   1.00
H818   H     0.96298   0.42802   0.50971   0.00000  Uiso   1.00
H819   H     0.70402   0.57161   0.48252   0.00000  Uiso   1.00
H820   H     0.85321   0.37271   0.61477   0.00000  Uiso   1.00
H821   H     0.92393   0.37133   0.61962   0.00000  Uiso   1.00
H822   H     0.91839   0.42362   0.58674   0.00000  Uiso   1.00
H823   H     0.92754   0.37243   0.55216   0.00000  Uiso   1.00
H824   H     0.76050   0.62255   0.42391   0.00000  Uiso   1.00
N825   N     0.83333   0.61907   0.50000   0.00000  Uiso   1.00
N826   N     0.83333   0.38093   0.50000   0.00000  Uiso   1.00
N827   N     0.86689   0.38093   0.58127   0.00000  Uiso   1.00
N828   N     0.79233   0.61862   0.42382   0.00000  Uiso   1.00
N829   N     0.79212   0.38248   0.42444   0.00000  Uiso   1.00
N830   N     0.86936   0.61852   0.58000   0.00000  Uiso   1.00
O831   O     0.77226   0.53821   0.50000   0.00000  Uiso   1.00
O832   O     0.89441   0.46179   0.50000   0.00000  Uiso   1.00
O833   O     0.89441   0.53821   0.50000   0.00000  Uiso   1.00
O834   O     0.77226   0.46179   0.50000   0.00000  Uiso   1.00
O835   O     0.83334   0.53821   0.42845   0.00000  Uiso   1.00
O836   O     0.83333   0.46179   0.57155   0.00000  Uiso   1.00
O837   O     0.83333   0.53821   0.57155   0.00000  Uiso   1.00
O838   O     0.83334   0.46179   0.42845   0.00000  Uiso   1.00
Zn839  Zn    0.83333   0.55104   0.50000   0.00000  Uiso   1.00
Zn840  Zn    0.83333   0.44896   0.50000   0.00000  Uiso   1.00
C841   C     0.08672   0.83336   0.49958   0.00000  Uiso   1.00
C842   C     0.02122   0.87359   0.48917   0.00000  Uiso   1.00
C843   C     0.29082   0.83326   0.49728   0.00000  Uiso   1.00
C844   C     0.04253   0.83338   0.49827   0.00000  Uiso   1.00
C845   C     0.18459   0.69055   0.53890   0.00000  Uiso   1.00
C846   C     0.14730   0.97612   0.46197   0.00000  Uiso   1.00
C847   C     0.14678   0.69103   0.46248   0.00000  Uiso   1.00
C848   C     0.18493   0.97583   0.53871   0.00000  Uiso   1.00
C849   C     0.24479   0.72053   0.58475   0.00000  Uiso   1.00
C850   C     0.14338   0.95342   0.37426   0.00000  Uiso   1.00
C851   C     0.08046   0.71464   0.42409   0.00000  Uiso   1.00
C852   C     0.24662   0.83333   0.49911   0.00000  Uiso   1.00
C853   C     0.24664   0.94165   0.57738   0.00000  Uiso   1.00
C854   C     0.16669   0.83338   0.40631   0.00000  Uiso   1.00
C855   C     0.16684   0.83326   0.59369   0.00000  Uiso   1.00
C856   C     0.16687   0.83334   0.35516   0.00000  Uiso   1.00
C857   C     0.16692   0.83319   0.64484   0.00000  Uiso   1.00
C858   C     0.02142   0.79301   0.50561   0.00000  Uiso   1.00
C859   C     0.31189   0.87351   0.48863   0.00000  Uiso   1.00
C860   C     0.31222   0.79289   0.50447   0.00000  Uiso   1.00
H861   H     0.03761   0.76166   0.51265   0.00000  Uiso   1.00
H862   H     0.13299   0.98376   0.35344   0.00000  Uiso   1.00
H863   H     0.13233   0.92392   0.35257   0.00000  Uiso   1.00
H864   H     0.17793   0.95236   0.37651   0.00000  Uiso   1.00
H865   H     0.13929   0.71699   0.38992   0.00000  Uiso   1.00
H866   H     0.06885   0.69375   0.39245   0.00000  Uiso   1.00
H867   H     0.06835   0.74924   0.41874   0.00000  Uiso   1.00
H868   H     0.06833   0.70098   0.45985   0.00000  Uiso   1.00
H869   H     0.19343   0.96221   0.61487   0.00000  Uiso   1.00
H870   H     0.26425   0.96044   0.60661   0.00000  Uiso   1.00
H871   H     0.25947   0.95029   0.54013   0.00000  Uiso   1.00
H872   H     0.29560   0.90473   0.48137   0.00000  Uiso   1.00
H873   H     0.25148   0.90535   0.58489   0.00000  Uiso   1.00
H874   H     0.29632   0.76136   0.50971   0.00000  Uiso   1.00
H875   H     0.03735   0.90494   0.48252   0.00000  Uiso   1.00
H876   H     0.18654   0.70605   0.61477   0.00000  Uiso   1.00
H877   H     0.25727   0.70467   0.61962   0.00000  Uiso   1.00
H878   H     0.25172   0.75695   0.58674   0.00000  Uiso   1.00
H879   H     0.26087   0.70576   0.55216   0.00000  Uiso   1.00
H880   H     0.09383   0.95588   0.42391   0.00000  Uiso   1.00
N881   N     0.16667   0.95240   0.50000   0.00000  Uiso   1.00
N882   N     0.16667   0.71427   0.50000   0.00000  Uiso   1.00
N883   N     0.20022   0.71427   0.58127   0.00000  Uiso   1.00
N884   N     0.12566   0.95196   0.42382   0.00000  Uiso   1.00
N885   N     0.12546   0.71581   0.42444   0.00000  Uiso   1.00
N886   N     0.20269   0.95185   0.58000   0.00000  Uiso   1.00
O887   O     0.10559   0.87154   0.50000   0.00000  Uiso   1.00
O888   O     0.22774   0.79513   0.50000   0.00000  Uiso   1.00
O889   O     0.22774   0.87154   0.50000   0.00000  Uiso   1.00
O890   O     0.10559   0.79513   0.50000   0.00000  Uiso   1.00
O891   O     0.16667   0.87155   0.42845   0.00000  Uiso   1.00
O892   O     0.16666   0.79512   0.57155   0.00000  Uiso   1.00
O893   O     0.16666   0.87155   0.57155   0.00000  Uiso   1.00
O894   O     0.16667   0.79512   0.42845   0.00000  Uiso   1.00
Zn895  Zn    0.16667   0.88437   0.50000   0.00000  Uiso   1.00
Zn896  Zn    0.16667   0.78229   0.50000   0.00000  Uiso   1.00
C897   C     0.42005   0.83336   0.49958   0.00000  Uiso   1.00
C898   C     0.35455   0.87359   0.48917   0.00000  Uiso   1.00
C899   C     0.62415   0.83326   0.49728   0.00000  Uiso   1.00
C900   C     0.37586   0.83338   0.49827   0.00000  Uiso   1.00
C901   C     0.51792   0.69055   0.53890   0.00000  Uiso   1.00
C902   C     0.48064   0.97612   0.46197   0.00000  Uiso   1.00
C903   C     0.48012   0.69103   0.46248   0.00000  Uiso   1.00
C904   C     0.51827   0.97583   0.53871   0.00000  Uiso   1.00
C905   C     0.57813   0.72053   0.58475   0.00000  Uiso   1.00
C906   C     0.47671   0.95342   0.37426   0.00000  Uiso   1.00
C907   C     0.41379   0.71464   0.42409   0.00000  Uiso   1.00
C908   C     0.57996   0.83333   0.49911   0.00000  Uiso   1.00
C909   C     0.57998   0.94165   0.57738   0.00000  Uiso   1.00
C910   C     0.50002   0.83338   0.40631   0.00000  Uiso   1.00
C911   C     0.50017   0.83326   0.59369   0.00000  Uiso   1.00
C912   C     0.50020   0.83334   0.35516   0.00000  Uiso   1.00
C913   C     0.50025   0.83319   0.64484   0.00000  Uiso   1.00
C914   C     0.35476   0.79301   0.50561   0.00000  Uiso   1.00
C915   C     0.64523   0.87351   0.48863   0.00000  Uiso   1.00
C916   C     0.64555   0.79289   0.50447   0.00000  Uiso   1.00
H917   H     0.37094   0.76166   0.51265   0.00000  Uiso   1.00
H918   H     0.46632   0.98376   0.35344   0.00000  Uiso   1.00
H919   H     0.46566   0.92392   0.35257   0.00000  Uiso   1.00
H920   H     0.51127   0.95236   0.37651   0.00000  Uiso   1.00
H921   H     0.47262   0.71699   0.38992   0.00000  Uiso   1.00
H922   H     0.40219   0.69375   0.39245   0.00000  Uiso   1.00
H923   H     0.40168   0.74924   0.41874   0.00000  Uiso   1.00
H924   H     0.40167   0.70098   0.45985   0.00000  Uiso   1.00
H925   H     0.52676   0.96221   0.61487   0.00000  Uiso   1.00
H926   H     0.59758   0.96044   0.60661   0.00000  Uiso   1.00
H927   H     0.59280   0.95029   0.54013   0.00000  Uiso   1.00
H928   H     0.62893   0.90473   0.48137   0.00000  Uiso   1.00
H929   H     0.58482   0.90535   0.58489   0.00000  Uiso   1.00
H930   H     0.62965   0.76136   0.50971   0.00000  Uiso   1.00
H931   H     0.37068   0.90494   0.48252   0.00000  Uiso   1.00
H932   H     0.51988   0.70605   0.61477   0.00000  Uiso   1.00
H933   H     0.59060   0.70467   0.61962   0.00000  Uiso   1.00
H934   H     0.58505   0.75695   0.58674   0.00000  Uiso   1.00
H935   H     0.59420   0.70576   0.55216   0.00000  Uiso   1.00
H936   H     0.42717   0.95588   0.42391   0.00000  Uiso   1.00
N937   N     0.50000   0.95240   0.50000   0.00000  Uiso   1.00
N938   N     0.50000   0.71427   0.50000   0.00000  Uiso   1.00
N939   N     0.53356   0.71427   0.58127   0.00000  Uiso   1.00
N940   N     0.45899   0.95196   0.42382   0.00000  Uiso   1.00
N941   N     0.45879   0.71581   0.42444   0.00000  Uiso   1.00
N942   N     0.53603   0.95185   0.58000   0.00000  Uiso   1.00
O943   O     0.43892   0.87154   0.50000   0.00000  Uiso   1.00
O944   O     0.56108   0.79513   0.50000   0.00000  Uiso   1.00
O945   O     0.56108   0.87154   0.50000   0.00000  Uiso   1.00
O946   O     0.43892   0.79513   0.50000   0.00000  Uiso   1.00
O947   O     0.50000   0.87155   0.42845   0.00000  Uiso   1.00
O948   O     0.50000   0.79512   0.57155   0.00000  Uiso   1.00
O949   O     0.50000   0.87155   0.57155   0.00000  Uiso   1.00
O950   O     0.50000   0.79512   0.42845   0.00000  Uiso   1.00
Zn951  Zn    0.50000   0.88437   0.50000   0.00000  Uiso   1.00
Zn952  Zn    0.50000   0.78229   0.50000   0.00000  Uiso   1.00
C953   C     0.75338   0.83336   0.49958   0.00000  Uiso   1.00
C954   C     0.68789   0.87359   0.48917   0.00000  Uiso   1.00
C955   C     0.95749   0.83326   0.49728   0.00000  Uiso   1.00
C956   C     0.70920   0.83338   0.49827   0.00000  Uiso   1.00
C957   C     0.85126   0.69055   0.53890   0.00000  Uiso   1.00
C958   C     0.81397   0.97612   0.46197   0.00000  Uiso   1.00
C959   C     0.81345   0.69103   0.46248   0.00000  Uiso   1.00
C960   C     0.85160   0.97583   0.53871   0.00000  Uiso   1.00
C961   C     0.91146   0.72053   0.58475   0.00000  Uiso   1.00
C962   C     0.81005   0.95342   0.37426   0.00000  Uiso   1.00
C963   C     0.74713   0.71464   0.42409   0.00000  Uiso   1.00
C964   C     0.91329   0.83333   0.49911   0.00000  Uiso   1.00
C965   C     0.91331   0.94165   0.57738   0.00000  Uiso   1.00
C966   C     0.83335   0.83338   0.40631   0.00000  Uiso   1.00
C967   C     0.83351   0.83326   0.59369   0.00000  Uiso   1.00
C968   C     0.83353   0.83334   0.35516   0.00000  Uiso   1.00
C969   C     0.83358   0.83319   0.64484   0.00000  Uiso   1.00
C970   C     0.68809   0.79301   0.50561   0.00000  Uiso   1.00
C971   C     0.97856   0.87351   0.48863   0.00000  Uiso   1.00
C972   C     0.97889   0.79289   0.50447   0.00000  Uiso   1.00
H973   H     0.70427   0.76166   0.51265   0.00000  Uiso   1.00
H974   H     0.79965   0.98376   0.35344   0.00000  Uiso   1.00
H975   H     0.79900   0.92392   0.35257   0.00000  Uiso   1.00
H976   H     0.84460   0.95236   0.37651   0.00000  Uiso   1.00
H977   H     0.80595   0.71699   0.38992   0.00000  Uiso   1.00
H978   H     0.73552   0.69375   0.39245   0.00000  Uiso   1.00
H979   H     0.73501   0.74924   0.41874   0.00000  Uiso   1.00
H980   H     0.73500   0.70098   0.45985   0.00000  Uiso   1.00
H981   H     0.86009   0.96221   0.61487   0.00000  Uiso   1.00
H982   H     0.93091   0.96044   0.60661   0.00000  Uiso   1.00
H983   H     0.92613   0.95029   0.54013   0.00000  Uiso   1.00
H984   H     0.96227   0.90473   0.48137   0.00000  Uiso   1.00
H985   H     0.91815   0.90535   0.58489   0.00000  Uiso   1.00
H986   H     0.96298   0.76136   0.50971   0.00000  Uiso   1.00
H987   H     0.70402   0.90494   0.48252   0.00000  Uiso   1.00
H988   H     0.85321   0.70605   0.61477   0.00000  Uiso   1.00
H989   H     0.92393   0.70467   0.61962   0.00000  Uiso   1.00
H990   H     0.91839   0.75695   0.58674   0.00000  Uiso   1.00
H991   H     0.92754   0.70576   0.55216   0.00000  Uiso   1.00
H992   H     0.76050   0.95588   0.42391   0.00000  Uiso   1.00
N993   N     0.83333   0.95240   0.50000   0.00000  Uiso   1.00
N994   N     0.83333   0.71427   0.50000   0.00000  Uiso   1.00
N995   N     0.86689   0.71427   0.58127   0.00000  Uiso   1.00
N996   N     0.79233   0.95196   0.42382   0.00000  Uiso   1.00
N997   N     0.79212   0.71581   0.42444   0.00000  Uiso   1.00
N998   N     0.86936   0.95185   0.58000   0.00000  Uiso   1.00
O999   O     0.77226   0.87154   0.50000   0.00000  Uiso   1.00
O1000  O     0.89441   0.79513   0.50000   0.00000  Uiso   1.00
O1001  O     0.89441   0.87154   0.50000   0.00000  Uiso   1.00
O1002  O     0.77226   0.79513   0.50000   0.00000  Uiso   1.00
O1003  O     0.83334   0.87155   0.42845   0.00000  Uiso   1.00
O1004  O     0.83333   0.79512   0.57155   0.00000  Uiso   1.00
O1005  O     0.83333   0.87155   0.57155   0.00000  Uiso   1.00
O1006  O     0.83334   0.79512   0.42845   0.00000  Uiso   1.00
Zn1007 Zn    0.83333   0.88437   0.50000   0.00000  Uiso   1.00
Zn1008 Zn    0.83333   0.78229   0.50000   0.00000  Uiso   1.00
C1009  C     0.08672   0.16669   0.83291   0.00000  Uiso   1.00
C1010  C     0.02122   0.20693   0.82250   0.00000  Uiso   1.00
C1011  C     0.29082   0.16660   0.83061   0.00000  Uiso   1.00
C1012  C     0.04253   0.16672   0.83160   0.00000  Uiso   1.00
C1013  C     0.18459   0.02388   0.87223   0.00000  Uiso   1.00
C1014  C     0.14730   0.30945   0.79530   0.00000  Uiso   1.00
C1015  C     0.14678   0.02436   0.79581   0.00000  Uiso   1.00
C1016  C     0.18493   0.30916   0.87205   0.00000  Uiso   1.00
C1017  C     0.24479   0.05386   0.91809   0.00000  Uiso   1.00
C1018  C     0.14338   0.28675   0.70759   0.00000  Uiso   1.00
C1019  C     0.08046   0.04797   0.75742   0.00000  Uiso   1.00
C1020  C     0.24662   0.16666   0.83244   0.00000  Uiso   1.00
C1021  C     0.24664   0.27498   0.91072   0.00000  Uiso   1.00
C1022  C     0.16669   0.16671   0.73964   0.00000  Uiso   1.00
C1023  C     0.16684   0.16660   0.92702   0.00000  Uiso   1.00
C1024  C     0.16687   0.16667   0.68849   0.00000  Uiso   1.00
C1025  C     0.16692   0.16652   0.97817   0.00000  Uiso   1.00
C1026  C     0.02142   0.12635   0.83894   0.00000  Uiso   1.00
C1027  C     0.31189   0.20684   0.82197   0.00000  Uiso   1.00
C1028  C     0.31222   0.12623   0.83780   0.00000  Uiso   1.00
H1029  H     0.03761   0.09500   0.84598   0.00000  Uiso   1.00
H1030  H     0.13299   0.31709   0.68677   0.00000  Uiso   1.00
H1031  H     0.13233   0.25726   0.68591   0.00000  Uiso   1.00
H1032  H     0.17793   0.28569   0.70984   0.00000  Uiso   1.00
H1033  H     0.13929   0.05032   0.72326   0.00000  Uiso   1.00
H1034  H     0.06885   0.02708   0.72579   0.00000  Uiso   1.00
H1035  H     0.06835   0.08257   0.75207   0.00000  Uiso   1.00
H1036  H     0.06833   0.03431   0.79319   0.00000  Uiso   1.00
H1037  H     0.19343   0.29554   0.94821   0.00000  Uiso   1.00
H1038  H     0.26425   0.29377   0.93994   0.00000  Uiso   1.00
H1039  H     0.25947   0.28363   0.87347   0.00000  Uiso   1.00
H1040  H     0.29560   0.23806   0.81470   0.00000  Uiso   1.00
H1041  H     0.25148   0.23869   0.91822   0.00000  Uiso   1.00
H1042  H     0.29632   0.09469   0.84304   0.00000  Uiso   1.00
H1043  H     0.03735   0.23827   0.81585   0.00000  Uiso   1.00
H1044  H     0.18654   0.03938   0.94810   0.00000  Uiso   1.00
H1045  H     0.25727   0.03800   0.95296   0.00000  Uiso   1.00
H1046  H     0.25172   0.09028   0.92007   0.00000  Uiso   1.00
H1047  H     0.26087   0.03909   0.88549   0.00000  Uiso   1.00
H1048  H     0.09383   0.28921   0.75724   0.00000  Uiso   1.00
N1049  N     0.16667   0.28573   0.83333   0.00000  Uiso   1.00
N1050  N     0.16667   0.04760   0.83333   0.00000  Uiso   1.00
N1051  N     0.20022   0.04760   0.91460   0.00000  Uiso   1.00
N1052  N     0.12566   0.28529   0.75715   0.00000  Uiso   1.00
N1053  N     0.12546   0.04914   0.75778   0.00000  Uiso   1.00
N1054  N     0.20269   0.28518   0.91333   0.00000  Uiso   1.00
O1055  O     0.10559   0.20487   0.83333   0.00000  Uiso   1.00
O1056  O     0.22774   0.12846   0.83334   0.00000  Uiso   1.00
O1057  O     0.22774   0.20487   0.83334   0.00000  Uiso   1.00
O1058  O     0.10559   0.12846   0.83333   0.00000  Uiso   1.00
O1059  O     0.16667   0.20488   0.76178   0.00000  Uiso   1.00
O1060  O     0.16666   0.12845   0.90489   0.00000  Uiso   1.00
O1061  O     0.16666   0.20488   0.90489   0.00000  Uiso   1.00
O1062  O     0.16667   0.12845   0.76178   0.00000  Uiso   1.00
Zn1063 Zn    0.16667   0.21771   0.83333   0.00000  Uiso   1.00
Zn1064 Zn    0.16667   0.11563   0.83333   0.00000  Uiso   1.00
C1065  C     0.42005   0.16669   0.83291   0.00000  Uiso   1.00
C1066  C     0.35455   0.20693   0.82250   0.00000  Uiso   1.00
C1067  C     0.62415   0.16660   0.83061   0.00000  Uiso   1.00
C1068  C     0.37586   0.16672   0.83160   0.00000  Uiso   1.00
C1069  C     0.51792   0.02388   0.87223   0.00000  Uiso   1.00
C1070  C     0.48064   0.30945   0.79530   0.00000  Uiso   1.00
C1071  C     0.48012   0.02436   0.79581   0.00000  Uiso   1.00
C1072  C     0.51827   0.30916   0.87205   0.00000  Uiso   1.00
C1073  C     0.57813   0.05386   0.91809   0.00000  Uiso   1.00
C1074  C     0.47671   0.28675   0.70759   0.00000  Uiso   1.00
C1075  C     0.41379   0.04797   0.75742   0.00000  Uiso   1.00
C1076  C     0.57996   0.16666   0.83244   0.00000  Uiso   1.00
C1077  C     0.57998   0.27498   0.91072   0.00000  Uiso   1.00
C1078  C     0.50002   0.16671   0.73964   0.00000  Uiso   1.00
C1079  C     0.50017   0.16660   0.92702   0.00000  Uiso   1.00
C1080  C     0.50020   0.16667   0.68849   0.00000  Uiso   1.00
C1081  C     0.50025   0.16652   0.97817   0.00000  Uiso   1.00
C1082  C     0.35476   0.12635   0.83894   0.00000  Uiso   1.00
C1083  C     0.64523   0.20684   0.82197   0.00000  Uiso   1.00
C1084  C     0.64555   0.12623   0.83780   0.00000  Uiso   1.00
H1085  H     0.37094   0.09500   0.84598   0.00000  Uiso   1.00
H1086  H     0.46632   0.31709   0.68677   0.00000  Uiso   1.00
H1087  H     0.46566   0.25726   0.68591   0.00000  Uiso   1.00
H1088  H     0.51127   0.28569   0.70984   0.00000  Uiso   1.00
H1089  H     0.47262   0.05032   0.72326   0.00000  Uiso   1.00
H1090  H     0.40219   0.02708   0.72579   0.00000  Uiso   1.00
H1091  H     0.40168   0.08257   0.75207   0.00000  Uiso   1.00
H1092  H     0.40167   0.03431   0.79319   0.00000  Uiso   1.00
H1093  H     0.52676   0.29554   0.94821   0.00000  Uiso   1.00
H1094  H     0.59758   0.29377   0.93994   0.00000  Uiso   1.00
H1095  H     0.59280   0.28363   0.87347   0.00000  Uiso   1.00
H1096  H     0.62893   0.23806   0.81470   0.00000  Uiso   1.00
H1097  H     0.58482   0.23869   0.91822   0.00000  Uiso   1.00
H1098  H     0.62965   0.09469   0.84304   0.00000  Uiso   1.00
H1099  H     0.37068   0.23827   0.81585   0.00000  Uiso   1.00
H1100  H     0.51988   0.03938   0.94810   0.00000  Uiso   1.00
H1101  H     0.59060   0.03800   0.95296   0.00000  Uiso   1.00
H1102  H     0.58505   0.09028   0.92007   0.00000  Uiso   1.00
H1103  H     0.59420   0.03909   0.88549   0.00000  Uiso   1.00
H1104  H     0.42717   0.28921   0.75724   0.00000  Uiso   1.00
N1105  N     0.50000   0.28573   0.83333   0.00000  Uiso   1.00
N1106  N     0.50000   0.04760   0.83333   0.00000  Uiso   1.00
N1107  N     0.53356   0.04760   0.91460   0.00000  Uiso   1.00
N1108  N     0.45899   0.28529   0.75715   0.00000  Uiso   1.00
N1109  N     0.45879   0.04914   0.75778   0.00000  Uiso   1.00
N1110  N     0.53603   0.28518   0.91333   0.00000  Uiso   1.00
O1111  O     0.43892   0.20487   0.83333   0.00000  Uiso   1.00
O1112  O     0.56108   0.12846   0.83334   0.00000  Uiso   1.00
O1113  O     0.56108   0.20487   0.83334   0.00000  Uiso   1.00
O1114  O     0.43892   0.12846   0.83333   0.00000  Uiso   1.00
O1115  O     0.50000   0.20488   0.76178   0.00000  Uiso   1.00
O1116  O     0.50000   0.12845   0.90489   0.00000  Uiso   1.00
O1117  O     0.50000   0.20488   0.90489   0.00000  Uiso   1.00
O1118  O     0.50000   0.12845   0.76178   0.00000  Uiso   1.00
Zn1119 Zn    0.50000   0.21771   0.83333   0.00000  Uiso   1.00
Zn1120 Zn    0.50000   0.11563   0.83333   0.00000  Uiso   1.00
C1121  C     0.75338   0.16669   0.83291   0.00000  Uiso   1.00
C1122  C     0.68789   0.20693   0.82250   0.00000  Uiso   1.00
C1123  C     0.95749   0.16660   0.83061   0.00000  Uiso   1.00
C1124  C     0.70920   0.16672   0.83160   0.00000  Uiso   1.00
C1125  C     0.85126   0.02388   0.87223   0.00000  Uiso   1.00
C1126  C     0.81397   0.30945   0.79530   0.00000  Uiso   1.00
C1127  C     0.81345   0.02436   0.79581   0.00000  Uiso   1.00
C1128  C     0.85160   0.30916   0.87205   0.00000  Uiso   1.00
C1129  C     0.91146   0.05386   0.91809   0.00000  Uiso   1.00
C1130  C     0.81005   0.28675   0.70759   0.00000  Uiso   1.00
C1131  C     0.74713   0.04797   0.75742   0.00000  Uiso   1.00
C1132  C     0.91329   0.16666   0.83244   0.00000  Uiso   1.00
C1133  C     0.91331   0.27498   0.91072   0.00000  Uiso   1.00
C1134  C     0.83335   0.16671   0.73964   0.00000  Uiso   1.00
C1135  C     0.83351   0.16660   0.92702   0.00000  Uiso   1.00
C1136  C     0.83353   0.16667   0.68849   0.00000  Uiso   1.00
C1137  C     0.83358   0.16652   0.97817   0.00000  Uiso   1.00
C1138  C     0.68809   0.12635   0.83894   0.00000  Uiso   1.00
C1139  C     0.97856   0.20684   0.82197   0.00000  Uiso   1.00
C1140  C     0.97889   0.12623   0.83780   0.00000  Uiso   1.00
H1141  H     0.70427   0.09500   0.84598   0.00000  Uiso   1.00
H1142  H     0.79965   0.31709   0.68677   0.00000  Uiso   1.00
H1143  H     0.79900   0.25726   0.68591   0.00000  Uiso   1.00
H1144  H     0.84460   0.28569   0.70984   0.00000  Uiso   1.00
H1145  H     0.80595   0.05032   0.72326   0.00000  Uiso   1.00
H1146  H     0.73552   0.02708   0.72579   0.00000  Uiso   1.00
H1147  H     0.73501   0.08257   0.75207   0.00000  Uiso   1.00
H1148  H     0.73500   0.03431   0.79319   0.00000  Uiso   1.00
H1149  H     0.86009   0.29554   0.94821   0.00000  Uiso   1.00
H1150  H     0.93091   0.29377   0.93994   0.00000  Uiso   1.00
H1151  H     0.92613   0.28363   0.87347   0.00000  Uiso   1.00
H1152  H     0.96227   0.23806   0.81470   0.00000  Uiso   1.00
H1153  H     0.91815   0.23869   0.91822   0.00000  Uiso   1.00
H1154  H     0.96298   0.09469   0.84304   0.00000  Uiso   1.00
H1155  H     0.70402   0.23827   0.81585   0.00000  Uiso   1.00
H1156  H     0.85321   0.03938   0.94810   0.00000  Uiso   1.00
H1157  H     0.92393   0.03800   0.95296   0.00000  Uiso   1.00
H1158  H     0.91839   0.09028   0.92007   0.00000  Uiso   1.00
H1159  H     0.92754   0.03909   0.88549   0.00000  Uiso   1.00
H1160  H     0.76050   0.28921   0.75724   0.00000  Uiso   1.00
N1161  N     0.83333   0.28573   0.83333   0.00000  Uiso   1.00
N1162  N     0.83333   0.04760   0.83333   0.00000  Uiso   1.00
N1163  N     0.86689   0.04760   0.91460   0.00000  Uiso   1.00
N1164  N     0.79233   0.28529   0.75715   0.00000  Uiso   1.00
N1165  N     0.79212   0.04914   0.75778   0.00000  Uiso   1.00
N1166  N     0.86936   0.28518   0.91333   0.00000  Uiso   1.00
O1167  O     0.77226   0.20487   0.83333   0.00000  Uiso   1.00
O1168  O     0.89441   0.12846   0.83334   0.00000  Uiso   1.00
O1169  O     0.89441   0.20487   0.83334   0.00000  Uiso   1.00
O1170  O     0.77226   0.12846   0.83333   0.00000  Uiso   1.00
O1171  O     0.83334   0.20488   0.76178   0.00000  Uiso   1.00
O1172  O     0.83333   0.12845   0.90489   0.00000  Uiso   1.00
O1173  O     0.83333   0.20488   0.90489   0.00000  Uiso   1.00
O1174  O     0.83334   0.12845   0.76178   0.00000  Uiso   1.00
Zn1175 Zn    0.83333   0.21771   0.83333   0.00000  Uiso   1.00
Zn1176 Zn    0.83333   0.11563   0.83333   0.00000  Uiso   1.00
C1177  C     0.08672   0.50003   0.83291   0.00000  Uiso   1.00
C1178  C     0.02122   0.54026   0.82250   0.00000  Uiso   1.00
C1179  C     0.29082   0.49993   0.83061   0.00000  Uiso   1.00
C1180  C     0.04253   0.50005   0.83160   0.00000  Uiso   1.00
C1181  C     0.18459   0.35721   0.87223   0.00000  Uiso   1.00
C1182  C     0.14730   0.64279   0.79530   0.00000  Uiso   1.00
C1183  C     0.14678   0.35770   0.79581   0.00000  Uiso   1.00
C1184  C     0.18493   0.64250   0.87205   0.00000  Uiso   1.00
C1185  C     0.24479   0.38719   0.91809   0.00000  Uiso   1.00
C1186  C     0.14338   0.62009   0.70759   0.00000  Uiso   1.00
C1187  C     0.08046   0.38131   0.75742   0.00000  Uiso   1.00
C1188  C     0.24662   0.49999   0.83244   0.00000  Uiso   1.00
C1189  C     0.24664   0.60832   0.91072   0.00000  Uiso   1.00
C1190  C     0.16669   0.50004   0.73964   0.00000  Uiso   1.00
C1191  C     0.16684   0.49993   0.92702   0.00000  Uiso   1.00
C1192  C     0.16687   0.50000   0.68849   0.00000  Uiso   1.00
C1193  C     0.16692   0.49986   0.97817   0.00000  Uiso   1.00
C1194  C     0.02142   0.45968   0.83894   0.00000  Uiso   1.00
C1195  C     0.31189   0.54017   0.82197   0.00000  Uiso   1.00
C1196  C     0.31222   0.45956   0.83780   0.00000  Uiso   1.00
H1197  H     0.03761   0.42833   0.84598   0.00000  Uiso   1.00
H1198  H     0.13299   0.65042   0.68677   0.00000  Uiso   1.00
H1199  H     0.13233   0.59059   0.68591   0.00000  Uiso   1.00
H1200  H     0.17793   0.61903   0.70984   0.00000  Uiso   1.00
H1201  H     0.13929   0.38366   0.72326   0.00000  Uiso   1.00
H1202  H     0.06885   0.36042   0.72579   0.00000  Uiso   1.00
H1203  H     0.06835   0.41591   0.75207   0.00000  Uiso   1.00
H1204  H     0.06833   0.36765   0.79319   0.00000  Uiso   1.00
H1205  H     0.19343   0.62888   0.94821   0.00000  Uiso   1.00
H1206  H     0.26425   0.62710   0.93994   0.00000  Uiso   1.00
H1207  H     0.25947   0.61696   0.87347   0.00000  Uiso   1.00
H1208  H     0.29560   0.57140   0.81470   0.00000  Uiso   1.00
H1209  H     0.25148   0.57202   0.91822   0.00000  Uiso   1.00
H1210  H     0.29632   0.42802   0.84304   0.00000  Uiso   1.00
H1211  H     0.03735   0.57161   0.81585   0.00000  Uiso   1.00
H1212  H     0.18654   0.37271   0.94810   0.00000  Uiso   1.00
H1213  H     0.25727   0.37133   0.95296   0.00000  Uiso   1.00
H1214  H     0.25172   0.42362   0.92007   0.00000  Uiso   1.00
H1215  H     0.26087   0.37243   0.88549   0.00000  Uiso   1.00
H1216  H     0.09383   0.62255   0.75724   0.00000  Uiso   1.00
N1217  N     0.16667   0.61907   0.83333   0.00000  Uiso   1.00
N1218  N     0.16667   0.38093   0.83333   0.00000  Uiso   1.00
N1219  N     0.20022   0.38093   0.91460   0.00000  Uiso   1.00
N1220  N     0.12566   0.61862   0.75715   0.00000  Uiso   1.00
N1221  N     0.12546   0.38248   0.75778   0.00000  Uiso   1.00
N1222  N     0.20269   0.61852   0.91333   0.00000  Uiso   1.00
O1223  O     0.10559   0.53821   0.83333   0.00000  Uiso   1.00
O1224  O     0.22774   0.46179   0.83334   0.00000  Uiso   1.00
O1225  O     0.22774   0.53821   0.83334   0.00000  Uiso   1.00
O1226  O     0.10559   0.46179   0.83333   0.00000  Uiso   1.00
O1227  O     0.16667   0.53821   0.76178   0.00000  Uiso   1.00
O1228  O     0.16666   0.46179   0.90489   0.00000  Uiso   1.00
O1229  O     0.16666   0.53821   0.90489   0.00000  Uiso   1.00
O1230  O     0.16667   0.46179   0.76178   0.00000  Uiso   1.00
Zn1231 Zn    0.16667   0.55104   0.83333   0.00000  Uiso   1.00
Zn1232 Zn    0.16667   0.44896   0.83333   0.00000  Uiso   1.00
C1233  C     0.42005   0.50003   0.83291   0.00000  Uiso   1.00
C1234  C     0.35455   0.54026   0.82250   0.00000  Uiso   1.00
C1235  C     0.62415   0.49993   0.83061   0.00000  Uiso   1.00
C1236  C     0.37586   0.50005   0.83160   0.00000  Uiso   1.00
C1237  C     0.51792   0.35721   0.87223   0.00000  Uiso   1.00
C1238  C     0.48064   0.64279   0.79530   0.00000  Uiso   1.00
C1239  C     0.48012   0.35770   0.79581   0.00000  Uiso   1.00
C1240  C     0.51827   0.64250   0.87205   0.00000  Uiso   1.00
C1241  C     0.57813   0.38719   0.91809   0.00000  Uiso   1.00
C1242  C     0.47671   0.62009   0.70759   0.00000  Uiso   1.00
C1243  C     0.41379   0.38131   0.75742   0.00000  Uiso   1.00
C1244  C     0.57996   0.49999   0.83244   0.00000  Uiso   1.00
C1245  C     0.57998   0.60832   0.91072   0.00000  Uiso   1.00
C1246  C     0.50002   0.50004   0.73964   0.00000  Uiso   1.00
C1247  C     0.50017   0.49993   0.92702   0.00000  Uiso   1.00
C1248  C     0.50020   0.50000   0.68849   0.00000  Uiso   1.00
C1249  C     0.50025   0.49986   0.97817   0.00000  Uiso   1.00
C1250  C     0.35476   0.45968   0.83894   0.00000  Uiso   1.00
C1251  C     0.64523   0.54017   0.82197   0.00000  Uiso   1.00
C1252  C     0.64555   0.45956   0.83780   0.00000  Uiso   1.00
H1253  H     0.37094   0.42833   0.84598   0.00000  Uiso   1.00
H1254  H     0.46632   0.65042   0.68677   0.00000  Uiso   1.00
H1255  H     0.46566   0.59059   0.68591   0.00000  Uiso   1.00
H1256  H     0.51127   0.61903   0.70984   0.00000  Uiso   1.00
H1257  H     0.47262   0.38366   0.72326   0.00000  Uiso   1.00
H1258  H     0.40219   0.36042   0.72579   0.00000  Uiso   1.00
H1259  H     0.40168   0.41591   0.75207   0.00000  Uiso   1.00
H1260  H     0.40167   0.36765   0.79319   0.00000  Uiso   1.00
H1261  H     0.52676   0.62888   0.94821   0.00000  Uiso   1.00
H1262  H     0.59758   0.62710   0.93994   0.00000  Uiso   1.00
H1263  H     0.59280   0.61696   0.87347   0.00000  Uiso   1.00
H1264  H     0.62893   0.57140   0.81470   0.00000  Uiso   1.00
H1265  H     0.58482   0.57202   0.91822   0.00000  Uiso   1.00
H1266  H     0.62965   0.42802   0.84304   0.00000  Uiso   1.00
H1267  H     0.37068   0.57161   0.81585   0.00000  Uiso   1.00
H1268  H     0.51988   0.37271   0.94810   0.00000  Uiso   1.00
H1269  H     0.59060   0.37133   0.95296   0.00000  Uiso   1.00
H1270  H     0.58505   0.42362   0.92007   0.00000  Uiso   1.00
H1271  H     0.59420   0.37243   0.88549   0.00000  Uiso   1.00
H1272  H     0.42717   0.62255   0.75724   0.00000  Uiso   1.00
N1273  N     0.50000   0.61907   0.83333   0.00000  Uiso   1.00
N1274  N     0.50000   0.38093   0.83333   0.00000  Uiso   1.00
N1275  N     0.53356   0.38093   0.91460   0.00000  Uiso   1.00
N1276  N     0.45899   0.61862   0.75715   0.00000  Uiso   1.00
N1277  N     0.45879   0.38248   0.75778   0.00000  Uiso   1.00
N1278  N     0.53603   0.61852   0.91333   0.00000  Uiso   1.00
O1279  O     0.43892   0.53821   0.83333   0.00000  Uiso   1.00
O1280  O     0.56108   0.46179   0.83334   0.00000  Uiso   1.00
O1281  O     0.56108   0.53821   0.83334   0.00000  Uiso   1.00
O1282  O     0.43892   0.46179   0.83333   0.00000  Uiso   1.00
O1283  O     0.50000   0.53821   0.76178   0.00000  Uiso   1.00
O1284  O     0.50000   0.46179   0.90489   0.00000  Uiso   1.00
O1285  O     0.50000   0.53821   0.90489   0.00000  Uiso   1.00
O1286  O     0.50000   0.46179   0.76178   0.00000  Uiso   1.00
Zn1287 Zn    0.50000   0.55104   0.83333   0.00000  Uiso   1.00
Zn1288 Zn    0.50000   0.44896   0.83333   0.00000  Uiso   1.00
C1289  C     0.75338   0.50003   0.83291   0.00000  Uiso   1.00
C1290  C     0.68789   0.54026   0.82250   0.00000  Uiso   1.00
C1291  C     0.95749   0.49993   0.83061   0.00000  Uiso   1.00
C1292  C     0.70920   0.50005   0.83160   0.00000  Uiso   1.00
C1293  C     0.85126   0.35721   0.87223   0.00000  Uiso   1.00
C1294  C     0.81397   0.64279   0.79530   0.00000  Uiso   1.00
C1295  C     0.81345   0.35770   0.79581   0.00000  Uiso   1.00
C1296  C     0.85160   0.64250   0.87205   0.00000  Uiso   1.00
C1297  C     0.91146   0.38719   0.91809   0.00000  Uiso   1.00
C1298  C     0.81005   0.62009   0.70759   0.00000  Uiso   1.00
C1299  C     0.74713   0.38131   0.75742   0.00000  Uiso   1.00
C1300  C     0.91329   0.49999   0.83244   0.00000  Uiso   1.00
C1301  C     0.91331   0.60832   0.91072   0.00000  Uiso   1.00
C1302  C     0.83335   0.50004   0.73964   0.00000  Uiso   1.00
C1303  C     0.83351   0.49993   0.92702   0.00000  Uiso   1.00
C1304  C     0.83353   0.50000   0.68849   0.00000  Uiso   1.00
C1305  C     0.83358   0.49986   0.97817   0.00000  Uiso   1.00
C1306  C     0.68809   0.45968   0.83894   0.00000  Uiso   1.00
C1307  C     0.97856   0.54017   0.82197   0.00000  Uiso   1.00
C1308  C     0.97889   0.45956   0.83780   0.00000  Uiso   1.00
H1309  H     0.70427   0.42833   0.84598   0.00000  Uiso   1.00
H1310  H     0.79965   0.65042   0.68677   0.00000  Uiso   1.00
H1311  H     0.79900   0.59059   0.68591   0.00000  Uiso   1.00
H1312  H     0.84460   0.61903   0.70984   0.00000  Uiso   1.00
H1313  H     0.80595   0.38366   0.72326   0.00000  Uiso   1.00
H1314  H     0.73552   0.36042   0.72579   0.00000  Uiso   1.00
H1315  H     0.73501   0.41591   0.75207   0.00000  Uiso   1.00
H1316  H     0.73500   0.36765   0.79319   0.00000  Uiso   1.00
H1317  H     0.86009   0.62888   0.94821   0.00000  Uiso   1.00
H1318  H     0.93091   0.62710   0.93994   0.00000  Uiso   1.00
H1319  H     0.92613   0.61696   0.87347   0.00000  Uiso   1.00
H1320  H     0.96227   0.57140   0.81470   0.00000  Uiso   1.00
H1321  H     0.91815   0.57202   0.91822   0.00000  Uiso   1.00
H1322  H     0.96298   0.42802   0.84304   0.00000  Uiso   1.00
H1323  H     0.70402   0.57161   0.81585   0.00000  Uiso   1.00
H1324  H     0.85321   0.37271   0.94810   0.00000  Uiso   1.00
H1325  H     0.92393   0.37133   0.95296   0.00000  Uiso   1.00
H1326  H     0.91839   0.42362   0.92007   0.00000  Uiso   1.00
H1327  H     0.92754   0.37243   0.88549   0.00000  Uiso   1.00
H1328  H     0.76050   0.62255   0.75724   0.00000  Uiso   1.00
N1329  N     0.83333   0.61907   0.83333   0.00000  Uiso   1.00
N1330  N     0.83333   0.38093   0.83333   0.00000  Uiso   1.00
N1331  N     0.86689   0.38093   0.91460   0.00000  Uiso   1.00
N1332  N     0.79233   0.61862   0.75715   0.00000  Uiso   1.00
N1333  N     0.79212   0.38248   0.75778   0.00000  Uiso   1.00
N1334  N     0.86936   0.61852   0.91333   0.00000  Uiso   1.00
O1335  O     0.77226   0.53821   0.83333   0.00000  Uiso   1.00
O1336  O     0.89441   0.46179   0.83334   0.00000  Uiso   1.00
O1337  O     0.89441   0.53821   0.83334   0.00000  Uiso   1.00
O1338  O     0.77226   0.46179   0.83333   0.00000  Uiso   1.00
O1339  O     0.83334   0.53821   0.76178   0.00000  Uiso   1.00
O1340  O     0.83333   0.46179   0.90489   0.00000  Uiso   1.00
O1341  O     0.83333   0.53821   0.90489   0.00000  Uiso   1.00
O1342  O     0.83334   0.46179   0.76178   0.00000  Uiso   1.00
Zn1343 Zn    0.83333   0.55104   0.83333   0.00000  Uiso   1.00
Zn1344 Zn    0.83333   0.44896   0.83333   0.00000  Uiso   1.00
C1345  C     0.08672   0.83336   0.83291   0.00000  Uiso   1.00
C1346  C     0.02122   0.87359   0.82250   0.00000  Uiso   1.00
C1347  C     0.29082   0.83326   0.83061   0.00000  Uiso   1.00
C1348  C     0.04253   0.83338   0.83160   0.00000  Uiso   1.00
C1349  C     0.18459   0.69055   0.87223   0.00000  Uiso   1.00
C1350  C     0.14730   0.97612   0.79530   0.00000  Uiso   1.00
C1351  C     0.14678   0.69103   0.79581   0.00000  Uiso   1.00
C1352  C     0.18493   0.97583   0.87205   0.00000  Uiso   1.00
C1353  C     0.24479   0.72053   0.91809   0.00000  Uiso   1.00
C1354  C     0.14338   0.95342   0.70759   0.00000  Uiso   1.00
C1355  C     0.08046   0.71464   0.75742   0.00000  Uiso   1.00
C1356  C     0.24662   0.83333   0.83244   0.00000  Uiso   1.00
C1357  C     0.24664   0.94165   0.91072   0.00000  Uiso   1.00
C1358  C     0.16669   0.83338   0.73964   0.00000  Uiso   1.00
C1359  C     0.16684   0.83326   0.92702   0.00000  Uiso   1.00
C1360  C     0.16687   0.83334   0.68849   0.00000  Uiso   1.00
C1361  C     0.16692   0.83319   0.97817   0.00000  Uiso   1.00
C1362  C     0.02142   0.79301   0.83894   0.00000  Uiso   1.00
C1363  C     0.31189   0.87351   0.82197   0.00000  Uiso   1.00
C1364  C     0.31222   0.79289   0.83780   0.00000  Uiso   1.00
H1365  H     0.03761   0.76166   0.84598   0.00000  Uiso   1.00
H1366  H     0.13299   0.98376   0.68677   0.00000  Uiso   1.00
H1367  H     0.13233   0.92392   0.68591   0.00000  Uiso   1.00
H1368  H     0.17793   0.95236   0.70984   0.00000  Uiso   1.00
H1369  H     0.13929   0.71699   0.72326   0.00000  Uiso   1.00
H1370  H     0.06885   0.69375   0.72579   0.00000  Uiso   1.00
H1371  H     0.06835   0.74924   0.75207   0.00000  Uiso   1.00
H1372  H     0.06833   0.70098   0.79319   0.00000  Uiso   1.00
H1373  H     0.19343   0.96221   0.94821   0.00000  Uiso   1.00
H1374  H     0.26425   0.96044   0.93994   0.00000  Uiso   1.00
H1375  H     0.25947   0.95029   0.87347   0.00000  Uiso   1.00
H1376  H     0.29560   0.90473   0.81470   0.00000  Uiso   1.00
H1377  H     0.25148   0.90535   0.91822   0.00000  Uiso   1.00
H1378  H     0.29632   0.76136   0.84304   0.00000  Uiso   1.00
H1379  H     0.03735   0.90494   0.81585   0.00000  Uiso   1.00
H1380  H     0.18654   0.70605   0.94810   0.00000  Uiso   1.00
H1381  H     0.25727   0.70467   0.95296   0.00000  Uiso   1.00
H1382  H     0.25172   0.75695   0.92007   0.00000  Uiso   1.00
H1383  H     0.26087   0.70576   0.88549   0.00000  Uiso   1.00
H1384  H     0.09383   0.95588   0.75724   0.00000  Uiso   1.00
N1385  N     0.16667   0.95240   0.83333   0.00000  Uiso   1.00
N1386  N     0.16667   0.71427   0.83333   0.00000  Uiso   1.00
N1387  N     0.20022   0.71427   0.91460   0.00000  Uiso   1.00
N1388  N     0.12566   0.95196   0.75715   0.00000  Uiso   1.00
N1389  N     0.12546   0.71581   0.75778   0.00000  Uiso   1.00
N1390  N     0.20269   0.95185   0.91333   0.00000  Uiso   1.00
O1391  O     0.10559   0.87154   0.83333   0.00000  Uiso   1.00
O1392  O     0.22774   0.79513   0.83334   0.00000  Uiso   1.00
O1393  O     0.22774   0.87154   0.83334   0.00000  Uiso   1.00
O1394  O     0.10559   0.79513   0.83333   0.00000  Uiso   1.00
O1395  O     0.16667   0.87155   0.76178   0.00000  Uiso   1.00
O1396  O     0.16666   0.79512   0.90489   0.00000  Uiso   1.00
O1397  O     0.16666   0.87155   0.90489   0.00000  Uiso   1.00
O1398  O     0.16667   0.79512   0.76178   0.00000  Uiso   1.00
Zn1399 Zn    0.16667   0.88437   0.83333   0.00000  Uiso   1.00
Zn1400 Zn    0.16667   0.78229   0.83333   0.00000  Uiso   1.00
C1401  C     0.42005   0.83336   0.83291   0.00000  Uiso   1.00
C1402  C     0.35455   0.87359   0.82250   0.00000  Uiso   1.00
C1403  C     0.62415   0.83326   0.83061   0.00000  Uiso   1.00
C1404  C     0.37586   0.83338   0.83160   0.00000  Uiso   1.00
C1405  C     0.51792   0.69055   0.87223   0.00000  Uiso   1.00
C1406  C     0.48064   0.97612   0.79530   0.00000  Uiso   1.00
C1407  C     0.48012   0.69103   0.79581   0.00000  Uiso   1.00
C1408  C     0.51827   0.97583   0.87205   0.00000  Uiso   1.00
C1409  C     0.57813   0.72053   0.91809   0.00000  Uiso   1.00
C1410  C     0.47671   0.95342   0.70759   0.00000  Uiso   1.00
C1411  C     0.41379   0.71464   0.75742   0.00000  Uiso   1.00
C1412  C     0.57996   0.83333   0.83244   0.00000  Uiso   1.00
C1413  C     0.57998   0.94165   0.91072   0.00000  Uiso   1.00
C1414  C     0.50002   0.83338   0.73964   0.00000  Uiso   1.00
C1415  C     0.50017   0.83326   0.92702   0.00000  Uiso   1.00
C1416  C     0.50020   0.83334   0.68849   0.00000  Uiso   1.00
C1417  C     0.50025   0.83319   0.97817   0.00000  Uiso   1.00
C1418  C     0.35476   0.79301   0.83894   0.00000  Uiso   1.00
C1419  C     0.64523   0.87351   0.82197   0.00000  Uiso   1.00
C1420  C     0.64555   0.79289   0.83780   0.00000  Uiso   1.00
H1421  H     0.37094   0.76166   0.84598   0.00000  Uiso   1.00
H1422  H     0.46632   0.98376   0.68677   0.00000  Uiso   1.00
H1423  H     0.46566   0.92392   0.68591   0.00000  Uiso   1.00
H1424  H     0.51127   0.95236   0.70984   0.00000  Uiso   1.00
H1425  H     0.47262   0.71699   0.72326   0.00000  Uiso   1.00
H1426  H     0.40219   0.69375   0.72579   0.00000  Uiso   1.00
H1427  H     0.40168   0.74924   0.75207   0.00000  Uiso   1.00
H1428  H     0.40167   0.70098   0.79319   0.00000  Uiso   1.00
H1429  H     0.52676   0.96221   0.94821   0.00000  Uiso   1.00
H1430  H     0.59758   0.96044   0.93994   0.00000  Uiso   1.00
H1431  H     0.59280   0.95029   0.87347   0.00000  Uiso   1.00
H1432  H     0.62893   0.90473   0.81470   0.00000  Uiso   1.00
H1433  H     0.58482   0.90535   0.91822   0.00000  Uiso   1.00
H1434  H     0.62965   0.76136   0.84304   0.00000  Uiso   1.00
H1435  H     0.37068   0.90494   0.81585   0.00000  Uiso   1.00
H1436  H     0.51988   0.70605   0.94810   0.00000  Uiso   1.00
H1437  H     0.59060   0.70467   0.95296   0.00000  Uiso   1.00
H1438  H     0.58505   0.75695   0.92007   0.00000  Uiso   1.00
H1439  H     0.59420   0.70576   0.88549   0.00000  Uiso   1.00
H1440  H     0.42717   0.95588   0.75724   0.00000  Uiso   1.00
N1441  N     0.50000   0.95240   0.83333   0.00000  Uiso   1.00
N1442  N     0.50000   0.71427   0.83333   0.00000  Uiso   1.00
N1443  N     0.53356   0.71427   0.91460   0.00000  Uiso   1.00
N1444  N     0.45899   0.95196   0.75715   0.00000  Uiso   1.00
N1445  N     0.45879   0.71581   0.75778   0.00000  Uiso   1.00
N1446  N     0.53603   0.95185   0.91333   0.00000  Uiso   1.00
O1447  O     0.43892   0.87154   0.83333   0.00000  Uiso   1.00
O1448  O     0.56108   0.79513   0.83334   0.00000  Uiso   1.00
O1449  O     0.56108   0.87154   0.83334   0.00000  Uiso   1.00
O1450  O     0.43892   0.79513   0.83333   0.00000  Uiso   1.00
O1451  O     0.50000   0.87155   0.76178   0.00000  Uiso   1.00
O1452  O     0.50000   0.79512   0.90489   0.00000  Uiso   1.00
O1453  O     0.50000   0.87155   0.90489   0.00000  Uiso   1.00
O1454  O     0.50000   0.79512   0.76178   0.00000  Uiso   1.00
Zn1455 Zn    0.50000   0.88437   0.83333   0.00000  Uiso   1.00
Zn1456 Zn    0.50000   0.78229   0.83333   0.00000  Uiso   1.00
C1457  C     0.75338   0.83336   0.83291   0.00000  Uiso   1.00
C1458  C     0.68789   0.87359   0.82250   0.00000  Uiso   1.00
C1459  C     0.95749   0.83326   0.83061   0.00000  Uiso   1.00
C1460  C     0.70920   0.83338   0.83160   0.00000  Uiso   1.00
C1461  C     0.85126   0.69055   0.87223   0.00000  Uiso   1.00
C1462  C     0.81397   0.97612   0.79530   0.00000  Uiso   1.00
C1463  C     0.81345   0.69103   0.79581   0.00000  Uiso   1.00
C1464  C     0.85160   0.97583   0.87205   0.00000  Uiso   1.00
C1465  C     0.91146   0.72053   0.91809   0.00000  Uiso   1.00
C1466  C     0.81005   0.95342   0.70759   0.00000  Uiso   1.00
C1467  C     0.74713   0.71464   0.75742   0.00000  Uiso   1.00
C1468  C     0.91329   0.83333   0.83244   0.00000  Uiso   1.00
C1469  C     0.91331   0.94165   0.91072   0.00000  Uiso   1.00
C1470  C     0.83335   0.83338   0.73964   0.00000  Uiso   1.00
C1471  C     0.83351   0.83326   0.92702   0.00000  Uiso   1.00
C1472  C     0.83353   0.83334   0.68849   0.00000  Uiso   1.00
C1473  C     0.83358   0.83319   0.97817   0.00000  Uiso   1.00
C1474  C     0.68809   0.79301   0.83894   0.00000  Uiso   1.00
C1475  C     0.97856   0.87351   0.82197   0.00000  Uiso   1.00
C1476  C     0.97889   0.79289   0.83780   0.00000  Uiso   1.00
H1477  H     0.70427   0.76166   0.84598   0.00000  Uiso   1.00
H1478  H     0.79965   0.98376   0.68677   0.00000  Uiso   1.00
H1479  H     0.79900   0.92392   0.68591   0.00000  Uiso   1.00
H1480  H     0.84460   0.95236   0.70984   0.00000  Uiso   1.00
H1481  H     0.80595   0.71699   0.72326   0.00000  Uiso   1.00
H1482  H     0.73552   0.69375   0.72579   0.00000  Uiso   1.00
H1483  H     0.73501   0.74924   0.75207   0.00000  Uiso   1.00
H1484  H     0.73500   0.70098   0.79319   0.00000  Uiso   1.00
H1485  H     0.86009   0.96221   0.94821   0.00000  Uiso   1.00
H1486  H     0.93091   0.96044   0.93994   0.00000  Uiso   1.00
H1487  H     0.92613   0.95029   0.87347   0.00000  Uiso   1.00
H1488  H     0.96227   0.90473   0.81470   0.00000  Uiso   1.00
H1489  H     0.91815   0.90535   0.91822   0.00000  Uiso   1.00
H1490  H     0.96298   0.76136   0.84304   0.00000  Uiso   1.00
H1491  H     0.70402   0.90494   0.81585   0.00000  Uiso   1.00
H1492  H     0.85321   0.70605   0.94810   0.00000  Uiso   1.00
H1493  H     0.92393   0.70467   0.95296   0.00000  Uiso   1.00
H1494  H     0.91839   0.75695   0.92007   0.00000  Uiso   1.00
H1495  H     0.92754   0.70576   0.88549   0.00000  Uiso   1.00
H1496  H     0.76050   0.95588   0.75724   0.00000  Uiso   1.00
N1497  N     0.83333   0.95240   0.83333   0.00000  Uiso   1.00
N1498  N     0.83333   0.71427   0.83333   0.00000  Uiso   1.00
N1499  N     0.86689   0.71427   0.91460   0.00000  Uiso   1.00
N1500  N     0.79233   0.95196   0.75715   0.00000  Uiso   1.00
N1501  N     0.79212   0.71581   0.75778   0.00000  Uiso   1.00
N1502  N     0.86936   0.95185   0.91333   0.00000  Uiso   1.00
O1503  O     0.77226   0.87154   0.83333   0.00000  Uiso   1.00
O1504  O     0.89441   0.79513   0.83334   0.00000  Uiso   1.00
O1505  O     0.89441   0.87154   0.83334   0.00000  Uiso   1.00
O1506  O     0.77226   0.79513   0.83333   0.00000  Uiso   1.00
O1507  O     0.83334   0.87155   0.76178   0.00000  Uiso   1.00
O1508  O     0.83333   0.79512   0.90489   0.00000  Uiso   1.00
O1509  O     0.83333   0.87155   0.90489   0.00000  Uiso   1.00
O1510  O     0.83334   0.79512   0.76178   0.00000  Uiso   1.00
Zn1511 Zn    0.83333   0.88437   0.83333   0.00000  Uiso   1.00
Zn1512 Zn    0.83333   0.78229   0.83333   0.00000  Uiso   1.00
loop_
_geom_bond_atom_site_label_1
_geom_bond_atom_site_label_2
_geom_bond_distance
_geom_bond_site_symmetry_2
_ccdc_geom_bond_type
C1     O50     1.290   .     A
C1     C4      1.421   .     S
C1     O47     1.289   .     A
C2     H35     1.084   .     S
C2     C4      1.398   .     A
C2     C131    1.371   1_455 S
C3     C19     1.397   .     A
C3     C20     1.396   .     A
C3     C12     1.423   .     S
C4     C18     1.396   .     A
C5     N42     1.371   .     A
C5     N43     1.420   .     S
C5     C344    1.431   1_545 S
C6     N44     1.421   .     S
C6     N41     1.374   .     A
C6     C175    1.437   .     S
C7     N45     1.419   .     S
C7     N42     1.369   .     A
C7     C342    1.437   1_545 S
C8     N41     1.373   .     A
C8     N46     1.421   .     S
C8     C173    1.431   .     S
C9     H37     1.110   .     S
C9     H38     1.109   .     S
C9     N43     1.447   .     S
C9     H39     1.111   .     S
C10    H23     1.109   .     S
C10    H22     1.107   .     S
C10    N44     1.449   .     S
C10    H24     1.112   .     S
C11    H27     1.109   .     S
C11    H28     1.112   .     S
C11    N45     1.447   .     S
C11    H26     1.110   .     S
C12    O48     1.290   .     A
C12    O49     1.290   .     A
C13    H33     1.109   .     S
C13    N46     1.448   .     S
C13    H30     1.109   .     S
C13    H31     1.111   .     S
C14    O51     1.283   .     A
C14    O54     1.281   .     A
C14    C16     1.364   .     S
C15    O52     1.283   .     A
C15    O53     1.282   .     A
C15    C17     1.364   .     S
C16    C1025   1.164   1_554 S
C17    C520    1.164   .     S
C18    H21     1.083   .     S
C18    C132    1.368   1_455 S
C19    H32     1.082   .     S
C19    C58     1.371   .     S
C20    H34     1.079   .     S
C20    C74     1.368   .     S
H25    N45     1.030   .     S
H29    N46     1.030   .     S
H36    N43     1.031   .     S
H40    N44     1.030   .     S
N41    Zn55    2.026   .     S
N42    Zn56    2.026   .     S
O47    Zn55    2.001   .     S
O48    Zn56    2.001   .     S
O49    Zn55    2.000   .     S
O50    Zn56    2.000   .     S
O51    Zn55    1.948   .     S
O52    Zn56    1.948   .     S
O53    Zn55    1.945   .     S
O54    Zn56    1.945   .     S
C57    O106    1.290   .     A
C57    C60     1.421   .     S
C57    O103    1.289   .     A
C58    H91     1.084   .     S
C58    C60     1.398   .     A
C59    C75     1.397   .     A
C59    C76     1.396   .     A
C59    C68     1.423   .     S
C60    C74     1.396   .     A
C61    N98     1.371   .     A
C61    N99     1.420   .     S
C61    C400    1.431   1_545 S
C62    N100    1.421   .     S
C62    N97     1.374   .     A
C62    C231    1.437   .     S
C63    N101    1.419   .     S
C63    N98     1.369   .     A
C63    C398    1.437   1_545 S
C64    N97     1.373   .     A
C64    N102    1.421   .     S
C64    C229    1.431   .     S
C65    H93     1.110   .     S
C65    H94     1.109   .     S
C65    N99     1.447   .     S
C65    H95     1.111   .     S
C66    H79     1.109   .     S
C66    H78     1.107   .     S
C66    N100    1.449   .     S
C66    H80     1.112   .     S
C67    H83     1.109   .     S
C67    H84     1.112   .     S
C67    N101    1.447   .     S
C67    H82     1.110   .     S
C68    O104    1.290   .     A
C68    O105    1.290   .     A
C69    H89     1.109   .     S
C69    N102    1.448   .     S
C69    H86     1.109   .     S
C69    H87     1.111   .     S
C70    O107    1.283   .     A
C70    O110    1.281   .     A
C70    C72     1.364   .     S
C71    O108    1.283   .     A
C71    O109    1.282   .     A
C71    C73     1.364   .     S
C72    C1081   1.164   1_554 S
C73    C576    1.164   .     S
C74    H77     1.083   .     S
C75    H88     1.082   .     S
C75    C114    1.371   .     S
C76    H90     1.079   .     S
C76    C130    1.368   .     S
H81    N101    1.030   .     S
H85    N102    1.030   .     S
H92    N99     1.031   .     S
H96    N100    1.030   .     S
N97    Zn111   2.026   .     S
N98    Zn112   2.026   .     S
O103   Zn111   2.001   .     S
O104   Zn112   2.001   .     S
O105   Zn111   2.000   .     S
O106   Zn112   2.000   .     S
O107   Zn111   1.948   .     S
O108   Zn112   1.948   .     S
O109   Zn111   1.945   .     S
O110   Zn112   1.945   .     S
C113   O162    1.290   .     A
C113   C116    1.421   .     S
C113   O159    1.289   .     A
C114   H147    1.084   .     S
C114   C116    1.398   .     A
C115   C131    1.397   .     A
C115   C132    1.396   .     A
C115   C124    1.423   .     S
C116   C130    1.396   .     A
C117   N154    1.371   .     A
C117   N155    1.420   .     S
C117   C456    1.431   1_545 S
C118   N156    1.421   .     S
C118   N153    1.374   .     A
C118   C287    1.437   .     S
C119   N157    1.419   .     S
C119   N154    1.369   .     A
C119   C454    1.437   1_545 S
C120   N153    1.373   .     A
C120   N158    1.421   .     S
C120   C285    1.431   .     S
C121   H149    1.110   .     S
C121   H150    1.109   .     S
C121   N155    1.447   .     S
C121   H151    1.111   .     S
C122   H135    1.109   .     S
C122   H134    1.107   .     S
C122   N156    1.449   .     S
C122   H136    1.112   .     S
C123   H139    1.109   .     S
C123   H140    1.112   .     S
C123   N157    1.447   .     S
C123   H138    1.110   .     S
C124   O160    1.290   .     A
C124   O161    1.290   .     A
C125   H145    1.109   .     S
C125   N158    1.448   .     S
C125   H142    1.109   .     S
C125   H143    1.111   .     S
C126   O163    1.283   .     A
C126   O166    1.281   .     A
C126   C128    1.364   .     S
C127   O164    1.283   .     A
C127   O165    1.282   .     A
C127   C129    1.364   .     S
C128   C1137   1.164   1_554 S
C129   C632    1.164   .     S
C130   H133    1.083   .     S
C131   H144    1.082   .     S
C131   C2      1.371   1_655 S
C132   H146    1.079   .     S
C132   C18     1.368   1_655 S
H137   N157    1.030   .     S
H141   N158    1.030   .     S
H148   N155    1.031   .     S
H152   N156    1.030   .     S
N153   Zn167   2.026   .     S
N154   Zn168   2.026   .     S
O159   Zn167   2.001   .     S
O160   Zn168   2.001   .     S
O161   Zn167   2.000   .     S
O162   Zn168   2.000   .     S
O163   Zn167   1.948   .     S
O164   Zn168   1.948   .     S
O165   Zn167   1.945   .     S
O166   Zn168   1.945   .     S
C169   O218    1.290   .     A
C169   C172    1.421   .     S
C169   O215    1.289   .     A
C170   H203    1.084   .     S
C170   C172    1.398   .     A
C170   C299    1.371   1_455 S
C171   C187    1.397   .     A
C171   C188    1.396   .     A
C171   C180    1.423   .     S
C172   C186    1.396   .     A
C173   N210    1.371   .     A
C173   N211    1.420   .     S
C174   N212    1.421   .     S
C174   N209    1.374   .     A
C174   C343    1.437   .     S
C175   N213    1.419   .     S
C175   N210    1.369   .     A
C176   N209    1.373   .     A
C176   N214    1.421   .     S
C176   C341    1.431   .     S
C177   H205    1.110   .     S
C177   H206    1.109   .     S
C177   N211    1.447   .     S
C177   H207    1.111   .     S
C178   H191    1.109   .     S
C178   H190    1.107   .     S
C178   N212    1.449   .     S
C178   H192    1.112   .     S
C179   H195    1.109   .     S
C179   H196    1.112   .     S
C179   N213    1.447   .     S
C179   H194    1.110   .     S
C180   O216    1.290   .     A
C180   O217    1.290   .     A
C181   H201    1.109   .     S
C181   N214    1.448   .     S
C181   H198    1.109   .     S
C181   H199    1.111   .     S
C182   O219    1.283   .     A
C182   O222    1.281   .     A
C182   C184    1.364   .     S
C183   O220    1.283   .     A
C183   O221    1.282   .     A
C183   C185    1.364   .     S
C184   C1193   1.164   1_554 S
C185   C688    1.164   .     S
C186   H189    1.083   .     S
C186   C300    1.368   1_455 S
C187   H200    1.082   .     S
C187   C226    1.371   .     S
C188   H202    1.079   .     S
C188   C242    1.368   .     S
H193   N213    1.030   .     S
H197   N214    1.030   .     S
H204   N211    1.031   .     S
H208   N212    1.030   .     S
N209   Zn223   2.026   .     S
N210   Zn224   2.026   .     S
O215   Zn223   2.001   .     S
O216   Zn224   2.001   .     S
O217   Zn223   2.000   .     S
O218   Zn224   2.000   .     S
O219   Zn223   1.948   .     S
O220   Zn224   1.948   .     S
O221   Zn223   1.945   .     S
O222   Zn224   1.945   .     S
C225   O274    1.290   .     A
C225   C228    1.421   .     S
C225   O271    1.289   .     A
C226   H259    1.084   .     S
C226   C228    1.398   .     A
C227   C243    1.397   .     A
C227   C244    1.396   .     A
C227   C236    1.423   .     S
C228   C242    1.396   .     A
C229   N266    1.371   .     A
C229   N267    1.420   .     S
C230   N268    1.421   .     S
C230   N265    1.374   .     A
C230   C399    1.437   .     S
C231   N269    1.419   .     S
C231   N266    1.369   .     A
C232   N265    1.373   .     A
C232   N270    1.421   .     S
C232   C397    1.431   .     S
C233   H261    1.110   .     S
C233   H262    1.109   .     S
C233   N267    1.447   .     S
C233   H263    1.111   .     S
C234   H247    1.109   .     S
C234   H246    1.107   .     S
C234   N268    1.449   .     S
C234   H248    1.112   .     S
C235   H251    1.109   .     S
C235   H252    1.112   .     S
C235   N269    1.447   .     S
C235   H250    1.110   .     S
C236   O272    1.290   .     A
C236   O273    1.290   .     A
C237   H257    1.109   .     S
C237   N270    1.448   .     S
C237   H254    1.109   .     S
C237   H255    1.111   .     S
C238   O275    1.283   .     A
C238   O278    1.281   .     A
C238   C240    1.364   .     S
C239   O276    1.283   .     A
C239   O277    1.282   .     A
C239   C241    1.364   .     S
C240   C1249   1.164   1_554 S
C241   C744    1.164   .     S
C242   H245    1.083   .     S
C243   H256    1.082   .     S
C243   C282    1.371   .     S
C244   H258    1.079   .     S
C244   C298    1.368   .     S
H249   N269    1.030   .     S
H253   N270    1.030   .     S
H260   N267    1.031   .     S
H264   N268    1.030   .     S
N265   Zn279   2.026   .     S
N266   Zn280   2.026   .     S
O271   Zn279   2.001   .     S
O272   Zn280   2.001   .     S
O273   Zn279   2.000   .     S
O274   Zn280   2.000   .     S
O275   Zn279   1.948   .     S
O276   Zn280   1.948   .     S
O277   Zn279   1.945   .     S
O278   Zn280   1.945   .     S
C281   O330    1.290   .     A
C281   C284    1.421   .     S
C281   O327    1.289   .     A
C282   H315    1.084   .     S
C282   C284    1.398   .     A
C283   C299    1.397   .     A
C283   C300    1.396   .     A
C283   C292    1.423   .     S
C284   C298    1.396   .     A
C285   N322    1.371   .     A
C285   N323    1.420   .     S
C286   N324    1.421   .     S
C286   N321    1.374   .     A
C286   C455    1.437   .     S
C287   N325    1.419   .     S
C287   N322    1.369   .     A
C288   N321    1.373   .     A
C288   N326    1.421   .     S
C288   C453    1.431   .     S
C289   H317    1.110   .     S
C289   H318    1.109   .     S
C289   N323    1.447   .     S
C289   H319    1.111   .     S
C290   H303    1.109   .     S
C290   H302    1.107   .     S
C290   N324    1.449   .     S
C290   H304    1.112   .     S
C291   H307    1.109   .     S
C291   H308    1.112   .     S
C291   N325    1.447   .     S
C291   H306    1.110   .     S
C292   O328    1.290   .     A
C292   O329    1.290   .     A
C293   H313    1.109   .     S
C293   N326    1.448   .     S
C293   H310    1.109   .     S
C293   H311    1.111   .     S
C294   O331    1.283   .     A
C294   O334    1.281   .     A
C294   C296    1.364   .     S
C295   O332    1.283   .     A
C295   O333    1.282   .     A
C295   C297    1.364   .     S
C296   C1305   1.164   1_554 S
C297   C800    1.164   .     S
C298   H301    1.083   .     S
C299   H312    1.082   .     S
C299   C170    1.371   1_655 S
C300   H314    1.079   .     S
C300   C186    1.368   1_655 S
H305   N325    1.030   .     S
H309   N326    1.030   .     S
H316   N323    1.031   .     S
H320   N324    1.030   .     S
N321   Zn335   2.026   .     S
N322   Zn336   2.026   .     S
O327   Zn335   2.001   .     S
O328   Zn336   2.001   .     S
O329   Zn335   2.000   .     S
O330   Zn336   2.000   .     S
O331   Zn335   1.948   .     S
O332   Zn336   1.948   .     S
O333   Zn335   1.945   .     S
O334   Zn336   1.945   .     S
C337   O386    1.290   .     A
C337   C340    1.421   .     S
C337   O383    1.289   .     A
C338   H371    1.084   .     S
C338   C340    1.398   .     A
C338   C467    1.371   1_455 S
C339   C355    1.397   .     A
C339   C356    1.396   .     A
C339   C348    1.423   .     S
C340   C354    1.396   .     A
C341   N378    1.371   .     A
C341   N379    1.420   .     S
C342   N380    1.421   .     S
C342   N377    1.374   .     A
C342   C7      1.437   1_565 S
C343   N381    1.419   .     S
C343   N378    1.369   .     A
C344   N377    1.373   .     A
C344   N382    1.421   .     S
C344   C5      1.431   1_565 S
C345   H373    1.110   .     S
C345   H374    1.109   .     S
C345   N379    1.447   .     S
C345   H375    1.111   .     S
C346   H359    1.109   .     S
C346   H358    1.107   .     S
C346   N380    1.449   .     S
C346   H360    1.112   .     S
C347   H363    1.109   .     S
C347   H364    1.112   .     S
C347   N381    1.447   .     S
C347   H362    1.110   .     S
C348   O384    1.290   .     A
C348   O385    1.290   .     A
C349   H369    1.109   .     S
C349   N382    1.448   .     S
C349   H366    1.109   .     S
C349   H367    1.111   .     S
C350   O387    1.283   .     A
C350   O390    1.281   .     A
C350   C352    1.364   .     S
C351   O388    1.283   .     A
C351   O389    1.282   .     A
C351   C353    1.364   .     S
C352   C1361   1.164   1_554 S
C353   C856    1.164   .     S
C354   H357    1.083   .     S
C354   C468    1.368   1_455 S
C355   H368    1.082   .     S
C355   C394    1.371   .     S
C356   H370    1.079   .     S
C356   C410    1.368   .     S
H361   N381    1.030   .     S
H365   N382    1.030   .     S
H372   N379    1.031   .     S
H376   N380    1.030   .     S
N377   Zn391   2.026   .     S
N378   Zn392   2.026   .     S
O383   Zn391   2.001   .     S
O384   Zn392   2.001   .     S
O385   Zn391   2.000   .     S
O386   Zn392   2.000   .     S
O387   Zn391   1.948   .     S
O388   Zn392   1.948   .     S
O389   Zn391   1.945   .     S
O390   Zn392   1.945   .     S
C393   O442    1.290   .     A
C393   C396    1.421   .     S
C393   O439    1.289   .     A
C394   H427    1.084   .     S
C394   C396    1.398   .     A
C395   C411    1.397   .     A
C395   C412    1.396   .     A
C395   C404    1.423   .     S
C396   C410    1.396   .     A
C397   N434    1.371   .     A
C397   N435    1.420   .     S
C398   N436    1.421   .     S
C398   N433    1.374   .     A
C398   C63     1.437   1_565 S
C399   N437    1.419   .     S
C399   N434    1.369   .     A
C400   N433    1.373   .     A
C400   N438    1.421   .     S
C400   C61     1.431   1_565 S
C401   H429    1.110   .     S
C401   H430    1.109   .     S
C401   N435    1.447   .     S
C401   H431    1.111   .     S
C402   H415    1.109   .     S
C402   H414    1.107   .     S
C402   N436    1.449   .     S
C402   H416    1.112   .     S
C403   H419    1.109   .     S
C403   H420    1.112   .     S
C403   N437    1.447   .     S
C403   H418    1.110   .     S
C404   O440    1.290   .     A
C404   O441    1.290   .     A
C405   H425    1.109   .     S
C405   N438    1.448   .     S
C405   H422    1.109   .     S
C405   H423    1.111   .     S
C406   O443    1.283   .     A
C406   O446    1.281   .     A
C406   C408    1.364   .     S
C407   O444    1.283   .     A
C407   O445    1.282   .     A
C407   C409    1.364   .     S
C408   C1417   1.164   1_554 S
C409   C912    1.164   .     S
C410   H413    1.083   .     S
C411   H424    1.082   .     S
C411   C450    1.371   .     S
C412   H426    1.079   .     S
C412   C466    1.368   .     S
H417   N437    1.030   .     S
H421   N438    1.030   .     S
H428   N435    1.031   .     S
H432   N436    1.030   .     S
N433   Zn447   2.026   .     S
N434   Zn448   2.026   .     S
O439   Zn447   2.001   .     S
O440   Zn448   2.001   .     S
O441   Zn447   2.000   .     S
O442   Zn448   2.000   .     S
O443   Zn447   1.948   .     S
O444   Zn448   1.948   .     S
O445   Zn447   1.945   .     S
O446   Zn448   1.945   .     S
C449   O498    1.290   .     A
C449   C452    1.421   .     S
C449   O495    1.289   .     A
C450   H483    1.084   .     S
C450   C452    1.398   .     A
C451   C467    1.397   .     A
C451   C468    1.396   .     A
C451   C460    1.423   .     S
C452   C466    1.396   .     A
C453   N490    1.371   .     A
C453   N491    1.420   .     S
C454   N492    1.421   .     S
C454   N489    1.374   .     A
C454   C119    1.437   1_565 S
C455   N493    1.419   .     S
C455   N490    1.369   .     A
C456   N489    1.373   .     A
C456   N494    1.421   .     S
C456   C117    1.431   1_565 S
C457   H485    1.110   .     S
C457   H486    1.109   .     S
C457   N491    1.447   .     S
C457   H487    1.111   .     S
C458   H471    1.109   .     S
C458   H470    1.107   .     S
C458   N492    1.449   .     S
C458   H472    1.112   .     S
C459   H475    1.109   .     S
C459   H476    1.112   .     S
C459   N493    1.447   .     S
C459   H474    1.110   .     S
C460   O496    1.290   .     A
C460   O497    1.290   .     A
C461   H481    1.109   .     S
C461   N494    1.448   .     S
C461   H478    1.109   .     S
C461   H479    1.111   .     S
C462   O499    1.283   .     A
C462   O502    1.281   .     A
C462   C464    1.364   .     S
C463   O500    1.283   .     A
C463   O501    1.282   .     A
C463   C465    1.364   .     S
C464   C1473   1.164   1_554 S
C465   C968    1.164   .     S
C466   H469    1.083   .     S
C467   H480    1.082   .     S
C467   C338    1.371   1_655 S
C468   H482    1.079   .     S
C468   C354    1.368   1_655 S
H473   N493    1.030   .     S
H477   N494    1.030   .     S
H484   N491    1.031   .     S
H488   N492    1.030   .     S
N489   Zn503   2.026   .     S
N490   Zn504   2.026   .     S
O495   Zn503   2.001   .     S
O496   Zn504   2.001   .     S
O497   Zn503   2.000   .     S
O498   Zn504   2.000   .     S
O499   Zn503   1.948   .     S
O500   Zn504   1.948   .     S
O501   Zn503   1.945   .     S
O502   Zn504   1.945   .     S
C505   O554    1.290   .     A
C505   C508    1.421   .     S
C505   O551    1.289   .     A
C506   H539    1.084   .     S
C506   C508    1.398   .     A
C506   C635    1.371   1_455 S
C507   C523    1.397   .     A
C507   C524    1.396   .     A
C507   C516    1.423   .     S
C508   C522    1.396   .     A
C509   N546    1.371   .     A
C509   N547    1.420   .     S
C509   C848    1.431   1_545 S
C510   N548    1.421   .     S
C510   N545    1.374   .     A
C510   C679    1.437   .     S
C511   N549    1.419   .     S
C511   N546    1.369   .     A
C511   C846    1.437   1_545 S
C512   N545    1.373   .     A
C512   N550    1.421   .     S
C512   C677    1.431   .     S
C513   H541    1.110   .     S
C513   H542    1.109   .     S
C513   N547    1.447   .     S
C513   H543    1.111   .     S
C514   H527    1.109   .     S
C514   H526    1.107   .     S
C514   N548    1.449   .     S
C514   H528    1.112   .     S
C515   H531    1.109   .     S
C515   H532    1.112   .     S
C515   N549    1.447   .     S
C515   H530    1.110   .     S
C516   O552    1.290   .     A
C516   O553    1.290   .     A
C517   H537    1.109   .     S
C517   N550    1.448   .     S
C517   H534    1.109   .     S
C517   H535    1.111   .     S
C518   O555    1.283   .     A
C518   O558    1.281   .     A
C518   C520    1.364   .     S
C519   O556    1.283   .     A
C519   O557    1.282   .     A
C519   C521    1.364   .     S
C521   C1024   1.164   .     S
C522   H525    1.083   .     S
C522   C636    1.368   1_455 S
C523   H536    1.082   .     S
C523   C562    1.371   .     S
C524   H538    1.079   .     S
C524   C578    1.368   .     S
H529   N549    1.030   .     S
H533   N550    1.030   .     S
H540   N547    1.031   .     S
H544   N548    1.030   .     S
N545   Zn559   2.026   .     S
N546   Zn560   2.026   .     S
O551   Zn559   2.001   .     S
O552   Zn560   2.001   .     S
O553   Zn559   2.000   .     S
O554   Zn560   2.000   .     S
O555   Zn559   1.948   .     S
O556   Zn560   1.948   .     S
O557   Zn559   1.945   .     S
O558   Zn560   1.945   .     S
C561   O610    1.290   .     A
C561   C564    1.421   .     S
C561   O607    1.289   .     A
C562   H595    1.084   .     S
C562   C564    1.398   .     A
C563   C579    1.397   .     A
C563   C580    1.396   .     A
C563   C572    1.423   .     S
C564   C578    1.396   .     A
C565   N602    1.371   .     A
C565   N603    1.420   .     S
C565   C904    1.431   1_545 S
C566   N604    1.421   .     S
C566   N601    1.374   .     A
C566   C735    1.437   .     S
C567   N605    1.419   .     S
C567   N602    1.369   .     A
C567   C902    1.437   1_545 S
C568   N601    1.373   .     A
C568   N606    1.421   .     S
C568   C733    1.431   .     S
C569   H597    1.110   .     S
C569   H598    1.109   .     S
C569   N603    1.447   .     S
C569   H599    1.111   .     S
C570   H583    1.109   .     S
C570   H582    1.107   .     S
C570   N604    1.449   .     S
C570   H584    1.112   .     S
C571   H587    1.109   .     S
C571   H588    1.112   .     S
C571   N605    1.447   .     S
C571   H586    1.110   .     S
C572   O608    1.290   .     A
C572   O609    1.290   .     A
C573   H593    1.109   .     S
C573   N606    1.448   .     S
C573   H590    1.109   .     S
C573   H591    1.111   .     S
C574   O611    1.283   .     A
C574   O614    1.281   .     A
C574   C576    1.364   .     S
C575   O612    1.283   .     A
C575   O613    1.282   .     A
C575   C577    1.364   .     S
C577   C1080   1.164   .     S
C578   H581    1.083   .     S
C579   H592    1.082   .     S
C579   C618    1.371   .     S
C580   H594    1.079   .     S
C580   C634    1.368   .     S
H585   N605    1.030   .     S
H589   N606    1.030   .     S
H596   N603    1.031   .     S
H600   N604    1.030   .     S
N601   Zn615   2.026   .     S
N602   Zn616   2.026   .     S
O607   Zn615   2.001   .     S
O608   Zn616   2.001   .     S
O609   Zn615   2.000   .     S
O610   Zn616   2.000   .     S
O611   Zn615   1.948   .     S
O612   Zn616   1.948   .     S
O613   Zn615   1.945   .     S
O614   Zn616   1.945   .     S
C617   O666    1.290   .     A
C617   C620    1.421   .     S
C617   O663    1.289   .     A
C618   H651    1.084   .     S
C618   C620    1.398   .     A
C619   C635    1.397   .     A
C619   C636    1.396   .     A
C619   C628    1.423   .     S
C620   C634    1.396   .     A
C621   N658    1.371   .     A
C621   N659    1.420   .     S
C621   C960    1.431   1_545 S
C622   N660    1.421   .     S
C622   N657    1.374   .     A
C622   C791    1.437   .     S
C623   N661    1.419   .     S
C623   N658    1.369   .     A
C623   C958    1.437   1_545 S
C624   N657    1.373   .     A
C624   N662    1.421   .     S
C624   C789    1.431   .     S
C625   H653    1.110   .     S
C625   H654    1.109   .     S
C625   N659    1.447   .     S
C625   H655    1.111   .     S
C626   H639    1.109   .     S
C626   H638    1.107   .     S
C626   N660    1.449   .     S
C626   H640    1.112   .     S
C627   H643    1.109   .     S
C627   H644    1.112   .     S
C627   N661    1.447   .     S
C627   H642    1.110   .     S
C628   O664    1.290   .     A
C628   O665    1.290   .     A
C629   H649    1.109   .     S
C629   N662    1.448   .     S
C629   H646    1.109   .     S
C629   H647    1.111   .     S
C630   O667    1.283   .     A
C630   O670    1.281   .     A
C630   C632    1.364   .     S
C631   O668    1.283   .     A
C631   O669    1.282   .     A
C631   C633    1.364   .     S
C633   C1136   1.164   .     S
C634   H637    1.083   .     S
C635   H648    1.082   .     S
C635   C506    1.371   1_655 S
C636   H650    1.079   .     S
C636   C522    1.368   1_655 S
H641   N661    1.030   .     S
H645   N662    1.030   .     S
H652   N659    1.031   .     S
H656   N660    1.030   .     S
N657   Zn671   2.026   .     S
N658   Zn672   2.026   .     S
O663   Zn671   2.001   .     S
O664   Zn672   2.001   .     S
O665   Zn671   2.000   .     S
O666   Zn672   2.000   .     S
O667   Zn671   1.948   .     S
O668   Zn672   1.948   .     S
O669   Zn671   1.945   .     S
O670   Zn672   1.945   .     S
C673   O722    1.290   .     A
C673   C676    1.421   .     S
C673   O719    1.289   .     A
C674   H707    1.084   .     S
C674   C676    1.398   .     A
C674   C803    1.371   1_455 S
C675   C691    1.397   .     A
C675   C692    1.396   .     A
C675   C684    1.423   .     S
C676   C690    1.396   .     A
C677   N714    1.371   .     A
C677   N715    1.420   .     S
C678   N716    1.421   .     S
C678   N713    1.374   .     A
C678   C847    1.437   .     S
C679   N717    1.419   .     S
C679   N714    1.369   .     A
C680   N713    1.373   .     A
C680   N718    1.421   .     S
C680   C845    1.431   .     S
C681   H709    1.110   .     S
C681   H710    1.109   .     S
C681   N715    1.447   .     S
C681   H711    1.111   .     S
C682   H695    1.109   .     S
C682   H694    1.107   .     S
C682   N716    1.449   .     S
C682   H696    1.112   .     S
C683   H699    1.109   .     S
C683   H700    1.112   .     S
C683   N717    1.447   .     S
C683   H698    1.110   .     S
C684   O720    1.290   .     A
C684   O721    1.290   .     A
C685   H705    1.109   .     S
C685   N718    1.448   .     S
C685   H702    1.109   .     S
C685   H703    1.111   .     S
C686   O723    1.283   .     A
C686   O726    1.281   .     A
C686   C688    1.364   .     S
C687   O724    1.283   .     A
C687   O725    1.282   .     A
C687   C689    1.364   .     S
C689   C1192   1.164   .     S
C690   H693    1.083   .     S
C690   C804    1.368   1_455 S
C691   H704    1.082   .     S
C691   C730    1.371   .     S
C692   H706    1.079   .     S
C692   C746    1.368   .     S
H697   N717    1.030   .     S
H701   N718    1.030   .     S
H708   N715    1.031   .     S
H712   N716    1.030   .     S
N713   Zn727   2.026   .     S
N714   Zn728   2.026   .     S
O719   Zn727   2.001   .     S
O720   Zn728   2.001   .     S
O721   Zn727   2.000   .     S
O722   Zn728   2.000   .     S
O723   Zn727   1.948   .     S
O724   Zn728   1.948   .     S
O725   Zn727   1.945   .     S
O726   Zn728   1.945   .     S
C729   O778    1.290   .     A
C729   C732    1.421   .     S
C729   O775    1.289   .     A
C730   H763    1.084   .     S
C730   C732    1.398   .     A
C731   C747    1.397   .     A
C731   C748    1.396   .     A
C731   C740    1.423   .     S
C732   C746    1.396   .     A
C733   N770    1.371   .     A
C733   N771    1.420   .     S
C734   N772    1.421   .     S
C734   N769    1.374   .     A
C734   C903    1.437   .     S
C735   N773    1.419   .     S
C735   N770    1.369   .     A
C736   N769    1.373   .     A
C736   N774    1.421   .     S
C736   C901    1.431   .     S
C737   H765    1.110   .     S
C737   H766    1.109   .     S
C737   N771    1.447   .     S
C737   H767    1.111   .     S
C738   H751    1.109   .     S
C738   H750    1.107   .     S
C738   N772    1.449   .     S
C738   H752    1.112   .     S
C739   H755    1.109   .     S
C739   H756    1.112   .     S
C739   N773    1.447   .     S
C739   H754    1.110   .     S
C740   O776    1.290   .     A
C740   O777    1.290   .     A
C741   H761    1.109   .     S
C741   N774    1.448   .     S
C741   H758    1.109   .     S
C741   H759    1.111   .     S
C742   O779    1.283   .     A
C742   O782    1.281   .     A
C742   C744    1.364   .     S
C743   O780    1.283   .     A
C743   O781    1.282   .     A
C743   C745    1.364   .     S
C745   C1248   1.164   .     S
C746   H749    1.083   .     S
C747   H760    1.082   .     S
C747   C786    1.371   .     S
C748   H762    1.079   .     S
C748   C802    1.368   .     S
H753   N773    1.030   .     S
H757   N774    1.030   .     S
H764   N771    1.031   .     S
H768   N772    1.030   .     S
N769   Zn783   2.026   .     S
N770   Zn784   2.026   .     S
O775   Zn783   2.001   .     S
O776   Zn784   2.001   .     S
O777   Zn783   2.000   .     S
O778   Zn784   2.000   .     S
O779   Zn783   1.948   .     S
O780   Zn784   1.948   .     S
O781   Zn783   1.945   .     S
O782   Zn784   1.945   .     S
C785   O834    1.290   .     A
C785   C788    1.421   .     S
C785   O831    1.289   .     A
C786   H819    1.084   .     S
C786   C788    1.398   .     A
C787   C803    1.397   .     A
C787   C804    1.396   .     A
C787   C796    1.423   .     S
C788   C802    1.396   .     A
C789   N826    1.371   .     A
C789   N827    1.420   .     S
C790   N828    1.421   .     S
C790   N825    1.374   .     A
C790   C959    1.437   .     S
C791   N829    1.419   .     S
C791   N826    1.369   .     A
C792   N825    1.373   .     A
C792   N830    1.421   .     S
C792   C957    1.431   .     S
C793   H821    1.110   .     S
C793   H822    1.109   .     S
C793   N827    1.447   .     S
C793   H823    1.111   .     S
C794   H807    1.109   .     S
C794   H806    1.107   .     S
C794   N828    1.449   .     S
C794   H808    1.112   .     S
C795   H811    1.109   .     S
C795   H812    1.112   .     S
C795   N829    1.447   .     S
C795   H810    1.110   .     S
C796   O832    1.290   .     A
C796   O833    1.290   .     A
C797   H817    1.109   .     S
C797   N830    1.448   .     S
C797   H814    1.109   .     S
C797   H815    1.111   .     S
C798   O835    1.283   .     A
C798   O838    1.281   .     A
C798   C800    1.364   .     S
C799   O836    1.283   .     A
C799   O837    1.282   .     A
C799   C801    1.364   .     S
C801   C1304   1.164   .     S
C802   H805    1.083   .     S
C803   H816    1.082   .     S
C803   C674    1.371   1_655 S
C804   H818    1.079   .     S
C804   C690    1.368   1_655 S
H809   N829    1.030   .     S
H813   N830    1.030   .     S
H820   N827    1.031   .     S
H824   N828    1.030   .     S
N825   Zn839   2.026   .     S
N826   Zn840   2.026   .     S
O831   Zn839   2.001   .     S
O832   Zn840   2.001   .     S
O833   Zn839   2.000   .     S
O834   Zn840   2.000   .     S
O835   Zn839   1.948   .     S
O836   Zn840   1.948   .     S
O837   Zn839   1.945   .     S
O838   Zn840   1.945   .     S
C841   O890    1.290   .     A
C841   C844    1.421   .     S
C841   O887    1.289   .     A
C842   H875    1.084   .     S
C842   C844    1.398   .     A
C842   C971    1.371   1_455 S
C843   C859    1.397   .     A
C843   C860    1.396   .     A
C843   C852    1.423   .     S
C844   C858    1.396   .     A
C845   N882    1.371   .     A
C845   N883    1.420   .     S
C846   N884    1.421   .     S
C846   N881    1.374   .     A
C846   C511    1.437   1_565 S
C847   N885    1.419   .     S
C847   N882    1.369   .     A
C848   N881    1.373   .     A
C848   N886    1.421   .     S
C848   C509    1.431   1_565 S
C849   H877    1.110   .     S
C849   H878    1.109   .     S
C849   N883    1.447   .     S
C849   H879    1.111   .     S
C850   H863    1.109   .     S
C850   H862    1.107   .     S
C850   N884    1.449   .     S
C850   H864    1.112   .     S
C851   H867    1.109   .     S
C851   H868    1.112   .     S
C851   N885    1.447   .     S
C851   H866    1.110   .     S
C852   O888    1.290   .     A
C852   O889    1.290   .     A
C853   H873    1.109   .     S
C853   N886    1.448   .     S
C853   H870    1.109   .     S
C853   H871    1.111   .     S
C854   O891    1.283   .     A
C854   O894    1.281   .     A
C854   C856    1.364   .     S
C855   O892    1.283   .     A
C855   O893    1.282   .     A
C855   C857    1.364   .     S
C857   C1360   1.164   .     S
C858   H861    1.083   .     S
C858   C972    1.368   1_455 S
C859   H872    1.082   .     S
C859   C898    1.371   .     S
C860   H874    1.079   .     S
C860   C914    1.368   .     S
H865   N885    1.030   .     S
H869   N886    1.030   .     S
H876   N883    1.031   .     S
H880   N884    1.030   .     S
N881   Zn895   2.026   .     S
N882   Zn896   2.026   .     S
O887   Zn895   2.001   .     S
O888   Zn896   2.001   .     S
O889   Zn895   2.000   .     S
O890   Zn896   2.000   .     S
O891   Zn895   1.948   .     S
O892   Zn896   1.948   .     S
O893   Zn895   1.945   .     S
O894   Zn896   1.945   .     S
C897   O946    1.290   .     A
C897   C900    1.421   .     S
C897   O943    1.289   .     A
C898   H931    1.084   .     S
C898   C900    1.398   .     A
C899   C915    1.397   .     A
C899   C916    1.396   .     A
C899   C908    1.423   .     S
C900   C914    1.396   .     A
C901   N938    1.371   .     A
C901   N939    1.420   .     S
C902   N940    1.421   .     S
C902   N937    1.374   .     A
C902   C567    1.437   1_565 S
C903   N941    1.419   .     S
C903   N938    1.369   .     A
C904   N937    1.373   .     A
C904   N942    1.421   .     S
C904   C565    1.431   1_565 S
C905   H933    1.110   .     S
C905   H934    1.109   .     S
C905   N939    1.447   .     S
C905   H935    1.111   .     S
C906   H919    1.109   .     S
C906   H918    1.107   .     S
C906   N940    1.449   .     S
C906   H920    1.112   .     S
C907   H923    1.109   .     S
C907   H924    1.112   .     S
C907   N941    1.447   .     S
C907   H922    1.110   .     S
C908   O944    1.290   .     A
C908   O945    1.290   .     A
C909   H929    1.109   .     S
C909   N942    1.448   .     S
C909   H926    1.109   .     S
C909   H927    1.111   .     S
C910   O947    1.283   .     A
C910   O950    1.281   .     A
C910   C912    1.364   .     S
C911   O948    1.283   .     A
C911   O949    1.282   .     A
C911   C913    1.364   .     S
C913   C1416   1.164   .     S
C914   H917    1.083   .     S
C915   H928    1.082   .     S
C915   C954    1.371   .     S
C916   H930    1.079   .     S
C916   C970    1.368   .     S
H921   N941    1.030   .     S
H925   N942    1.030   .     S
H932   N939    1.031   .     S
H936   N940    1.030   .     S
N937   Zn951   2.026   .     S
N938   Zn952   2.026   .     S
O943   Zn951   2.001   .     S
O944   Zn952   2.001   .     S
O945   Zn951   2.000   .     S
O946   Zn952   2.000   .     S
O947   Zn951   1.948   .     S
O948   Zn952   1.948   .     S
O949   Zn951   1.945   .     S
O950   Zn952   1.945   .     S
C953   O1002   1.290   .     A
C953   C956    1.421   .     S
C953   O999    1.289   .     A
C954   H987    1.084   .     S
C954   C956    1.398   .     A
C955   C971    1.397   .     A
C955   C972    1.396   .     A
C955   C964    1.423   .     S
C956   C970    1.396   .     A
C957   N994    1.371   .     A
C957   N995    1.420   .     S
C958   N996    1.421   .     S
C958   N993    1.374   .     A
C958   C623    1.437   1_565 S
C959   N997    1.419   .     S
C959   N994    1.369   .     A
C960   N993    1.373   .     A
C960   N998    1.421   .     S
C960   C621    1.431   1_565 S
C961   H989    1.110   .     S
C961   H990    1.109   .     S
C961   N995    1.447   .     S
C961   H991    1.111   .     S
C962   H975    1.109   .     S
C962   H974    1.107   .     S
C962   N996    1.449   .     S
C962   H976    1.112   .     S
C963   H979    1.109   .     S
C963   H980    1.112   .     S
C963   N997    1.447   .     S
C963   H978    1.110   .     S
C964   O1000   1.290   .     A
C964   O1001   1.290   .     A
C965   H985    1.109   .     S
C965   N998    1.448   .     S
C965   H982    1.109   .     S
C965   H983    1.111   .     S
C966   O1003   1.283   .     A
C966   O1006   1.281   .     A
C966   C968    1.364   .     S
C967   O1004   1.283   .     A
C967   O1005   1.282   .     A
C967   C969    1.364   .     S
C969   C1472   1.164   .     S
C970   H973    1.083   .     S
C971   H984    1.082   .     S
C971   C842    1.371   1_655 S
C972   H986    1.079   .     S
C972   C858    1.368   1_655 S
H977   N997    1.030   .     S
H981   N998    1.030   .     S
H988   N995    1.031   .     S
H992   N996    1.030   .     S
N993   Zn1007  2.026   .     S
N994   Zn1008  2.026   .     S
O999   Zn1007  2.001   .     S
O1000  Zn1008  2.001   .     S
O1001  Zn1007  2.000   .     S
O1002  Zn1008  2.000   .     S
O1003  Zn1007  1.948   .     S
O1004  Zn1008  1.948   .     S
O1005  Zn1007  1.945   .     S
O1006  Zn1008  1.945   .     S
C1009  O1058   1.290   .     A
C1009  C1012   1.421   .     S
C1009  O1055   1.289   .     A
C1010  H1043   1.084   .     S
C1010  C1012   1.398   .     A
C1010  C1139   1.371   1_455 S
C1011  C1027   1.397   .     A
C1011  C1028   1.396   .     A
C1011  C1020   1.423   .     S
C1012  C1026   1.396   .     A
C1013  N1050   1.371   .     A
C1013  N1051   1.420   .     S
C1013  C1352   1.431   1_545 S
C1014  N1052   1.421   .     S
C1014  N1049   1.374   .     A
C1014  C1183   1.437   .     S
C1015  N1053   1.419   .     S
C1015  N1050   1.369   .     A
C1015  C1350   1.437   1_545 S
C1016  N1049   1.373   .     A
C1016  N1054   1.421   .     S
C1016  C1181   1.431   .     S
C1017  H1045   1.110   .     S
C1017  H1046   1.109   .     S
C1017  N1051   1.447   .     S
C1017  H1047   1.111   .     S
C1018  H1031   1.109   .     S
C1018  H1030   1.107   .     S
C1018  N1052   1.449   .     S
C1018  H1032   1.112   .     S
C1019  H1035   1.109   .     S
C1019  H1036   1.112   .     S
C1019  N1053   1.447   .     S
C1019  H1034   1.110   .     S
C1020  O1056   1.290   .     A
C1020  O1057   1.290   .     A
C1021  H1041   1.109   .     S
C1021  N1054   1.448   .     S
C1021  H1038   1.109   .     S
C1021  H1039   1.111   .     S
C1022  O1059   1.283   .     A
C1022  O1062   1.281   .     A
C1022  C1024   1.364   .     S
C1023  O1060   1.283   .     A
C1023  O1061   1.282   .     A
C1023  C1025   1.364   .     S
C1025  C16     1.164   1_556 S
C1026  H1029   1.083   .     S
C1026  C1140   1.368   1_455 S
C1027  H1040   1.082   .     S
C1027  C1066   1.371   .     S
C1028  H1042   1.079   .     S
C1028  C1082   1.368   .     S
H1033  N1053   1.030   .     S
H1037  N1054   1.030   .     S
H1044  N1051   1.031   .     S
H1048  N1052   1.030   .     S
N1049  Zn1063  2.026   .     S
N1050  Zn1064  2.026   .     S
O1055  Zn1063  2.001   .     S
O1056  Zn1064  2.001   .     S
O1057  Zn1063  2.000   .     S
O1058  Zn1064  2.000   .     S
O1059  Zn1063  1.948   .     S
O1060  Zn1064  1.948   .     S
O1061  Zn1063  1.945   .     S
O1062  Zn1064  1.945   .     S
C1065  O1114   1.290   .     A
C1065  C1068   1.421   .     S
C1065  O1111   1.289   .     A
C1066  H1099   1.084   .     S
C1066  C1068   1.398   .     A
C1067  C1083   1.397   .     A
C1067  C1084   1.396   .     A
C1067  C1076   1.423   .     S
C1068  C1082   1.396   .     A
C1069  N1106   1.371   .     A
C1069  N1107   1.420   .     S
C1069  C1408   1.431   1_545 S
C1070  N1108   1.421   .     S
C1070  N1105   1.374   .     A
C1070  C1239   1.437   .     S
C1071  N1109   1.419   .     S
C1071  N1106   1.369   .     A
C1071  C1406   1.437   1_545 S
C1072  N1105   1.373   .     A
C1072  N1110   1.421   .     S
C1072  C1237   1.431   .     S
C1073  H1101   1.110   .     S
C1073  H1102   1.109   .     S
C1073  N1107   1.447   .     S
C1073  H1103   1.111   .     S
C1074  H1087   1.109   .     S
C1074  H1086   1.107   .     S
C1074  N1108   1.449   .     S
C1074  H1088   1.112   .     S
C1075  H1091   1.109   .     S
C1075  H1092   1.112   .     S
C1075  N1109   1.447   .     S
C1075  H1090   1.110   .     S
C1076  O1112   1.290   .     A
C1076  O1113   1.290   .     A
C1077  H1097   1.109   .     S
C1077  N1110   1.448   .     S
C1077  H1094   1.109   .     S
C1077  H1095   1.111   .     S
C1078  O1115   1.283   .     A
C1078  O1118   1.281   .     A
C1078  C1080   1.364   .     S
C1079  O1116   1.283   .     A
C1079  O1117   1.282   .     A
C1079  C1081   1.364   .     S
C1081  C72     1.164   1_556 S
C1082  H1085   1.083   .     S
C1083  H1096   1.082   .     S
C1083  C1122   1.371   .     S
C1084  H1098   1.079   .     S
C1084  C1138   1.368   .     S
H1089  N1109   1.030   .     S
H1093  N1110   1.030   .     S
H1100  N1107   1.031   .     S
H1104  N1108   1.030   .     S
N1105  Zn1119  2.026   .     S
N1106  Zn1120  2.026   .     S
O1111  Zn1119  2.001   .     S
O1112  Zn1120  2.001   .     S
O1113  Zn1119  2.000   .     S
O1114  Zn1120  2.000   .     S
O1115  Zn1119  1.948   .     S
O1116  Zn1120  1.948   .     S
O1117  Zn1119  1.945   .     S
O1118  Zn1120  1.945   .     S
C1121  O1170   1.290   .     A
C1121  C1124   1.421   .     S
C1121  O1167   1.289   .     A
C1122  H1155   1.084   .     S
C1122  C1124   1.398   .     A
C1123  C1139   1.397   .     A
C1123  C1140   1.396   .     A
C1123  C1132   1.423   .     S
C1124  C1138   1.396   .     A
C1125  N1162   1.371   .     A
C1125  N1163   1.420   .     S
C1125  C1464   1.431   1_545 S
C1126  N1164   1.421   .     S
C1126  N1161   1.374   .     A
C1126  C1295   1.437   .     S
C1127  N1165   1.419   .     S
C1127  N1162   1.369   .     A
C1127  C1462   1.437   1_545 S
C1128  N1161   1.373   .     A
C1128  N1166   1.421   .     S
C1128  C1293   1.431   .     S
C1129  H1157   1.110   .     S
C1129  H1158   1.109   .     S
C1129  N1163   1.447   .     S
C1129  H1159   1.111   .     S
C1130  H1143   1.109   .     S
C1130  H1142   1.107   .     S
C1130  N1164   1.449   .     S
C1130  H1144   1.112   .     S
C1131  H1147   1.109   .     S
C1131  H1148   1.112   .     S
C1131  N1165   1.447   .     S
C1131  H1146   1.110   .     S
C1132  O1168   1.290   .     A
C1132  O1169   1.290   .     A
C1133  H1153   1.109   .     S
C1133  N1166   1.448   .     S
C1133  H1150   1.109   .     S
C1133  H1151   1.111   .     S
C1134  O1171   1.283   .     A
C1134  O1174   1.281   .     A
C1134  C1136   1.364   .     S
C1135  O1172   1.283   .     A
C1135  O1173   1.282   .     A
C1135  C1137   1.364   .     S
C1137  C128    1.164   1_556 S
C1138  H1141   1.083   .     S
C1139  H1152   1.082   .     S
C1139  C1010   1.371   1_655 S
C1140  H1154   1.079   .     S
C1140  C1026   1.368   1_655 S
H1145  N1165   1.030   .     S
H1149  N1166   1.030   .     S
H1156  N1163   1.031   .     S
H1160  N1164   1.030   .     S
N1161  Zn1175  2.026   .     S
N1162  Zn1176  2.026   .     S
O1167  Zn1175  2.001   .     S
O1168  Zn1176  2.001   .     S
O1169  Zn1175  2.000   .     S
O1170  Zn1176  2.000   .     S
O1171  Zn1175  1.948   .     S
O1172  Zn1176  1.948   .     S
O1173  Zn1175  1.945   .     S
O1174  Zn1176  1.945   .     S
C1177  O1226   1.290   .     A
C1177  C1180   1.421   .     S
C1177  O1223   1.289   .     A
C1178  H1211   1.084   .     S
C1178  C1180   1.398   .     A
C1178  C1307   1.371   1_455 S
C1179  C1195   1.397   .     A
C1179  C1196   1.396   .     A
C1179  C1188   1.423   .     S
C1180  C1194   1.396   .     A
C1181  N1218   1.371   .     A
C1181  N1219   1.420   .     S
C1182  N1220   1.421   .     S
C1182  N1217   1.374   .     A
C1182  C1351   1.437   .     S
C1183  N1221   1.419   .     S
C1183  N1218   1.369   .     A
C1184  N1217   1.373   .     A
C1184  N1222   1.421   .     S
C1184  C1349   1.431   .     S
C1185  H1213   1.110   .     S
C1185  H1214   1.109   .     S
C1185  N1219   1.447   .     S
C1185  H1215   1.111   .     S
C1186  H1199   1.109   .     S
C1186  H1198   1.107   .     S
C1186  N1220   1.449   .     S
C1186  H1200   1.112   .     S
C1187  H1203   1.109   .     S
C1187  H1204   1.112   .     S
C1187  N1221   1.447   .     S
C1187  H1202   1.110   .     S
C1188  O1224   1.290   .     A
C1188  O1225   1.290   .     A
C1189  H1209   1.109   .     S
C1189  N1222   1.448   .     S
C1189  H1206   1.109   .     S
C1189  H1207   1.111   .     S
C1190  O1227   1.283   .     A
C1190  O1230   1.281   .     A
C1190  C1192   1.364   .     S
C1191  O1228   1.283   .     A
C1191  O1229   1.282   .     A
C1191  C1193   1.364   .     S
C1193  C184    1.164   1_556 S
C1194  H1197   1.083   .     S
C1194  C1308   1.368   1_455 S
C1195  H1208   1.082   .     S
C1195  C1234   1.371   .     S
C1196  H1210   1.079   .     S
C1196  C1250   1.368   .     S
H1201  N1221   1.030   .     S
H1205  N1222   1.030   .     S
H1212  N1219   1.031   .     S
H1216  N1220   1.030   .     S
N1217  Zn1231  2.026   .     S
N1218  Zn1232  2.026   .     S
O1223  Zn1231  2.001   .     S
O1224  Zn1232  2.001   .     S
O1225  Zn1231  2.000   .     S
O1226  Zn1232  2.000   .     S
O1227  Zn1231  1.948   .     S
O1228  Zn1232  1.948   .     S
O1229  Zn1231  1.945   .     S
O1230  Zn1232  1.945   .     S
C1233  O1282   1.290   .     A
C1233  C1236   1.421   .     S
C1233  O1279   1.289   .     A
C1234  H1267   1.084   .     S
C1234  C1236   1.398   .     A
C1235  C1251   1.397   .     A
C1235  C1252   1.396   .     A
C1235  C1244   1.423   .     S
C1236  C1250   1.396   .     A
C1237  N1274   1.371   .     A
C1237  N1275   1.420   .     S
C1238  N1276   1.421   .     S
C1238  N1273   1.374   .     A
C1238  C1407   1.437   .     S
C1239  N1277   1.419   .     S
C1239  N1274   1.369   .     A
C1240  N1273   1.373   .     A
C1240  N1278   1.421   .     S
C1240  C1405   1.431   .     S
C1241  H1269   1.110   .     S
C1241  H1270   1.109   .     S
C1241  N1275   1.447   .     S
C1241  H1271   1.111   .     S
C1242  H1255   1.109   .     S
C1242  H1254   1.107   .     S
C1242  N1276   1.449   .     S
C1242  H1256   1.112   .     S
C1243  H1259   1.109   .     S
C1243  H1260   1.112   .     S
C1243  N1277   1.447   .     S
C1243  H1258   1.110   .     S
C1244  O1280   1.290   .     A
C1244  O1281   1.290   .     A
C1245  H1265   1.109   .     S
C1245  N1278   1.448   .     S
C1245  H1262   1.109   .     S
C1245  H1263   1.111   .     S
C1246  O1283   1.283   .     A
C1246  O1286   1.281   .     A
C1246  C1248   1.364   .     S
C1247  O1284   1.283   .     A
C1247  O1285   1.282   .     A
C1247  C1249   1.364   .     S
C1249  C240    1.164   1_556 S
C1250  H1253   1.083   .     S
C1251  H1264   1.082   .     S
C1251  C1290   1.371   .     S
C1252  H1266   1.079   .     S
C1252  C1306   1.368   .     S
H1257  N1277   1.030   .     S
H1261  N1278   1.030   .     S
H1268  N1275   1.031   .     S
H1272  N1276   1.030   .     S
N1273  Zn1287  2.026   .     S
N1274  Zn1288  2.026   .     S
O1279  Zn1287  2.001   .     S
O1280  Zn1288  2.001   .     S
O1281  Zn1287  2.000   .     S
O1282  Zn1288  2.000   .     S
O1283  Zn1287  1.948   .     S
O1284  Zn1288  1.948   .     S
O1285  Zn1287  1.945   .     S
O1286  Zn1288  1.945   .     S
C1289  O1338   1.290   .     A
C1289  C1292   1.421   .     S
C1289  O1335   1.289   .     A
C1290  H1323   1.084   .     S
C1290  C1292   1.398   .     A
C1291  C1307   1.397   .     A
C1291  C1308   1.396   .     A
C1291  C1300   1.423   .     S
C1292  C1306   1.396   .     A
C1293  N1330   1.371   .     A
C1293  N1331   1.420   .     S
C1294  N1332   1.421   .     S
C1294  N1329   1.374   .     A
C1294  C1463   1.437   .     S
C1295  N1333   1.419   .     S
C1295  N1330   1.369   .     A
C1296  N1329   1.373   .     A
C1296  N1334   1.421   .     S
C1296  C1461   1.431   .     S
C1297  H1325   1.110   .     S
C1297  H1326   1.109   .     S
C1297  N1331   1.447   .     S
C1297  H1327   1.111   .     S
C1298  H1311   1.109   .     S
C1298  H1310   1.107   .     S
C1298  N1332   1.449   .     S
C1298  H1312   1.112   .     S
C1299  H1315   1.109   .     S
C1299  H1316   1.112   .     S
C1299  N1333   1.447   .     S
C1299  H1314   1.110   .     S
C1300  O1336   1.290   .     A
C1300  O1337   1.290   .     A
C1301  H1321   1.109   .     S
C1301  N1334   1.448   .     S
C1301  H1318   1.109   .     S
C1301  H1319   1.111   .     S
C1302  O1339   1.283   .     A
C1302  O1342   1.281   .     A
C1302  C1304   1.364   .     S
C1303  O1340   1.283   .     A
C1303  O1341   1.282   .     A
C1303  C1305   1.364   .     S
C1305  C296    1.164   1_556 S
C1306  H1309   1.083   .     S
C1307  H1320   1.082   .     S
C1307  C1178   1.371   1_655 S
C1308  H1322   1.079   .     S
C1308  C1194   1.368   1_655 S
H1313  N1333   1.030   .     S
H1317  N1334   1.030   .     S
H1324  N1331   1.031   .     S
H1328  N1332   1.030   .     S
N1329  Zn1343  2.026   .     S
N1330  Zn1344  2.026   .     S
O1335  Zn1343  2.001   .     S
O1336  Zn1344  2.001   .     S
O1337  Zn1343  2.000   .     S
O1338  Zn1344  2.000   .     S
O1339  Zn1343  1.948   .     S
O1340  Zn1344  1.948   .     S
O1341  Zn1343  1.945   .     S
O1342  Zn1344  1.945   .     S
C1345  O1394   1.290   .     A
C1345  C1348   1.421   .     S
C1345  O1391   1.289   .     A
C1346  H1379   1.084   .     S
C1346  C1348   1.398   .     A
C1346  C1475   1.371   1_455 S
C1347  C1363   1.397   .     A
C1347  C1364   1.396   .     A
C1347  C1356   1.423   .     S
C1348  C1362   1.396   .     A
C1349  N1386   1.371   .     A
C1349  N1387   1.420   .     S
C1350  N1388   1.421   .     S
C1350  N1385   1.374   .     A
C1350  C1015   1.437   1_565 S
C1351  N1389   1.419   .     S
C1351  N1386   1.369   .     A
C1352  N1385   1.373   .     A
C1352  N1390   1.421   .     S
C1352  C1013   1.431   1_565 S
C1353  H1381   1.110   .     S
C1353  H1382   1.109   .     S
C1353  N1387   1.447   .     S
C1353  H1383   1.111   .     S
C1354  H1367   1.109   .     S
C1354  H1366   1.107   .     S
C1354  N1388   1.449   .     S
C1354  H1368   1.112   .     S
C1355  H1371   1.109   .     S
C1355  H1372   1.112   .     S
C1355  N1389   1.447   .     S
C1355  H1370   1.110   .     S
C1356  O1392   1.290   .     A
C1356  O1393   1.290   .     A
C1357  H1377   1.109   .     S
C1357  N1390   1.448   .     S
C1357  H1374   1.109   .     S
C1357  H1375   1.111   .     S
C1358  O1395   1.283   .     A
C1358  O1398   1.281   .     A
C1358  C1360   1.364   .     S
C1359  O1396   1.283   .     A
C1359  O1397   1.282   .     A
C1359  C1361   1.364   .     S
C1361  C352    1.164   1_556 S
C1362  H1365   1.083   .     S
C1362  C1476   1.368   1_455 S
C1363  H1376   1.082   .     S
C1363  C1402   1.371   .     S
C1364  H1378   1.079   .     S
C1364  C1418   1.368   .     S
H1369  N1389   1.030   .     S
H1373  N1390   1.030   .     S
H1380  N1387   1.031   .     S
H1384  N1388   1.030   .     S
N1385  Zn1399  2.026   .     S
N1386  Zn1400  2.026   .     S
O1391  Zn1399  2.001   .     S
O1392  Zn1400  2.001   .     S
O1393  Zn1399  2.000   .     S
O1394  Zn1400  2.000   .     S
O1395  Zn1399  1.948   .     S
O1396  Zn1400  1.948   .     S
O1397  Zn1399  1.945   .     S
O1398  Zn1400  1.945   .     S
C1401  O1450   1.290   .     A
C1401  C1404   1.421   .     S
C1401  O1447   1.289   .     A
C1402  H1435   1.084   .     S
C1402  C1404   1.398   .     A
C1403  C1419   1.397   .     A
C1403  C1420   1.396   .     A
C1403  C1412   1.423   .     S
C1404  C1418   1.396   .     A
C1405  N1442   1.371   .     A
C1405  N1443   1.420   .     S
C1406  N1444   1.421   .     S
C1406  N1441   1.374   .     A
C1406  C1071   1.437   1_565 S
C1407  N1445   1.419   .     S
C1407  N1442   1.369   .     A
C1408  N1441   1.373   .     A
C1408  N1446   1.421   .     S
C1408  C1069   1.431   1_565 S
C1409  H1437   1.110   .     S
C1409  H1438   1.109   .     S
C1409  N1443   1.447   .     S
C1409  H1439   1.111   .     S
C1410  H1423   1.109   .     S
C1410  H1422   1.107   .     S
C1410  N1444   1.449   .     S
C1410  H1424   1.112   .     S
C1411  H1427   1.109   .     S
C1411  H1428   1.112   .     S
C1411  N1445   1.447   .     S
C1411  H1426   1.110   .     S
C1412  O1448   1.290   .     A
C1412  O1449   1.290   .     A
C1413  H1433   1.109   .     S
C1413  N1446   1.448   .     S
C1413  H1430   1.109   .     S
C1413  H1431   1.111   .     S
C1414  O1451   1.283   .     A
C1414  O1454   1.281   .     A
C1414  C1416   1.364   .     S
C1415  O1452   1.283   .     A
C1415  O1453   1.282   .     A
C1415  C1417   1.364   .     S
C1417  C408    1.164   1_556 S
C1418  H1421   1.083   .     S
C1419  H1432   1.082   .     S
C1419  C1458   1.371   .     S
C1420  H1434   1.079   .     S
C1420  C1474   1.368   .     S
H1425  N1445   1.030   .     S
H1429  N1446   1.030   .     S
H1436  N1443   1.031   .     S
H1440  N1444   1.030   .     S
N1441  Zn1455  2.026   .     S
N1442  Zn1456  2.026   .     S
O1447  Zn1455  2.001   .     S
O1448  Zn1456  2.001   .     S
O1449  Zn1455  2.000   .     S
O1450  Zn1456  2.000   .     S
O1451  Zn1455  1.948   .     S
O1452  Zn1456  1.948   .     S
O1453  Zn1455  1.945   .     S
O1454  Zn1456  1.945   .     S
C1457  O1506   1.290   .     A
C1457  C1460   1.421   .     S
C1457  O1503   1.289   .     A
C1458  H1491   1.084   .     S
C1458  C1460   1.398   .     A
C1459  C1475   1.397   .     A
C1459  C1476   1.396   .     A
C1459  C1468   1.423   .     S
C1460  C1474   1.396   .     A
C1461  N1498   1.371   .     A
C1461  N1499   1.420   .     S
C1462  N1500   1.421   .     S
C1462  N1497   1.374   .     A
C1462  C1127   1.437   1_565 S
C1463  N1501   1.419   .     S
C1463  N1498   1.369   .     A
C1464  N1497   1.373   .     A
C1464  N1502   1.421   .     S
C1464  C1125   1.431   1_565 S
C1465  H1493   1.110   .     S
C1465  H1494   1.109   .     S
C1465  N1499   1.447   .     S
C1465  H1495   1.111   .     S
C1466  H1479   1.109   .     S
C1466  H1478   1.107   .     S
C1466  N1500   1.449   .     S
C1466  H1480   1.112   .     S
C1467  H1483   1.109   .     S
C1467  H1484   1.112   .     S
C1467  N1501   1.447   .     S
C1467  H1482   1.110   .     S
C1468  O1504   1.290   .     A
C1468  O1505   1.290   .     A
C1469  H1489   1.109   .     S
C1469  N1502   1.448   .     S
C1469  H1486   1.109   .     S
C1469  H1487   1.111   .     S
C1470  O1507   1.283   .     A
C1470  O1510   1.281   .     A
C1470  C1472   1.364   .     S
C1471  O1508   1.283   .     A
C1471  O1509   1.282   .     A
C1471  C1473   1.364   .     S
C1473  C464    1.164   1_556 S
C1474  H1477   1.083   .     S
C1475  H1488   1.082   .     S
C1475  C1346   1.371   1_655 S
C1476  H1490   1.079   .     S
C1476  C1362   1.368   1_655 S
H1481  N1501   1.030   .     S
H1485  N1502   1.030   .     S
H1492  N1499   1.031   .     S
H1496  N1500   1.030   .     S
N1497  Zn1511  2.026   .     S
N1498  Zn1512  2.026   .     S
O1503  Zn1511  2.001   .     S
O1504  Zn1512  2.001   .     S
O1505  Zn1511  2.000   .     S
O1506  Zn1512  2.000   .     S
O1507  Zn1511  1.948   .     S
O1508  Zn1512  1.948   .     S
O1509  Zn1511  1.945   .     S
O1510  Zn1512  1.945   .     S
