data_str_m3_o10_o17_pcu_sym.61
_audit_creation_date              2020-01-03
_audit_creation_method            'Materials Studio'
_symmetry_space_group_name_H-M    'P1'
_symmetry_Int_Tables_number       1
_symmetry_cell_setting            triclinic
loop_
_symmetry_equiv_pos_as_xyz
  x,y,z
_cell_length_a                    23.5815
_cell_length_b                    26.4168
_cell_length_c                    29.7512
_cell_angle_alpha                 91.7747
_cell_angle_beta                  86.0760
_cell_angle_gamma                 92.7184
loop_
_atom_site_label
_atom_site_type_symbol
_atom_site_fract_x
_atom_site_fract_y
_atom_site_fract_z
_atom_site_U_iso_or_equiv
_atom_site_adp_type
_atom_site_occupancy
C1     C     0.18157   0.26472   0.24862   0.00000  Uiso   1.00
C2     C     0.15921   0.21430   0.40806   0.00000  Uiso   1.00
C3     C     0.16401   0.16519   0.11631   0.00000  Uiso   1.00
C4     C     0.17012   0.16942   0.38370   0.00000  Uiso   1.00
C5     C     0.15978   0.21071   0.09548   0.00000  Uiso   1.00
C6     C     0.18143   0.12510   0.40421   0.00000  Uiso   1.00
C7     C     0.16206   0.21163   0.04901   0.00000  Uiso   1.00
C8     C     0.17965   0.12367   0.45072   0.00000  Uiso   1.00
C9     C     0.16843   0.16670   0.02340   0.00000  Uiso   1.00
C10    C     0.17046   0.16832   0.47633   0.00000  Uiso   1.00
C11    C     0.16972   0.12000   0.04480   0.00000  Uiso   1.00
C12    C     0.15178   0.06862   0.25155   0.00000  Uiso   1.00
C13    C     0.16090   0.21410   0.45524   0.00000  Uiso   1.00
C14    C     0.16208   0.25737   0.02776   0.00000  Uiso   1.00
C15    C     0.18279   0.07784   0.47211   0.00000  Uiso   1.00
C16    C     0.05014   0.26440   0.48383   0.00000  Uiso   1.00
C17    C     0.03203   0.21879   0.45370   0.00000  Uiso   1.00
C18    C     0.30247   0.20462   0.46171   0.00000  Uiso   1.00
C19    C     0.07172   0.04514   0.02564   0.00000  Uiso   1.00
C20    C     0.04646   0.09254   0.04974   0.00000  Uiso   1.00
C21    C     0.31521   0.09199   0.04950   0.00000  Uiso   1.00
C22    C     0.14718   0.25637   0.48281   0.00000  Uiso   1.00
C23    C     0.16548   0.07558   0.01817   0.00000  Uiso   1.00
C24    C     0.18938   0.31891   0.24805   0.00000  Uiso   1.00
C25    C     0.14398   0.01444   0.25228   0.00000  Uiso   1.00
C26    C     0.16758   0.16724   0.33619   0.00000  Uiso   1.00
C27    C     0.16590   0.16667   0.16382   0.00000  Uiso   1.00
C28    C     0.16786   0.11924   0.09212   0.00000  Uiso   1.00
H29    H     0.15576   0.24559   0.11554   0.00000  Uiso   1.00
H30    H     0.29168   0.17084   0.44033   0.00000  Uiso   1.00
H31    H     0.27692   0.23639   0.45237   0.00000  Uiso   1.00
H32    H     0.04577   0.01225   0.03901   0.00000  Uiso   1.00
H33    H     0.06647   0.04646   0.48879   0.00000  Uiso   1.00
H34    H     0.05779   0.09481   0.08531   0.00000  Uiso   1.00
H35    H     0.06267   0.12722   0.03217   0.00000  Uiso   1.00
H36    H     0.30157   0.08552   0.01475   0.00000  Uiso   1.00
H37    H     0.29985   0.12907   0.06263   0.00000  Uiso   1.00
H38    H     0.29598   0.06214   0.07185   0.00000  Uiso   1.00
H39    H     0.18693   0.09100   0.38349   0.00000  Uiso   1.00
H40    H     0.23263   0.00173   0.24418   0.00000  Uiso   1.00
H41    H     0.10073   0.33162   0.25616   0.00000  Uiso   1.00
H42    H     0.01884   0.29387   0.48047   0.00000  Uiso   1.00
H43    H     0.04691   0.25369   0.01989   0.00000  Uiso   1.00
H44    H     0.04037   0.22791   0.41767   0.00000  Uiso   1.00
H45    H     0.05539   0.18493   0.46113   0.00000  Uiso   1.00
H46    H     0.29215   0.19546   0.49760   0.00000  Uiso   1.00
I47    I     0.16961   0.05108   0.12928   0.00000  Uiso   1.00
I48    I     0.14172   0.28006   0.37104   0.00000  Uiso   1.00
I49    I     0.23704   0.29902   0.04499   0.00000  Uiso   1.00
I50    I     0.23542   0.02278   0.43955   0.00000  Uiso   1.00
I51    I     0.01283   0.09990   0.18985   0.00000  Uiso   1.00
I52    I     0.32007   0.23296   0.31054   0.00000  Uiso   1.00
N53    N     0.31678   0.15265   0.23783   0.00000  Uiso   1.00
N54    N     0.01656   0.18068   0.26217   0.00000  Uiso   1.00
O55    O     0.12975   0.24619   0.25298   0.00000  Uiso   1.00
O56    O     0.12940   0.03627   0.03393   0.00000  Uiso   1.00
O57    O     0.20358   0.08714   0.24701   0.00000  Uiso   1.00
O58    O     0.22613   0.23721   0.24518   0.00000  Uiso   1.00
O59    O     0.10720   0.09613   0.25481   0.00000  Uiso   1.00
O60    O     0.11847   0.17117   0.31997   0.00000  Uiso   1.00
O61    O     0.21486   0.16216   0.18002   0.00000  Uiso   1.00
O62    O     0.21485   0.16219   0.31217   0.00000  Uiso   1.00
O63    O     0.11848   0.17115   0.18782   0.00000  Uiso   1.00
O64    O     0.10480   0.28666   0.47063   0.00000  Uiso   1.00
Zn65   Zn    0.10231   0.17266   0.25521   0.00000  Uiso   1.00
Zn66   Zn    0.23102   0.16067   0.24479   0.00000  Uiso   1.00
C67    C     0.51490   0.26472   0.24862   0.00000  Uiso   1.00
C68    C     0.49254   0.21430   0.40806   0.00000  Uiso   1.00
C69    C     0.49735   0.16519   0.11631   0.00000  Uiso   1.00
C70    C     0.50345   0.16942   0.38370   0.00000  Uiso   1.00
C71    C     0.49312   0.21071   0.09548   0.00000  Uiso   1.00
C72    C     0.51476   0.12510   0.40421   0.00000  Uiso   1.00
C73    C     0.49539   0.21163   0.04901   0.00000  Uiso   1.00
C74    C     0.51298   0.12367   0.45072   0.00000  Uiso   1.00
C75    C     0.50177   0.16670   0.02340   0.00000  Uiso   1.00
C76    C     0.50379   0.16832   0.47633   0.00000  Uiso   1.00
C77    C     0.50305   0.12000   0.04480   0.00000  Uiso   1.00
C78    C     0.48511   0.06862   0.25155   0.00000  Uiso   1.00
C79    C     0.49423   0.21410   0.45524   0.00000  Uiso   1.00
C80    C     0.49541   0.25737   0.02776   0.00000  Uiso   1.00
C81    C     0.51613   0.07784   0.47211   0.00000  Uiso   1.00
C82    C     0.38347   0.26440   0.48383   0.00000  Uiso   1.00
C83    C     0.36536   0.21879   0.45370   0.00000  Uiso   1.00
C84    C     0.63580   0.20462   0.46171   0.00000  Uiso   1.00
C85    C     0.40505   0.04514   0.02564   0.00000  Uiso   1.00
C86    C     0.37979   0.09254   0.04974   0.00000  Uiso   1.00
C87    C     0.64855   0.09199   0.04950   0.00000  Uiso   1.00
C88    C     0.48052   0.25637   0.48281   0.00000  Uiso   1.00
C89    C     0.49882   0.07558   0.01817   0.00000  Uiso   1.00
C90    C     0.52271   0.31891   0.24805   0.00000  Uiso   1.00
C91    C     0.47732   0.01444   0.25228   0.00000  Uiso   1.00
C92    C     0.50092   0.16724   0.33619   0.00000  Uiso   1.00
C93    C     0.49924   0.16667   0.16382   0.00000  Uiso   1.00
C94    C     0.50120   0.11924   0.09212   0.00000  Uiso   1.00
H95    H     0.48909   0.24559   0.11554   0.00000  Uiso   1.00
H96    H     0.62501   0.17084   0.44033   0.00000  Uiso   1.00
H97    H     0.61025   0.23639   0.45237   0.00000  Uiso   1.00
H98    H     0.37910   0.01225   0.03901   0.00000  Uiso   1.00
H99    H     0.39980   0.04646   0.48879   0.00000  Uiso   1.00
H100   H     0.39113   0.09481   0.08531   0.00000  Uiso   1.00
H101   H     0.39601   0.12722   0.03217   0.00000  Uiso   1.00
H102   H     0.63490   0.08552   0.01475   0.00000  Uiso   1.00
H103   H     0.63318   0.12907   0.06263   0.00000  Uiso   1.00
H104   H     0.62931   0.06214   0.07185   0.00000  Uiso   1.00
H105   H     0.52027   0.09100   0.38349   0.00000  Uiso   1.00
H106   H     0.56597   0.00173   0.24418   0.00000  Uiso   1.00
H107   H     0.43406   0.33162   0.25616   0.00000  Uiso   1.00
H108   H     0.35218   0.29387   0.48047   0.00000  Uiso   1.00
H109   H     0.38025   0.25369   0.01989   0.00000  Uiso   1.00
H110   H     0.37370   0.22791   0.41767   0.00000  Uiso   1.00
H111   H     0.38872   0.18493   0.46113   0.00000  Uiso   1.00
H112   H     0.62548   0.19546   0.49760   0.00000  Uiso   1.00
I113   I     0.50294   0.05108   0.12928   0.00000  Uiso   1.00
I114   I     0.47505   0.28006   0.37104   0.00000  Uiso   1.00
I115   I     0.57038   0.29902   0.04499   0.00000  Uiso   1.00
I116   I     0.56875   0.02278   0.43955   0.00000  Uiso   1.00
I117   I     0.34616   0.09990   0.18985   0.00000  Uiso   1.00
I118   I     0.65341   0.23296   0.31054   0.00000  Uiso   1.00
N119   N     0.65011   0.15265   0.23783   0.00000  Uiso   1.00
N120   N     0.34989   0.18068   0.26217   0.00000  Uiso   1.00
O121   O     0.46308   0.24619   0.25298   0.00000  Uiso   1.00
O122   O     0.46273   0.03627   0.03393   0.00000  Uiso   1.00
O123   O     0.53692   0.08714   0.24701   0.00000  Uiso   1.00
O124   O     0.55946   0.23721   0.24518   0.00000  Uiso   1.00
O125   O     0.44054   0.09613   0.25481   0.00000  Uiso   1.00
O126   O     0.45181   0.17117   0.31997   0.00000  Uiso   1.00
O127   O     0.54819   0.16216   0.18002   0.00000  Uiso   1.00
O128   O     0.54819   0.16219   0.31217   0.00000  Uiso   1.00
O129   O     0.45181   0.17115   0.18782   0.00000  Uiso   1.00
O130   O     0.43813   0.28666   0.47063   0.00000  Uiso   1.00
Zn131  Zn    0.43565   0.17266   0.25521   0.00000  Uiso   1.00
Zn132  Zn    0.56435   0.16067   0.24479   0.00000  Uiso   1.00
C133   C     0.84824   0.26472   0.24862   0.00000  Uiso   1.00
C134   C     0.82587   0.21430   0.40806   0.00000  Uiso   1.00
C135   C     0.83068   0.16519   0.11631   0.00000  Uiso   1.00
C136   C     0.83678   0.16942   0.38370   0.00000  Uiso   1.00
C137   C     0.82645   0.21071   0.09548   0.00000  Uiso   1.00
C138   C     0.84809   0.12510   0.40421   0.00000  Uiso   1.00
C139   C     0.82873   0.21163   0.04901   0.00000  Uiso   1.00
C140   C     0.84631   0.12367   0.45072   0.00000  Uiso   1.00
C141   C     0.83510   0.16670   0.02340   0.00000  Uiso   1.00
C142   C     0.83712   0.16832   0.47633   0.00000  Uiso   1.00
C143   C     0.83639   0.12000   0.04480   0.00000  Uiso   1.00
C144   C     0.81844   0.06862   0.25155   0.00000  Uiso   1.00
C145   C     0.82757   0.21410   0.45524   0.00000  Uiso   1.00
C146   C     0.82875   0.25737   0.02776   0.00000  Uiso   1.00
C147   C     0.84946   0.07784   0.47211   0.00000  Uiso   1.00
C148   C     0.71680   0.26440   0.48383   0.00000  Uiso   1.00
C149   C     0.69870   0.21879   0.45370   0.00000  Uiso   1.00
C150   C     0.96914   0.20462   0.46171   0.00000  Uiso   1.00
C151   C     0.73838   0.04514   0.02564   0.00000  Uiso   1.00
C152   C     0.71312   0.09254   0.04974   0.00000  Uiso   1.00
C153   C     0.98188   0.09199   0.04950   0.00000  Uiso   1.00
C154   C     0.81385   0.25637   0.48281   0.00000  Uiso   1.00
C155   C     0.83215   0.07558   0.01817   0.00000  Uiso   1.00
C156   C     0.85604   0.31891   0.24805   0.00000  Uiso   1.00
C157   C     0.81065   0.01444   0.25228   0.00000  Uiso   1.00
C158   C     0.83425   0.16724   0.33619   0.00000  Uiso   1.00
C159   C     0.83257   0.16667   0.16382   0.00000  Uiso   1.00
C160   C     0.83453   0.11924   0.09212   0.00000  Uiso   1.00
H161   H     0.82243   0.24559   0.11554   0.00000  Uiso   1.00
H162   H     0.95835   0.17084   0.44033   0.00000  Uiso   1.00
H163   H     0.94359   0.23639   0.45237   0.00000  Uiso   1.00
H164   H     0.71244   0.01225   0.03901   0.00000  Uiso   1.00
H165   H     0.73314   0.04646   0.48879   0.00000  Uiso   1.00
H166   H     0.72446   0.09481   0.08531   0.00000  Uiso   1.00
H167   H     0.72934   0.12722   0.03217   0.00000  Uiso   1.00
H168   H     0.96823   0.08552   0.01475   0.00000  Uiso   1.00
H169   H     0.96651   0.12907   0.06263   0.00000  Uiso   1.00
H170   H     0.96265   0.06214   0.07185   0.00000  Uiso   1.00
H171   H     0.85360   0.09100   0.38349   0.00000  Uiso   1.00
H172   H     0.89930   0.00173   0.24418   0.00000  Uiso   1.00
H173   H     0.76739   0.33162   0.25616   0.00000  Uiso   1.00
H174   H     0.68551   0.29387   0.48047   0.00000  Uiso   1.00
H175   H     0.71358   0.25369   0.01989   0.00000  Uiso   1.00
H176   H     0.70703   0.22791   0.41767   0.00000  Uiso   1.00
H177   H     0.72206   0.18493   0.46113   0.00000  Uiso   1.00
H178   H     0.95882   0.19546   0.49760   0.00000  Uiso   1.00
I179   I     0.83628   0.05108   0.12928   0.00000  Uiso   1.00
I180   I     0.80839   0.28006   0.37104   0.00000  Uiso   1.00
I181   I     0.90371   0.29902   0.04499   0.00000  Uiso   1.00
I182   I     0.90209   0.02278   0.43955   0.00000  Uiso   1.00
I183   I     0.67949   0.09990   0.18985   0.00000  Uiso   1.00
I184   I     0.98674   0.23296   0.31054   0.00000  Uiso   1.00
N185   N     0.98344   0.15265   0.23783   0.00000  Uiso   1.00
N186   N     0.68322   0.18068   0.26217   0.00000  Uiso   1.00
O187   O     0.79642   0.24619   0.25298   0.00000  Uiso   1.00
O188   O     0.79607   0.03627   0.03393   0.00000  Uiso   1.00
O189   O     0.87025   0.08714   0.24701   0.00000  Uiso   1.00
O190   O     0.89280   0.23721   0.24518   0.00000  Uiso   1.00
O191   O     0.77387   0.09613   0.25481   0.00000  Uiso   1.00
O192   O     0.78514   0.17117   0.31997   0.00000  Uiso   1.00
O193   O     0.88153   0.16216   0.18002   0.00000  Uiso   1.00
O194   O     0.88152   0.16219   0.31217   0.00000  Uiso   1.00
O195   O     0.78515   0.17115   0.18782   0.00000  Uiso   1.00
O196   O     0.77147   0.28666   0.47063   0.00000  Uiso   1.00
Zn197  Zn    0.76898   0.17266   0.25521   0.00000  Uiso   1.00
Zn198  Zn    0.89769   0.16067   0.24479   0.00000  Uiso   1.00
C199   C     0.18157   0.59806   0.24862   0.00000  Uiso   1.00
C200   C     0.15921   0.54763   0.40806   0.00000  Uiso   1.00
C201   C     0.16401   0.49853   0.11631   0.00000  Uiso   1.00
C202   C     0.17012   0.50275   0.38370   0.00000  Uiso   1.00
C203   C     0.15978   0.54404   0.09548   0.00000  Uiso   1.00
C204   C     0.18143   0.45843   0.40421   0.00000  Uiso   1.00
C205   C     0.16206   0.54496   0.04901   0.00000  Uiso   1.00
C206   C     0.17965   0.45701   0.45072   0.00000  Uiso   1.00
C207   C     0.16843   0.50003   0.02340   0.00000  Uiso   1.00
C208   C     0.17046   0.50166   0.47633   0.00000  Uiso   1.00
C209   C     0.16972   0.45333   0.04480   0.00000  Uiso   1.00
C210   C     0.15178   0.40195   0.25155   0.00000  Uiso   1.00
C211   C     0.16090   0.54743   0.45524   0.00000  Uiso   1.00
C212   C     0.16208   0.59070   0.02776   0.00000  Uiso   1.00
C213   C     0.18279   0.41118   0.47211   0.00000  Uiso   1.00
C214   C     0.05014   0.59773   0.48383   0.00000  Uiso   1.00
C215   C     0.03203   0.55213   0.45370   0.00000  Uiso   1.00
C216   C     0.30247   0.53796   0.46171   0.00000  Uiso   1.00
C217   C     0.07172   0.37848   0.02564   0.00000  Uiso   1.00
C218   C     0.04646   0.42588   0.04974   0.00000  Uiso   1.00
C219   C     0.31521   0.42533   0.04950   0.00000  Uiso   1.00
C220   C     0.14718   0.58970   0.48281   0.00000  Uiso   1.00
C221   C     0.16548   0.40892   0.01817   0.00000  Uiso   1.00
C222   C     0.18938   0.65224   0.24805   0.00000  Uiso   1.00
C223   C     0.14398   0.34777   0.25228   0.00000  Uiso   1.00
C224   C     0.16758   0.50057   0.33619   0.00000  Uiso   1.00
C225   C     0.16590   0.50000   0.16382   0.00000  Uiso   1.00
C226   C     0.16786   0.45257   0.09212   0.00000  Uiso   1.00
H227   H     0.15576   0.57892   0.11554   0.00000  Uiso   1.00
H228   H     0.29168   0.50418   0.44033   0.00000  Uiso   1.00
H229   H     0.27692   0.56972   0.45237   0.00000  Uiso   1.00
H230   H     0.04577   0.34559   0.03901   0.00000  Uiso   1.00
H231   H     0.06647   0.37979   0.48879   0.00000  Uiso   1.00
H232   H     0.05779   0.42814   0.08531   0.00000  Uiso   1.00
H233   H     0.06267   0.46056   0.03217   0.00000  Uiso   1.00
H234   H     0.30157   0.41886   0.01475   0.00000  Uiso   1.00
H235   H     0.29985   0.46240   0.06263   0.00000  Uiso   1.00
H236   H     0.29598   0.39547   0.07185   0.00000  Uiso   1.00
H237   H     0.18693   0.42434   0.38349   0.00000  Uiso   1.00
H238   H     0.23263   0.33507   0.24418   0.00000  Uiso   1.00
H239   H     0.10073   0.66495   0.25616   0.00000  Uiso   1.00
H240   H     0.01884   0.62721   0.48047   0.00000  Uiso   1.00
H241   H     0.04691   0.58702   0.01989   0.00000  Uiso   1.00
H242   H     0.04037   0.56124   0.41767   0.00000  Uiso   1.00
H243   H     0.05539   0.51827   0.46113   0.00000  Uiso   1.00
H244   H     0.29215   0.52879   0.49760   0.00000  Uiso   1.00
I245   I     0.16961   0.38442   0.12928   0.00000  Uiso   1.00
I246   I     0.14172   0.61339   0.37104   0.00000  Uiso   1.00
I247   I     0.23704   0.63236   0.04499   0.00000  Uiso   1.00
I248   I     0.23542   0.35612   0.43955   0.00000  Uiso   1.00
I249   I     0.01283   0.43324   0.18985   0.00000  Uiso   1.00
I250   I     0.32007   0.56629   0.31054   0.00000  Uiso   1.00
N251   N     0.31678   0.48598   0.23783   0.00000  Uiso   1.00
N252   N     0.01656   0.51402   0.26217   0.00000  Uiso   1.00
O253   O     0.12975   0.57952   0.25298   0.00000  Uiso   1.00
O254   O     0.12940   0.36961   0.03393   0.00000  Uiso   1.00
O255   O     0.20358   0.42048   0.24701   0.00000  Uiso   1.00
O256   O     0.22613   0.57054   0.24518   0.00000  Uiso   1.00
O257   O     0.10720   0.42946   0.25481   0.00000  Uiso   1.00
O258   O     0.11847   0.50450   0.31997   0.00000  Uiso   1.00
O259   O     0.21486   0.49550   0.18002   0.00000  Uiso   1.00
O260   O     0.21485   0.49552   0.31217   0.00000  Uiso   1.00
O261   O     0.11848   0.50448   0.18782   0.00000  Uiso   1.00
O262   O     0.10480   0.61999   0.47063   0.00000  Uiso   1.00
Zn263  Zn    0.10231   0.50600   0.25521   0.00000  Uiso   1.00
Zn264  Zn    0.23102   0.49400   0.24479   0.00000  Uiso   1.00
C265   C     0.51490   0.59806   0.24862   0.00000  Uiso   1.00
C266   C     0.49254   0.54763   0.40806   0.00000  Uiso   1.00
C267   C     0.49735   0.49853   0.11631   0.00000  Uiso   1.00
C268   C     0.50345   0.50275   0.38370   0.00000  Uiso   1.00
C269   C     0.49312   0.54404   0.09548   0.00000  Uiso   1.00
C270   C     0.51476   0.45843   0.40421   0.00000  Uiso   1.00
C271   C     0.49539   0.54496   0.04901   0.00000  Uiso   1.00
C272   C     0.51298   0.45701   0.45072   0.00000  Uiso   1.00
C273   C     0.50177   0.50003   0.02340   0.00000  Uiso   1.00
C274   C     0.50379   0.50166   0.47633   0.00000  Uiso   1.00
C275   C     0.50305   0.45333   0.04480   0.00000  Uiso   1.00
C276   C     0.48511   0.40195   0.25155   0.00000  Uiso   1.00
C277   C     0.49423   0.54743   0.45524   0.00000  Uiso   1.00
C278   C     0.49541   0.59070   0.02776   0.00000  Uiso   1.00
C279   C     0.51613   0.41118   0.47211   0.00000  Uiso   1.00
C280   C     0.38347   0.59773   0.48383   0.00000  Uiso   1.00
C281   C     0.36536   0.55213   0.45370   0.00000  Uiso   1.00
C282   C     0.63580   0.53796   0.46171   0.00000  Uiso   1.00
C283   C     0.40505   0.37848   0.02564   0.00000  Uiso   1.00
C284   C     0.37979   0.42588   0.04974   0.00000  Uiso   1.00
C285   C     0.64855   0.42533   0.04950   0.00000  Uiso   1.00
C286   C     0.48052   0.58970   0.48281   0.00000  Uiso   1.00
C287   C     0.49882   0.40892   0.01817   0.00000  Uiso   1.00
C288   C     0.52271   0.65224   0.24805   0.00000  Uiso   1.00
C289   C     0.47732   0.34777   0.25228   0.00000  Uiso   1.00
C290   C     0.50092   0.50057   0.33619   0.00000  Uiso   1.00
C291   C     0.49924   0.50000   0.16382   0.00000  Uiso   1.00
C292   C     0.50120   0.45257   0.09212   0.00000  Uiso   1.00
H293   H     0.48909   0.57892   0.11554   0.00000  Uiso   1.00
H294   H     0.62501   0.50418   0.44033   0.00000  Uiso   1.00
H295   H     0.61025   0.56972   0.45237   0.00000  Uiso   1.00
H296   H     0.37910   0.34559   0.03901   0.00000  Uiso   1.00
H297   H     0.39980   0.37979   0.48879   0.00000  Uiso   1.00
H298   H     0.39113   0.42814   0.08531   0.00000  Uiso   1.00
H299   H     0.39601   0.46056   0.03217   0.00000  Uiso   1.00
H300   H     0.63490   0.41886   0.01475   0.00000  Uiso   1.00
H301   H     0.63318   0.46240   0.06263   0.00000  Uiso   1.00
H302   H     0.62931   0.39547   0.07185   0.00000  Uiso   1.00
H303   H     0.52027   0.42434   0.38349   0.00000  Uiso   1.00
H304   H     0.56597   0.33507   0.24418   0.00000  Uiso   1.00
H305   H     0.43406   0.66495   0.25616   0.00000  Uiso   1.00
H306   H     0.35218   0.62721   0.48047   0.00000  Uiso   1.00
H307   H     0.38025   0.58702   0.01989   0.00000  Uiso   1.00
H308   H     0.37370   0.56124   0.41767   0.00000  Uiso   1.00
H309   H     0.38872   0.51827   0.46113   0.00000  Uiso   1.00
H310   H     0.62548   0.52879   0.49760   0.00000  Uiso   1.00
I311   I     0.50294   0.38442   0.12928   0.00000  Uiso   1.00
I312   I     0.47505   0.61339   0.37104   0.00000  Uiso   1.00
I313   I     0.57038   0.63236   0.04499   0.00000  Uiso   1.00
I314   I     0.56875   0.35612   0.43955   0.00000  Uiso   1.00
I315   I     0.34616   0.43324   0.18985   0.00000  Uiso   1.00
I316   I     0.65341   0.56629   0.31054   0.00000  Uiso   1.00
N317   N     0.65011   0.48598   0.23783   0.00000  Uiso   1.00
N318   N     0.34989   0.51402   0.26217   0.00000  Uiso   1.00
O319   O     0.46308   0.57952   0.25298   0.00000  Uiso   1.00
O320   O     0.46273   0.36961   0.03393   0.00000  Uiso   1.00
O321   O     0.53692   0.42048   0.24701   0.00000  Uiso   1.00
O322   O     0.55946   0.57054   0.24518   0.00000  Uiso   1.00
O323   O     0.44054   0.42946   0.25481   0.00000  Uiso   1.00
O324   O     0.45181   0.50450   0.31997   0.00000  Uiso   1.00
O325   O     0.54819   0.49550   0.18002   0.00000  Uiso   1.00
O326   O     0.54819   0.49552   0.31217   0.00000  Uiso   1.00
O327   O     0.45181   0.50448   0.18782   0.00000  Uiso   1.00
O328   O     0.43813   0.61999   0.47063   0.00000  Uiso   1.00
Zn329  Zn    0.43565   0.50600   0.25521   0.00000  Uiso   1.00
Zn330  Zn    0.56435   0.49400   0.24479   0.00000  Uiso   1.00
C331   C     0.84824   0.59806   0.24862   0.00000  Uiso   1.00
C332   C     0.82587   0.54763   0.40806   0.00000  Uiso   1.00
C333   C     0.83068   0.49853   0.11631   0.00000  Uiso   1.00
C334   C     0.83678   0.50275   0.38370   0.00000  Uiso   1.00
C335   C     0.82645   0.54404   0.09548   0.00000  Uiso   1.00
C336   C     0.84809   0.45843   0.40421   0.00000  Uiso   1.00
C337   C     0.82873   0.54496   0.04901   0.00000  Uiso   1.00
C338   C     0.84631   0.45701   0.45072   0.00000  Uiso   1.00
C339   C     0.83510   0.50003   0.02340   0.00000  Uiso   1.00
C340   C     0.83712   0.50166   0.47633   0.00000  Uiso   1.00
C341   C     0.83639   0.45333   0.04480   0.00000  Uiso   1.00
C342   C     0.81844   0.40195   0.25155   0.00000  Uiso   1.00
C343   C     0.82757   0.54743   0.45524   0.00000  Uiso   1.00
C344   C     0.82875   0.59070   0.02776   0.00000  Uiso   1.00
C345   C     0.84946   0.41118   0.47211   0.00000  Uiso   1.00
C346   C     0.71680   0.59773   0.48383   0.00000  Uiso   1.00
C347   C     0.69870   0.55213   0.45370   0.00000  Uiso   1.00
C348   C     0.96914   0.53796   0.46171   0.00000  Uiso   1.00
C349   C     0.73838   0.37848   0.02564   0.00000  Uiso   1.00
C350   C     0.71312   0.42588   0.04974   0.00000  Uiso   1.00
C351   C     0.98188   0.42533   0.04950   0.00000  Uiso   1.00
C352   C     0.81385   0.58970   0.48281   0.00000  Uiso   1.00
C353   C     0.83215   0.40892   0.01817   0.00000  Uiso   1.00
C354   C     0.85604   0.65224   0.24805   0.00000  Uiso   1.00
C355   C     0.81065   0.34777   0.25228   0.00000  Uiso   1.00
C356   C     0.83425   0.50057   0.33619   0.00000  Uiso   1.00
C357   C     0.83257   0.50000   0.16382   0.00000  Uiso   1.00
C358   C     0.83453   0.45257   0.09212   0.00000  Uiso   1.00
H359   H     0.82243   0.57892   0.11554   0.00000  Uiso   1.00
H360   H     0.95835   0.50418   0.44033   0.00000  Uiso   1.00
H361   H     0.94359   0.56972   0.45237   0.00000  Uiso   1.00
H362   H     0.71244   0.34559   0.03901   0.00000  Uiso   1.00
H363   H     0.73314   0.37979   0.48879   0.00000  Uiso   1.00
H364   H     0.72446   0.42814   0.08531   0.00000  Uiso   1.00
H365   H     0.72934   0.46056   0.03217   0.00000  Uiso   1.00
H366   H     0.96823   0.41886   0.01475   0.00000  Uiso   1.00
H367   H     0.96651   0.46240   0.06263   0.00000  Uiso   1.00
H368   H     0.96265   0.39547   0.07185   0.00000  Uiso   1.00
H369   H     0.85360   0.42434   0.38349   0.00000  Uiso   1.00
H370   H     0.89930   0.33507   0.24418   0.00000  Uiso   1.00
H371   H     0.76739   0.66495   0.25616   0.00000  Uiso   1.00
H372   H     0.68551   0.62721   0.48047   0.00000  Uiso   1.00
H373   H     0.71358   0.58702   0.01989   0.00000  Uiso   1.00
H374   H     0.70703   0.56124   0.41767   0.00000  Uiso   1.00
H375   H     0.72206   0.51827   0.46113   0.00000  Uiso   1.00
H376   H     0.95882   0.52879   0.49760   0.00000  Uiso   1.00
I377   I     0.83628   0.38442   0.12928   0.00000  Uiso   1.00
I378   I     0.80839   0.61339   0.37104   0.00000  Uiso   1.00
I379   I     0.90371   0.63236   0.04499   0.00000  Uiso   1.00
I380   I     0.90209   0.35612   0.43955   0.00000  Uiso   1.00
I381   I     0.67949   0.43324   0.18985   0.00000  Uiso   1.00
I382   I     0.98674   0.56629   0.31054   0.00000  Uiso   1.00
N383   N     0.98344   0.48598   0.23783   0.00000  Uiso   1.00
N384   N     0.68322   0.51402   0.26217   0.00000  Uiso   1.00
O385   O     0.79642   0.57952   0.25298   0.00000  Uiso   1.00
O386   O     0.79607   0.36961   0.03393   0.00000  Uiso   1.00
O387   O     0.87025   0.42048   0.24701   0.00000  Uiso   1.00
O388   O     0.89280   0.57054   0.24518   0.00000  Uiso   1.00
O389   O     0.77387   0.42946   0.25481   0.00000  Uiso   1.00
O390   O     0.78514   0.50450   0.31997   0.00000  Uiso   1.00
O391   O     0.88153   0.49550   0.18002   0.00000  Uiso   1.00
O392   O     0.88152   0.49552   0.31217   0.00000  Uiso   1.00
O393   O     0.78515   0.50448   0.18782   0.00000  Uiso   1.00
O394   O     0.77147   0.61999   0.47063   0.00000  Uiso   1.00
Zn395  Zn    0.76898   0.50600   0.25521   0.00000  Uiso   1.00
Zn396  Zn    0.89769   0.49400   0.24479   0.00000  Uiso   1.00
C397   C     0.18157   0.93139   0.24862   0.00000  Uiso   1.00
C398   C     0.15921   0.88096   0.40806   0.00000  Uiso   1.00
C399   C     0.16401   0.83186   0.11631   0.00000  Uiso   1.00
C400   C     0.17012   0.83608   0.38370   0.00000  Uiso   1.00
C401   C     0.15978   0.87737   0.09548   0.00000  Uiso   1.00
C402   C     0.18143   0.79177   0.40421   0.00000  Uiso   1.00
C403   C     0.16206   0.87829   0.04901   0.00000  Uiso   1.00
C404   C     0.17965   0.79034   0.45072   0.00000  Uiso   1.00
C405   C     0.16843   0.83337   0.02340   0.00000  Uiso   1.00
C406   C     0.17046   0.83499   0.47633   0.00000  Uiso   1.00
C407   C     0.16972   0.78666   0.04480   0.00000  Uiso   1.00
C408   C     0.15178   0.73528   0.25155   0.00000  Uiso   1.00
C409   C     0.16090   0.88076   0.45524   0.00000  Uiso   1.00
C410   C     0.16208   0.92403   0.02776   0.00000  Uiso   1.00
C411   C     0.18279   0.74451   0.47211   0.00000  Uiso   1.00
C412   C     0.05014   0.93106   0.48383   0.00000  Uiso   1.00
C413   C     0.03203   0.88546   0.45370   0.00000  Uiso   1.00
C414   C     0.30247   0.87129   0.46171   0.00000  Uiso   1.00
C415   C     0.07172   0.71181   0.02564   0.00000  Uiso   1.00
C416   C     0.04646   0.75921   0.04974   0.00000  Uiso   1.00
C417   C     0.31521   0.75866   0.04950   0.00000  Uiso   1.00
C418   C     0.14718   0.92303   0.48281   0.00000  Uiso   1.00
C419   C     0.16548   0.74225   0.01817   0.00000  Uiso   1.00
C420   C     0.18938   0.98558   0.24805   0.00000  Uiso   1.00
C421   C     0.14398   0.68110   0.25228   0.00000  Uiso   1.00
C422   C     0.16758   0.83390   0.33619   0.00000  Uiso   1.00
C423   C     0.16590   0.83334   0.16382   0.00000  Uiso   1.00
C424   C     0.16786   0.78591   0.09212   0.00000  Uiso   1.00
H425   H     0.15576   0.91225   0.11554   0.00000  Uiso   1.00
H426   H     0.29168   0.83751   0.44033   0.00000  Uiso   1.00
H427   H     0.27692   0.90306   0.45237   0.00000  Uiso   1.00
H428   H     0.04577   0.67892   0.03901   0.00000  Uiso   1.00
H429   H     0.06647   0.71312   0.48879   0.00000  Uiso   1.00
H430   H     0.05779   0.76148   0.08531   0.00000  Uiso   1.00
H431   H     0.06267   0.79389   0.03217   0.00000  Uiso   1.00
H432   H     0.30157   0.75219   0.01475   0.00000  Uiso   1.00
H433   H     0.29985   0.79573   0.06263   0.00000  Uiso   1.00
H434   H     0.29598   0.72880   0.07185   0.00000  Uiso   1.00
H435   H     0.18693   0.75767   0.38349   0.00000  Uiso   1.00
H436   H     0.23263   0.66840   0.24418   0.00000  Uiso   1.00
H437   H     0.10073   0.99828   0.25616   0.00000  Uiso   1.00
H438   H     0.01884   0.96054   0.48047   0.00000  Uiso   1.00
H439   H     0.04691   0.92035   0.01989   0.00000  Uiso   1.00
H440   H     0.04037   0.89458   0.41767   0.00000  Uiso   1.00
H441   H     0.05539   0.85160   0.46113   0.00000  Uiso   1.00
H442   H     0.29215   0.86212   0.49760   0.00000  Uiso   1.00
I443   I     0.16961   0.71775   0.12928   0.00000  Uiso   1.00
I444   I     0.14172   0.94672   0.37104   0.00000  Uiso   1.00
I445   I     0.23704   0.96569   0.04499   0.00000  Uiso   1.00
I446   I     0.23542   0.68945   0.43955   0.00000  Uiso   1.00
I447   I     0.01283   0.76657   0.18985   0.00000  Uiso   1.00
I448   I     0.32007   0.89963   0.31054   0.00000  Uiso   1.00
N449   N     0.31678   0.81932   0.23783   0.00000  Uiso   1.00
N450   N     0.01656   0.84735   0.26217   0.00000  Uiso   1.00
O451   O     0.12975   0.91286   0.25298   0.00000  Uiso   1.00
O452   O     0.12940   0.70294   0.03393   0.00000  Uiso   1.00
O453   O     0.20358   0.75381   0.24701   0.00000  Uiso   1.00
O454   O     0.22613   0.90387   0.24518   0.00000  Uiso   1.00
O455   O     0.10720   0.76279   0.25481   0.00000  Uiso   1.00
O456   O     0.11847   0.83784   0.31997   0.00000  Uiso   1.00
O457   O     0.21486   0.82883   0.18002   0.00000  Uiso   1.00
O458   O     0.21485   0.82885   0.31217   0.00000  Uiso   1.00
O459   O     0.11848   0.83781   0.18782   0.00000  Uiso   1.00
O460   O     0.10480   0.95332   0.47063   0.00000  Uiso   1.00
Zn461  Zn    0.10231   0.83933   0.25521   0.00000  Uiso   1.00
Zn462  Zn    0.23102   0.82734   0.24479   0.00000  Uiso   1.00
C463   C     0.51490   0.93139   0.24862   0.00000  Uiso   1.00
C464   C     0.49254   0.88096   0.40806   0.00000  Uiso   1.00
C465   C     0.49735   0.83186   0.11631   0.00000  Uiso   1.00
C466   C     0.50345   0.83608   0.38370   0.00000  Uiso   1.00
C467   C     0.49312   0.87737   0.09548   0.00000  Uiso   1.00
C468   C     0.51476   0.79177   0.40421   0.00000  Uiso   1.00
C469   C     0.49539   0.87829   0.04901   0.00000  Uiso   1.00
C470   C     0.51298   0.79034   0.45072   0.00000  Uiso   1.00
C471   C     0.50177   0.83337   0.02340   0.00000  Uiso   1.00
C472   C     0.50379   0.83499   0.47633   0.00000  Uiso   1.00
C473   C     0.50305   0.78666   0.04480   0.00000  Uiso   1.00
C474   C     0.48511   0.73528   0.25155   0.00000  Uiso   1.00
C475   C     0.49423   0.88076   0.45524   0.00000  Uiso   1.00
C476   C     0.49541   0.92403   0.02776   0.00000  Uiso   1.00
C477   C     0.51613   0.74451   0.47211   0.00000  Uiso   1.00
C478   C     0.38347   0.93106   0.48383   0.00000  Uiso   1.00
C479   C     0.36536   0.88546   0.45370   0.00000  Uiso   1.00
C480   C     0.63580   0.87129   0.46171   0.00000  Uiso   1.00
C481   C     0.40505   0.71181   0.02564   0.00000  Uiso   1.00
C482   C     0.37979   0.75921   0.04974   0.00000  Uiso   1.00
C483   C     0.64855   0.75866   0.04950   0.00000  Uiso   1.00
C484   C     0.48052   0.92303   0.48281   0.00000  Uiso   1.00
C485   C     0.49882   0.74225   0.01817   0.00000  Uiso   1.00
C486   C     0.52271   0.98558   0.24805   0.00000  Uiso   1.00
C487   C     0.47732   0.68110   0.25228   0.00000  Uiso   1.00
C488   C     0.50092   0.83390   0.33619   0.00000  Uiso   1.00
C489   C     0.49924   0.83334   0.16382   0.00000  Uiso   1.00
C490   C     0.50120   0.78591   0.09212   0.00000  Uiso   1.00
H491   H     0.48909   0.91225   0.11554   0.00000  Uiso   1.00
H492   H     0.62501   0.83751   0.44033   0.00000  Uiso   1.00
H493   H     0.61025   0.90306   0.45237   0.00000  Uiso   1.00
H494   H     0.37910   0.67892   0.03901   0.00000  Uiso   1.00
H495   H     0.39980   0.71312   0.48879   0.00000  Uiso   1.00
H496   H     0.39113   0.76148   0.08531   0.00000  Uiso   1.00
H497   H     0.39601   0.79389   0.03217   0.00000  Uiso   1.00
H498   H     0.63490   0.75219   0.01475   0.00000  Uiso   1.00
H499   H     0.63318   0.79573   0.06263   0.00000  Uiso   1.00
H500   H     0.62931   0.72880   0.07185   0.00000  Uiso   1.00
H501   H     0.52027   0.75767   0.38349   0.00000  Uiso   1.00
H502   H     0.56597   0.66840   0.24418   0.00000  Uiso   1.00
H503   H     0.43406   0.99828   0.25616   0.00000  Uiso   1.00
H504   H     0.35218   0.96054   0.48047   0.00000  Uiso   1.00
H505   H     0.38025   0.92035   0.01989   0.00000  Uiso   1.00
H506   H     0.37370   0.89458   0.41767   0.00000  Uiso   1.00
H507   H     0.38872   0.85160   0.46113   0.00000  Uiso   1.00
H508   H     0.62548   0.86212   0.49760   0.00000  Uiso   1.00
I509   I     0.50294   0.71775   0.12928   0.00000  Uiso   1.00
I510   I     0.47505   0.94672   0.37104   0.00000  Uiso   1.00
I511   I     0.57038   0.96569   0.04499   0.00000  Uiso   1.00
I512   I     0.56875   0.68945   0.43955   0.00000  Uiso   1.00
I513   I     0.34616   0.76657   0.18985   0.00000  Uiso   1.00
I514   I     0.65341   0.89963   0.31054   0.00000  Uiso   1.00
N515   N     0.65011   0.81932   0.23783   0.00000  Uiso   1.00
N516   N     0.34989   0.84735   0.26217   0.00000  Uiso   1.00
O517   O     0.46308   0.91286   0.25298   0.00000  Uiso   1.00
O518   O     0.46273   0.70294   0.03393   0.00000  Uiso   1.00
O519   O     0.53692   0.75381   0.24701   0.00000  Uiso   1.00
O520   O     0.55946   0.90387   0.24518   0.00000  Uiso   1.00
O521   O     0.44054   0.76279   0.25481   0.00000  Uiso   1.00
O522   O     0.45181   0.83784   0.31997   0.00000  Uiso   1.00
O523   O     0.54819   0.82883   0.18002   0.00000  Uiso   1.00
O524   O     0.54819   0.82885   0.31217   0.00000  Uiso   1.00
O525   O     0.45181   0.83781   0.18782   0.00000  Uiso   1.00
O526   O     0.43813   0.95332   0.47063   0.00000  Uiso   1.00
Zn527  Zn    0.43565   0.83933   0.25521   0.00000  Uiso   1.00
Zn528  Zn    0.56435   0.82734   0.24479   0.00000  Uiso   1.00
C529   C     0.84824   0.93139   0.24862   0.00000  Uiso   1.00
C530   C     0.82587   0.88096   0.40806   0.00000  Uiso   1.00
C531   C     0.83068   0.83186   0.11631   0.00000  Uiso   1.00
C532   C     0.83678   0.83608   0.38370   0.00000  Uiso   1.00
C533   C     0.82645   0.87737   0.09548   0.00000  Uiso   1.00
C534   C     0.84809   0.79177   0.40421   0.00000  Uiso   1.00
C535   C     0.82873   0.87829   0.04901   0.00000  Uiso   1.00
C536   C     0.84631   0.79034   0.45072   0.00000  Uiso   1.00
C537   C     0.83510   0.83337   0.02340   0.00000  Uiso   1.00
C538   C     0.83712   0.83499   0.47633   0.00000  Uiso   1.00
C539   C     0.83639   0.78666   0.04480   0.00000  Uiso   1.00
C540   C     0.81844   0.73528   0.25155   0.00000  Uiso   1.00
C541   C     0.82757   0.88076   0.45524   0.00000  Uiso   1.00
C542   C     0.82875   0.92403   0.02776   0.00000  Uiso   1.00
C543   C     0.84946   0.74451   0.47211   0.00000  Uiso   1.00
C544   C     0.71680   0.93106   0.48383   0.00000  Uiso   1.00
C545   C     0.69870   0.88546   0.45370   0.00000  Uiso   1.00
C546   C     0.96914   0.87129   0.46171   0.00000  Uiso   1.00
C547   C     0.73838   0.71181   0.02564   0.00000  Uiso   1.00
C548   C     0.71312   0.75921   0.04974   0.00000  Uiso   1.00
C549   C     0.98188   0.75866   0.04950   0.00000  Uiso   1.00
C550   C     0.81385   0.92303   0.48281   0.00000  Uiso   1.00
C551   C     0.83215   0.74225   0.01817   0.00000  Uiso   1.00
C552   C     0.85604   0.98558   0.24805   0.00000  Uiso   1.00
C553   C     0.81065   0.68110   0.25228   0.00000  Uiso   1.00
C554   C     0.83425   0.83390   0.33619   0.00000  Uiso   1.00
C555   C     0.83257   0.83334   0.16382   0.00000  Uiso   1.00
C556   C     0.83453   0.78591   0.09212   0.00000  Uiso   1.00
H557   H     0.82243   0.91225   0.11554   0.00000  Uiso   1.00
H558   H     0.95835   0.83751   0.44033   0.00000  Uiso   1.00
H559   H     0.94359   0.90306   0.45237   0.00000  Uiso   1.00
H560   H     0.71244   0.67892   0.03901   0.00000  Uiso   1.00
H561   H     0.73314   0.71312   0.48879   0.00000  Uiso   1.00
H562   H     0.72446   0.76148   0.08531   0.00000  Uiso   1.00
H563   H     0.72934   0.79389   0.03217   0.00000  Uiso   1.00
H564   H     0.96823   0.75219   0.01475   0.00000  Uiso   1.00
H565   H     0.96651   0.79573   0.06263   0.00000  Uiso   1.00
H566   H     0.96265   0.72880   0.07185   0.00000  Uiso   1.00
H567   H     0.85360   0.75767   0.38349   0.00000  Uiso   1.00
H568   H     0.89930   0.66840   0.24418   0.00000  Uiso   1.00
H569   H     0.76739   0.99828   0.25616   0.00000  Uiso   1.00
H570   H     0.68551   0.96054   0.48047   0.00000  Uiso   1.00
H571   H     0.71358   0.92035   0.01989   0.00000  Uiso   1.00
H572   H     0.70703   0.89458   0.41767   0.00000  Uiso   1.00
H573   H     0.72206   0.85160   0.46113   0.00000  Uiso   1.00
H574   H     0.95882   0.86212   0.49760   0.00000  Uiso   1.00
I575   I     0.83628   0.71775   0.12928   0.00000  Uiso   1.00
I576   I     0.80839   0.94672   0.37104   0.00000  Uiso   1.00
I577   I     0.90371   0.96569   0.04499   0.00000  Uiso   1.00
I578   I     0.90209   0.68945   0.43955   0.00000  Uiso   1.00
I579   I     0.67949   0.76657   0.18985   0.00000  Uiso   1.00
I580   I     0.98674   0.89963   0.31054   0.00000  Uiso   1.00
N581   N     0.98344   0.81932   0.23783   0.00000  Uiso   1.00
N582   N     0.68322   0.84735   0.26217   0.00000  Uiso   1.00
O583   O     0.79642   0.91286   0.25298   0.00000  Uiso   1.00
O584   O     0.79607   0.70294   0.03393   0.00000  Uiso   1.00
O585   O     0.87025   0.75381   0.24701   0.00000  Uiso   1.00
O586   O     0.89280   0.90387   0.24518   0.00000  Uiso   1.00
O587   O     0.77387   0.76279   0.25481   0.00000  Uiso   1.00
O588   O     0.78514   0.83784   0.31997   0.00000  Uiso   1.00
O589   O     0.88153   0.82883   0.18002   0.00000  Uiso   1.00
O590   O     0.88152   0.82885   0.31217   0.00000  Uiso   1.00
O591   O     0.78515   0.83781   0.18782   0.00000  Uiso   1.00
O592   O     0.77147   0.95332   0.47063   0.00000  Uiso   1.00
Zn593  Zn    0.76898   0.83933   0.25521   0.00000  Uiso   1.00
Zn594  Zn    0.89769   0.82734   0.24479   0.00000  Uiso   1.00
C595   C     0.18157   0.26472   0.74862   0.00000  Uiso   1.00
C596   C     0.15921   0.21430   0.90806   0.00000  Uiso   1.00
C597   C     0.16401   0.16519   0.61631   0.00000  Uiso   1.00
C598   C     0.17012   0.16942   0.88370   0.00000  Uiso   1.00
C599   C     0.15978   0.21071   0.59548   0.00000  Uiso   1.00
C600   C     0.18143   0.12510   0.90421   0.00000  Uiso   1.00
C601   C     0.16206   0.21163   0.54901   0.00000  Uiso   1.00
C602   C     0.17965   0.12367   0.95072   0.00000  Uiso   1.00
C603   C     0.16843   0.16670   0.52340   0.00000  Uiso   1.00
C604   C     0.17046   0.16832   0.97633   0.00000  Uiso   1.00
C605   C     0.16972   0.12000   0.54480   0.00000  Uiso   1.00
C606   C     0.15178   0.06862   0.75155   0.00000  Uiso   1.00
C607   C     0.16090   0.21410   0.95524   0.00000  Uiso   1.00
C608   C     0.16208   0.25737   0.52776   0.00000  Uiso   1.00
C609   C     0.18279   0.07784   0.97211   0.00000  Uiso   1.00
C610   C     0.05014   0.26440   0.98383   0.00000  Uiso   1.00
C611   C     0.03203   0.21879   0.95370   0.00000  Uiso   1.00
C612   C     0.30247   0.20462   0.96171   0.00000  Uiso   1.00
C613   C     0.07172   0.04514   0.52564   0.00000  Uiso   1.00
C614   C     0.04646   0.09254   0.54974   0.00000  Uiso   1.00
C615   C     0.31521   0.09199   0.54950   0.00000  Uiso   1.00
C616   C     0.14718   0.25637   0.98281   0.00000  Uiso   1.00
C617   C     0.16548   0.07558   0.51817   0.00000  Uiso   1.00
C618   C     0.18938   0.31891   0.74805   0.00000  Uiso   1.00
C619   C     0.14398   0.01444   0.75228   0.00000  Uiso   1.00
C620   C     0.16758   0.16724   0.83619   0.00000  Uiso   1.00
C621   C     0.16590   0.16667   0.66382   0.00000  Uiso   1.00
C622   C     0.16786   0.11924   0.59212   0.00000  Uiso   1.00
H623   H     0.15576   0.24559   0.61554   0.00000  Uiso   1.00
H624   H     0.29168   0.17084   0.94033   0.00000  Uiso   1.00
H625   H     0.27692   0.23639   0.95237   0.00000  Uiso   1.00
H626   H     0.04577   0.01225   0.53901   0.00000  Uiso   1.00
H627   H     0.06647   0.04646   0.98879   0.00000  Uiso   1.00
H628   H     0.05779   0.09481   0.58531   0.00000  Uiso   1.00
H629   H     0.06267   0.12722   0.53217   0.00000  Uiso   1.00
H630   H     0.30157   0.08552   0.51475   0.00000  Uiso   1.00
H631   H     0.29985   0.12907   0.56263   0.00000  Uiso   1.00
H632   H     0.29598   0.06214   0.57185   0.00000  Uiso   1.00
H633   H     0.18693   0.09100   0.88349   0.00000  Uiso   1.00
H634   H     0.23263   0.00173   0.74418   0.00000  Uiso   1.00
H635   H     0.10073   0.33162   0.75616   0.00000  Uiso   1.00
H636   H     0.01884   0.29387   0.98047   0.00000  Uiso   1.00
H637   H     0.04691   0.25369   0.51989   0.00000  Uiso   1.00
H638   H     0.04037   0.22791   0.91767   0.00000  Uiso   1.00
H639   H     0.05539   0.18493   0.96113   0.00000  Uiso   1.00
H640   H     0.29215   0.19546   0.99760   0.00000  Uiso   1.00
I641   I     0.16961   0.05108   0.62928   0.00000  Uiso   1.00
I642   I     0.14172   0.28006   0.87104   0.00000  Uiso   1.00
I643   I     0.23704   0.29902   0.54499   0.00000  Uiso   1.00
I644   I     0.23542   0.02278   0.93955   0.00000  Uiso   1.00
I645   I     0.01283   0.09990   0.68985   0.00000  Uiso   1.00
I646   I     0.32007   0.23296   0.81054   0.00000  Uiso   1.00
N647   N     0.31678   0.15265   0.73783   0.00000  Uiso   1.00
N648   N     0.01656   0.18068   0.76217   0.00000  Uiso   1.00
O649   O     0.12975   0.24619   0.75298   0.00000  Uiso   1.00
O650   O     0.12940   0.03627   0.53393   0.00000  Uiso   1.00
O651   O     0.20358   0.08714   0.74701   0.00000  Uiso   1.00
O652   O     0.22613   0.23721   0.74518   0.00000  Uiso   1.00
O653   O     0.10720   0.09613   0.75481   0.00000  Uiso   1.00
O654   O     0.11847   0.17117   0.81997   0.00000  Uiso   1.00
O655   O     0.21486   0.16216   0.68002   0.00000  Uiso   1.00
O656   O     0.21485   0.16219   0.81217   0.00000  Uiso   1.00
O657   O     0.11848   0.17115   0.68782   0.00000  Uiso   1.00
O658   O     0.10480   0.28666   0.97063   0.00000  Uiso   1.00
Zn659  Zn    0.10231   0.17266   0.75521   0.00000  Uiso   1.00
Zn660  Zn    0.23102   0.16067   0.74479   0.00000  Uiso   1.00
C661   C     0.51490   0.26472   0.74862   0.00000  Uiso   1.00
C662   C     0.49254   0.21430   0.90806   0.00000  Uiso   1.00
C663   C     0.49735   0.16519   0.61631   0.00000  Uiso   1.00
C664   C     0.50345   0.16942   0.88370   0.00000  Uiso   1.00
C665   C     0.49312   0.21071   0.59548   0.00000  Uiso   1.00
C666   C     0.51476   0.12510   0.90421   0.00000  Uiso   1.00
C667   C     0.49539   0.21163   0.54901   0.00000  Uiso   1.00
C668   C     0.51298   0.12367   0.95072   0.00000  Uiso   1.00
C669   C     0.50177   0.16670   0.52340   0.00000  Uiso   1.00
C670   C     0.50379   0.16832   0.97633   0.00000  Uiso   1.00
C671   C     0.50305   0.12000   0.54480   0.00000  Uiso   1.00
C672   C     0.48511   0.06862   0.75155   0.00000  Uiso   1.00
C673   C     0.49423   0.21410   0.95524   0.00000  Uiso   1.00
C674   C     0.49541   0.25737   0.52776   0.00000  Uiso   1.00
C675   C     0.51613   0.07784   0.97211   0.00000  Uiso   1.00
C676   C     0.38347   0.26440   0.98383   0.00000  Uiso   1.00
C677   C     0.36536   0.21879   0.95370   0.00000  Uiso   1.00
C678   C     0.63580   0.20462   0.96171   0.00000  Uiso   1.00
C679   C     0.40505   0.04514   0.52564   0.00000  Uiso   1.00
C680   C     0.37979   0.09254   0.54974   0.00000  Uiso   1.00
C681   C     0.64855   0.09199   0.54950   0.00000  Uiso   1.00
C682   C     0.48052   0.25637   0.98281   0.00000  Uiso   1.00
C683   C     0.49882   0.07558   0.51817   0.00000  Uiso   1.00
C684   C     0.52271   0.31891   0.74805   0.00000  Uiso   1.00
C685   C     0.47732   0.01444   0.75228   0.00000  Uiso   1.00
C686   C     0.50092   0.16724   0.83619   0.00000  Uiso   1.00
C687   C     0.49924   0.16667   0.66382   0.00000  Uiso   1.00
C688   C     0.50120   0.11924   0.59212   0.00000  Uiso   1.00
H689   H     0.48909   0.24559   0.61554   0.00000  Uiso   1.00
H690   H     0.62501   0.17084   0.94033   0.00000  Uiso   1.00
H691   H     0.61025   0.23639   0.95237   0.00000  Uiso   1.00
H692   H     0.37910   0.01225   0.53901   0.00000  Uiso   1.00
H693   H     0.39980   0.04646   0.98879   0.00000  Uiso   1.00
H694   H     0.39113   0.09481   0.58531   0.00000  Uiso   1.00
H695   H     0.39601   0.12722   0.53217   0.00000  Uiso   1.00
H696   H     0.63490   0.08552   0.51475   0.00000  Uiso   1.00
H697   H     0.63318   0.12907   0.56263   0.00000  Uiso   1.00
H698   H     0.62931   0.06214   0.57185   0.00000  Uiso   1.00
H699   H     0.52027   0.09100   0.88349   0.00000  Uiso   1.00
H700   H     0.56597   0.00173   0.74418   0.00000  Uiso   1.00
H701   H     0.43406   0.33162   0.75616   0.00000  Uiso   1.00
H702   H     0.35218   0.29387   0.98047   0.00000  Uiso   1.00
H703   H     0.38025   0.25369   0.51989   0.00000  Uiso   1.00
H704   H     0.37370   0.22791   0.91767   0.00000  Uiso   1.00
H705   H     0.38872   0.18493   0.96113   0.00000  Uiso   1.00
H706   H     0.62548   0.19546   0.99760   0.00000  Uiso   1.00
I707   I     0.50294   0.05108   0.62928   0.00000  Uiso   1.00
I708   I     0.47505   0.28006   0.87104   0.00000  Uiso   1.00
I709   I     0.57038   0.29902   0.54499   0.00000  Uiso   1.00
I710   I     0.56875   0.02278   0.93955   0.00000  Uiso   1.00
I711   I     0.34616   0.09990   0.68985   0.00000  Uiso   1.00
I712   I     0.65341   0.23296   0.81054   0.00000  Uiso   1.00
N713   N     0.65011   0.15265   0.73783   0.00000  Uiso   1.00
N714   N     0.34989   0.18068   0.76217   0.00000  Uiso   1.00
O715   O     0.46308   0.24619   0.75298   0.00000  Uiso   1.00
O716   O     0.46273   0.03627   0.53393   0.00000  Uiso   1.00
O717   O     0.53692   0.08714   0.74701   0.00000  Uiso   1.00
O718   O     0.55946   0.23721   0.74518   0.00000  Uiso   1.00
O719   O     0.44054   0.09613   0.75481   0.00000  Uiso   1.00
O720   O     0.45181   0.17117   0.81997   0.00000  Uiso   1.00
O721   O     0.54819   0.16216   0.68002   0.00000  Uiso   1.00
O722   O     0.54819   0.16219   0.81217   0.00000  Uiso   1.00
O723   O     0.45181   0.17115   0.68782   0.00000  Uiso   1.00
O724   O     0.43813   0.28666   0.97063   0.00000  Uiso   1.00
Zn725  Zn    0.43565   0.17266   0.75521   0.00000  Uiso   1.00
Zn726  Zn    0.56435   0.16067   0.74479   0.00000  Uiso   1.00
C727   C     0.84824   0.26472   0.74862   0.00000  Uiso   1.00
C728   C     0.82587   0.21430   0.90806   0.00000  Uiso   1.00
C729   C     0.83068   0.16519   0.61631   0.00000  Uiso   1.00
C730   C     0.83678   0.16942   0.88370   0.00000  Uiso   1.00
C731   C     0.82645   0.21071   0.59548   0.00000  Uiso   1.00
C732   C     0.84809   0.12510   0.90421   0.00000  Uiso   1.00
C733   C     0.82873   0.21163   0.54901   0.00000  Uiso   1.00
C734   C     0.84631   0.12367   0.95072   0.00000  Uiso   1.00
C735   C     0.83510   0.16670   0.52340   0.00000  Uiso   1.00
C736   C     0.83712   0.16832   0.97633   0.00000  Uiso   1.00
C737   C     0.83639   0.12000   0.54480   0.00000  Uiso   1.00
C738   C     0.81844   0.06862   0.75155   0.00000  Uiso   1.00
C739   C     0.82757   0.21410   0.95524   0.00000  Uiso   1.00
C740   C     0.82875   0.25737   0.52776   0.00000  Uiso   1.00
C741   C     0.84946   0.07784   0.97211   0.00000  Uiso   1.00
C742   C     0.71680   0.26440   0.98383   0.00000  Uiso   1.00
C743   C     0.69870   0.21879   0.95370   0.00000  Uiso   1.00
C744   C     0.96914   0.20462   0.96171   0.00000  Uiso   1.00
C745   C     0.73838   0.04514   0.52564   0.00000  Uiso   1.00
C746   C     0.71312   0.09254   0.54974   0.00000  Uiso   1.00
C747   C     0.98188   0.09199   0.54950   0.00000  Uiso   1.00
C748   C     0.81385   0.25637   0.98281   0.00000  Uiso   1.00
C749   C     0.83215   0.07558   0.51817   0.00000  Uiso   1.00
C750   C     0.85604   0.31891   0.74805   0.00000  Uiso   1.00
C751   C     0.81065   0.01444   0.75228   0.00000  Uiso   1.00
C752   C     0.83425   0.16724   0.83619   0.00000  Uiso   1.00
C753   C     0.83257   0.16667   0.66382   0.00000  Uiso   1.00
C754   C     0.83453   0.11924   0.59212   0.00000  Uiso   1.00
H755   H     0.82243   0.24559   0.61554   0.00000  Uiso   1.00
H756   H     0.95835   0.17084   0.94033   0.00000  Uiso   1.00
H757   H     0.94359   0.23639   0.95237   0.00000  Uiso   1.00
H758   H     0.71244   0.01225   0.53901   0.00000  Uiso   1.00
H759   H     0.73314   0.04646   0.98879   0.00000  Uiso   1.00
H760   H     0.72446   0.09481   0.58531   0.00000  Uiso   1.00
H761   H     0.72934   0.12722   0.53217   0.00000  Uiso   1.00
H762   H     0.96823   0.08552   0.51475   0.00000  Uiso   1.00
H763   H     0.96651   0.12907   0.56263   0.00000  Uiso   1.00
H764   H     0.96265   0.06214   0.57185   0.00000  Uiso   1.00
H765   H     0.85360   0.09100   0.88349   0.00000  Uiso   1.00
H766   H     0.89930   0.00173   0.74418   0.00000  Uiso   1.00
H767   H     0.76739   0.33162   0.75616   0.00000  Uiso   1.00
H768   H     0.68551   0.29387   0.98047   0.00000  Uiso   1.00
H769   H     0.71358   0.25369   0.51989   0.00000  Uiso   1.00
H770   H     0.70703   0.22791   0.91767   0.00000  Uiso   1.00
H771   H     0.72206   0.18493   0.96113   0.00000  Uiso   1.00
H772   H     0.95882   0.19546   0.99760   0.00000  Uiso   1.00
I773   I     0.83628   0.05108   0.62928   0.00000  Uiso   1.00
I774   I     0.80839   0.28006   0.87104   0.00000  Uiso   1.00
I775   I     0.90371   0.29902   0.54499   0.00000  Uiso   1.00
I776   I     0.90209   0.02278   0.93955   0.00000  Uiso   1.00
I777   I     0.67949   0.09990   0.68985   0.00000  Uiso   1.00
I778   I     0.98674   0.23296   0.81054   0.00000  Uiso   1.00
N779   N     0.98344   0.15265   0.73783   0.00000  Uiso   1.00
N780   N     0.68322   0.18068   0.76217   0.00000  Uiso   1.00
O781   O     0.79642   0.24619   0.75298   0.00000  Uiso   1.00
O782   O     0.79607   0.03627   0.53393   0.00000  Uiso   1.00
O783   O     0.87025   0.08714   0.74701   0.00000  Uiso   1.00
O784   O     0.89280   0.23721   0.74518   0.00000  Uiso   1.00
O785   O     0.77387   0.09613   0.75481   0.00000  Uiso   1.00
O786   O     0.78514   0.17117   0.81997   0.00000  Uiso   1.00
O787   O     0.88153   0.16216   0.68002   0.00000  Uiso   1.00
O788   O     0.88152   0.16219   0.81217   0.00000  Uiso   1.00
O789   O     0.78515   0.17115   0.68782   0.00000  Uiso   1.00
O790   O     0.77147   0.28666   0.97063   0.00000  Uiso   1.00
Zn791  Zn    0.76898   0.17266   0.75521   0.00000  Uiso   1.00
Zn792  Zn    0.89769   0.16067   0.74479   0.00000  Uiso   1.00
C793   C     0.18157   0.59806   0.74862   0.00000  Uiso   1.00
C794   C     0.15921   0.54763   0.90806   0.00000  Uiso   1.00
C795   C     0.16401   0.49853   0.61631   0.00000  Uiso   1.00
C796   C     0.17012   0.50275   0.88370   0.00000  Uiso   1.00
C797   C     0.15978   0.54404   0.59548   0.00000  Uiso   1.00
C798   C     0.18143   0.45843   0.90421   0.00000  Uiso   1.00
C799   C     0.16206   0.54496   0.54901   0.00000  Uiso   1.00
C800   C     0.17965   0.45701   0.95072   0.00000  Uiso   1.00
C801   C     0.16843   0.50003   0.52340   0.00000  Uiso   1.00
C802   C     0.17046   0.50166   0.97633   0.00000  Uiso   1.00
C803   C     0.16972   0.45333   0.54480   0.00000  Uiso   1.00
C804   C     0.15178   0.40195   0.75155   0.00000  Uiso   1.00
C805   C     0.16090   0.54743   0.95524   0.00000  Uiso   1.00
C806   C     0.16208   0.59070   0.52776   0.00000  Uiso   1.00
C807   C     0.18279   0.41118   0.97211   0.00000  Uiso   1.00
C808   C     0.05014   0.59773   0.98383   0.00000  Uiso   1.00
C809   C     0.03203   0.55213   0.95370   0.00000  Uiso   1.00
C810   C     0.30247   0.53796   0.96171   0.00000  Uiso   1.00
C811   C     0.07172   0.37848   0.52564   0.00000  Uiso   1.00
C812   C     0.04646   0.42588   0.54974   0.00000  Uiso   1.00
C813   C     0.31521   0.42533   0.54950   0.00000  Uiso   1.00
C814   C     0.14718   0.58970   0.98281   0.00000  Uiso   1.00
C815   C     0.16548   0.40892   0.51817   0.00000  Uiso   1.00
C816   C     0.18938   0.65224   0.74805   0.00000  Uiso   1.00
C817   C     0.14398   0.34777   0.75228   0.00000  Uiso   1.00
C818   C     0.16758   0.50057   0.83619   0.00000  Uiso   1.00
C819   C     0.16590   0.50000   0.66382   0.00000  Uiso   1.00
C820   C     0.16786   0.45257   0.59212   0.00000  Uiso   1.00
H821   H     0.15576   0.57892   0.61554   0.00000  Uiso   1.00
H822   H     0.29168   0.50418   0.94033   0.00000  Uiso   1.00
H823   H     0.27692   0.56972   0.95237   0.00000  Uiso   1.00
H824   H     0.04577   0.34559   0.53901   0.00000  Uiso   1.00
H825   H     0.06647   0.37979   0.98879   0.00000  Uiso   1.00
H826   H     0.05779   0.42814   0.58531   0.00000  Uiso   1.00
H827   H     0.06267   0.46056   0.53217   0.00000  Uiso   1.00
H828   H     0.30157   0.41886   0.51475   0.00000  Uiso   1.00
H829   H     0.29985   0.46240   0.56263   0.00000  Uiso   1.00
H830   H     0.29598   0.39547   0.57185   0.00000  Uiso   1.00
H831   H     0.18693   0.42434   0.88349   0.00000  Uiso   1.00
H832   H     0.23263   0.33507   0.74418   0.00000  Uiso   1.00
H833   H     0.10073   0.66495   0.75616   0.00000  Uiso   1.00
H834   H     0.01884   0.62721   0.98047   0.00000  Uiso   1.00
H835   H     0.04691   0.58702   0.51989   0.00000  Uiso   1.00
H836   H     0.04037   0.56124   0.91767   0.00000  Uiso   1.00
H837   H     0.05539   0.51827   0.96113   0.00000  Uiso   1.00
H838   H     0.29215   0.52879   0.99760   0.00000  Uiso   1.00
I839   I     0.16961   0.38442   0.62928   0.00000  Uiso   1.00
I840   I     0.14172   0.61339   0.87104   0.00000  Uiso   1.00
I841   I     0.23704   0.63236   0.54499   0.00000  Uiso   1.00
I842   I     0.23542   0.35612   0.93955   0.00000  Uiso   1.00
I843   I     0.01283   0.43324   0.68985   0.00000  Uiso   1.00
I844   I     0.32007   0.56629   0.81054   0.00000  Uiso   1.00
N845   N     0.31678   0.48598   0.73783   0.00000  Uiso   1.00
N846   N     0.01656   0.51402   0.76217   0.00000  Uiso   1.00
O847   O     0.12975   0.57952   0.75298   0.00000  Uiso   1.00
O848   O     0.12940   0.36961   0.53393   0.00000  Uiso   1.00
O849   O     0.20358   0.42048   0.74701   0.00000  Uiso   1.00
O850   O     0.22613   0.57054   0.74518   0.00000  Uiso   1.00
O851   O     0.10720   0.42946   0.75481   0.00000  Uiso   1.00
O852   O     0.11847   0.50450   0.81997   0.00000  Uiso   1.00
O853   O     0.21486   0.49550   0.68002   0.00000  Uiso   1.00
O854   O     0.21485   0.49552   0.81217   0.00000  Uiso   1.00
O855   O     0.11848   0.50448   0.68782   0.00000  Uiso   1.00
O856   O     0.10480   0.61999   0.97063   0.00000  Uiso   1.00
Zn857  Zn    0.10231   0.50600   0.75521   0.00000  Uiso   1.00
Zn858  Zn    0.23102   0.49400   0.74479   0.00000  Uiso   1.00
C859   C     0.51490   0.59806   0.74862   0.00000  Uiso   1.00
C860   C     0.49254   0.54763   0.90806   0.00000  Uiso   1.00
C861   C     0.49735   0.49853   0.61631   0.00000  Uiso   1.00
C862   C     0.50345   0.50275   0.88370   0.00000  Uiso   1.00
C863   C     0.49312   0.54404   0.59548   0.00000  Uiso   1.00
C864   C     0.51476   0.45843   0.90421   0.00000  Uiso   1.00
C865   C     0.49539   0.54496   0.54901   0.00000  Uiso   1.00
C866   C     0.51298   0.45701   0.95072   0.00000  Uiso   1.00
C867   C     0.50177   0.50003   0.52340   0.00000  Uiso   1.00
C868   C     0.50379   0.50166   0.97633   0.00000  Uiso   1.00
C869   C     0.50305   0.45333   0.54480   0.00000  Uiso   1.00
C870   C     0.48511   0.40195   0.75155   0.00000  Uiso   1.00
C871   C     0.49423   0.54743   0.95524   0.00000  Uiso   1.00
C872   C     0.49541   0.59070   0.52776   0.00000  Uiso   1.00
C873   C     0.51613   0.41118   0.97211   0.00000  Uiso   1.00
C874   C     0.38347   0.59773   0.98383   0.00000  Uiso   1.00
C875   C     0.36536   0.55213   0.95370   0.00000  Uiso   1.00
C876   C     0.63580   0.53796   0.96171   0.00000  Uiso   1.00
C877   C     0.40505   0.37848   0.52564   0.00000  Uiso   1.00
C878   C     0.37979   0.42588   0.54974   0.00000  Uiso   1.00
C879   C     0.64855   0.42533   0.54950   0.00000  Uiso   1.00
C880   C     0.48052   0.58970   0.98281   0.00000  Uiso   1.00
C881   C     0.49882   0.40892   0.51817   0.00000  Uiso   1.00
C882   C     0.52271   0.65224   0.74805   0.00000  Uiso   1.00
C883   C     0.47732   0.34777   0.75228   0.00000  Uiso   1.00
C884   C     0.50092   0.50057   0.83619   0.00000  Uiso   1.00
C885   C     0.49924   0.50000   0.66382   0.00000  Uiso   1.00
C886   C     0.50120   0.45257   0.59212   0.00000  Uiso   1.00
H887   H     0.48909   0.57892   0.61554   0.00000  Uiso   1.00
H888   H     0.62501   0.50418   0.94033   0.00000  Uiso   1.00
H889   H     0.61025   0.56972   0.95237   0.00000  Uiso   1.00
H890   H     0.37910   0.34559   0.53901   0.00000  Uiso   1.00
H891   H     0.39980   0.37979   0.98879   0.00000  Uiso   1.00
H892   H     0.39113   0.42814   0.58531   0.00000  Uiso   1.00
H893   H     0.39601   0.46056   0.53217   0.00000  Uiso   1.00
H894   H     0.63490   0.41886   0.51475   0.00000  Uiso   1.00
H895   H     0.63318   0.46240   0.56263   0.00000  Uiso   1.00
H896   H     0.62931   0.39547   0.57185   0.00000  Uiso   1.00
H897   H     0.52027   0.42434   0.88349   0.00000  Uiso   1.00
H898   H     0.56597   0.33507   0.74418   0.00000  Uiso   1.00
H899   H     0.43406   0.66495   0.75616   0.00000  Uiso   1.00
H900   H     0.35218   0.62721   0.98047   0.00000  Uiso   1.00
H901   H     0.38025   0.58702   0.51989   0.00000  Uiso   1.00
H902   H     0.37370   0.56124   0.91767   0.00000  Uiso   1.00
H903   H     0.38872   0.51827   0.96113   0.00000  Uiso   1.00
H904   H     0.62548   0.52879   0.99760   0.00000  Uiso   1.00
I905   I     0.50294   0.38442   0.62928   0.00000  Uiso   1.00
I906   I     0.47505   0.61339   0.87104   0.00000  Uiso   1.00
I907   I     0.57038   0.63236   0.54499   0.00000  Uiso   1.00
I908   I     0.56875   0.35612   0.93955   0.00000  Uiso   1.00
I909   I     0.34616   0.43324   0.68985   0.00000  Uiso   1.00
I910   I     0.65341   0.56629   0.81054   0.00000  Uiso   1.00
N911   N     0.65011   0.48598   0.73783   0.00000  Uiso   1.00
N912   N     0.34989   0.51402   0.76217   0.00000  Uiso   1.00
O913   O     0.46308   0.57952   0.75298   0.00000  Uiso   1.00
O914   O     0.46273   0.36961   0.53393   0.00000  Uiso   1.00
O915   O     0.53692   0.42048   0.74701   0.00000  Uiso   1.00
O916   O     0.55946   0.57054   0.74518   0.00000  Uiso   1.00
O917   O     0.44054   0.42946   0.75481   0.00000  Uiso   1.00
O918   O     0.45181   0.50450   0.81997   0.00000  Uiso   1.00
O919   O     0.54819   0.49550   0.68002   0.00000  Uiso   1.00
O920   O     0.54819   0.49552   0.81217   0.00000  Uiso   1.00
O921   O     0.45181   0.50448   0.68782   0.00000  Uiso   1.00
O922   O     0.43813   0.61999   0.97063   0.00000  Uiso   1.00
Zn923  Zn    0.43565   0.50600   0.75521   0.00000  Uiso   1.00
Zn924  Zn    0.56435   0.49400   0.74479   0.00000  Uiso   1.00
C925   C     0.84824   0.59806   0.74862   0.00000  Uiso   1.00
C926   C     0.82587   0.54763   0.90806   0.00000  Uiso   1.00
C927   C     0.83068   0.49853   0.61631   0.00000  Uiso   1.00
C928   C     0.83678   0.50275   0.88370   0.00000  Uiso   1.00
C929   C     0.82645   0.54404   0.59548   0.00000  Uiso   1.00
C930   C     0.84809   0.45843   0.90421   0.00000  Uiso   1.00
C931   C     0.82873   0.54496   0.54901   0.00000  Uiso   1.00
C932   C     0.84631   0.45701   0.95072   0.00000  Uiso   1.00
C933   C     0.83510   0.50003   0.52340   0.00000  Uiso   1.00
C934   C     0.83712   0.50166   0.97633   0.00000  Uiso   1.00
C935   C     0.83639   0.45333   0.54480   0.00000  Uiso   1.00
C936   C     0.81844   0.40195   0.75155   0.00000  Uiso   1.00
C937   C     0.82757   0.54743   0.95524   0.00000  Uiso   1.00
C938   C     0.82875   0.59070   0.52776   0.00000  Uiso   1.00
C939   C     0.84946   0.41118   0.97211   0.00000  Uiso   1.00
C940   C     0.71680   0.59773   0.98383   0.00000  Uiso   1.00
C941   C     0.69870   0.55213   0.95370   0.00000  Uiso   1.00
C942   C     0.96914   0.53796   0.96171   0.00000  Uiso   1.00
C943   C     0.73838   0.37848   0.52564   0.00000  Uiso   1.00
C944   C     0.71312   0.42588   0.54974   0.00000  Uiso   1.00
C945   C     0.98188   0.42533   0.54950   0.00000  Uiso   1.00
C946   C     0.81385   0.58970   0.98281   0.00000  Uiso   1.00
C947   C     0.83215   0.40892   0.51817   0.00000  Uiso   1.00
C948   C     0.85604   0.65224   0.74805   0.00000  Uiso   1.00
C949   C     0.81065   0.34777   0.75228   0.00000  Uiso   1.00
C950   C     0.83425   0.50057   0.83619   0.00000  Uiso   1.00
C951   C     0.83257   0.50000   0.66382   0.00000  Uiso   1.00
C952   C     0.83453   0.45257   0.59212   0.00000  Uiso   1.00
H953   H     0.82243   0.57892   0.61554   0.00000  Uiso   1.00
H954   H     0.95835   0.50418   0.94033   0.00000  Uiso   1.00
H955   H     0.94359   0.56972   0.95237   0.00000  Uiso   1.00
H956   H     0.71244   0.34559   0.53901   0.00000  Uiso   1.00
H957   H     0.73314   0.37979   0.98879   0.00000  Uiso   1.00
H958   H     0.72446   0.42814   0.58531   0.00000  Uiso   1.00
H959   H     0.72934   0.46056   0.53217   0.00000  Uiso   1.00
H960   H     0.96823   0.41886   0.51475   0.00000  Uiso   1.00
H961   H     0.96651   0.46240   0.56263   0.00000  Uiso   1.00
H962   H     0.96265   0.39547   0.57185   0.00000  Uiso   1.00
H963   H     0.85360   0.42434   0.88349   0.00000  Uiso   1.00
H964   H     0.89930   0.33507   0.74418   0.00000  Uiso   1.00
H965   H     0.76739   0.66495   0.75616   0.00000  Uiso   1.00
H966   H     0.68551   0.62721   0.98047   0.00000  Uiso   1.00
H967   H     0.71358   0.58702   0.51989   0.00000  Uiso   1.00
H968   H     0.70703   0.56124   0.91767   0.00000  Uiso   1.00
H969   H     0.72206   0.51827   0.96113   0.00000  Uiso   1.00
H970   H     0.95882   0.52879   0.99760   0.00000  Uiso   1.00
I971   I     0.83628   0.38442   0.62928   0.00000  Uiso   1.00
I972   I     0.80839   0.61339   0.87104   0.00000  Uiso   1.00
I973   I     0.90371   0.63236   0.54499   0.00000  Uiso   1.00
I974   I     0.90209   0.35612   0.93955   0.00000  Uiso   1.00
I975   I     0.67949   0.43324   0.68985   0.00000  Uiso   1.00
I976   I     0.98674   0.56629   0.81054   0.00000  Uiso   1.00
N977   N     0.98344   0.48598   0.73783   0.00000  Uiso   1.00
N978   N     0.68322   0.51402   0.76217   0.00000  Uiso   1.00
O979   O     0.79642   0.57952   0.75298   0.00000  Uiso   1.00
O980   O     0.79607   0.36961   0.53393   0.00000  Uiso   1.00
O981   O     0.87025   0.42048   0.74701   0.00000  Uiso   1.00
O982   O     0.89280   0.57054   0.74518   0.00000  Uiso   1.00
O983   O     0.77387   0.42946   0.75481   0.00000  Uiso   1.00
O984   O     0.78514   0.50450   0.81997   0.00000  Uiso   1.00
O985   O     0.88153   0.49550   0.68002   0.00000  Uiso   1.00
O986   O     0.88152   0.49552   0.81217   0.00000  Uiso   1.00
O987   O     0.78515   0.50448   0.68782   0.00000  Uiso   1.00
O988   O     0.77147   0.61999   0.97063   0.00000  Uiso   1.00
Zn989  Zn    0.76898   0.50600   0.75521   0.00000  Uiso   1.00
Zn990  Zn    0.89769   0.49400   0.74479   0.00000  Uiso   1.00
C991   C     0.18157   0.93139   0.74862   0.00000  Uiso   1.00
C992   C     0.15921   0.88096   0.90806   0.00000  Uiso   1.00
C993   C     0.16401   0.83186   0.61631   0.00000  Uiso   1.00
C994   C     0.17012   0.83608   0.88370   0.00000  Uiso   1.00
C995   C     0.15978   0.87737   0.59548   0.00000  Uiso   1.00
C996   C     0.18143   0.79177   0.90421   0.00000  Uiso   1.00
C997   C     0.16206   0.87829   0.54901   0.00000  Uiso   1.00
C998   C     0.17965   0.79034   0.95072   0.00000  Uiso   1.00
C999   C     0.16843   0.83337   0.52340   0.00000  Uiso   1.00
C1000  C     0.17046   0.83499   0.97633   0.00000  Uiso   1.00
C1001  C     0.16972   0.78666   0.54480   0.00000  Uiso   1.00
C1002  C     0.15178   0.73528   0.75155   0.00000  Uiso   1.00
C1003  C     0.16090   0.88076   0.95524   0.00000  Uiso   1.00
C1004  C     0.16208   0.92403   0.52776   0.00000  Uiso   1.00
C1005  C     0.18279   0.74451   0.97211   0.00000  Uiso   1.00
C1006  C     0.05014   0.93106   0.98383   0.00000  Uiso   1.00
C1007  C     0.03203   0.88546   0.95370   0.00000  Uiso   1.00
C1008  C     0.30247   0.87129   0.96171   0.00000  Uiso   1.00
C1009  C     0.07172   0.71181   0.52564   0.00000  Uiso   1.00
C1010  C     0.04646   0.75921   0.54974   0.00000  Uiso   1.00
C1011  C     0.31521   0.75866   0.54950   0.00000  Uiso   1.00
C1012  C     0.14718   0.92303   0.98281   0.00000  Uiso   1.00
C1013  C     0.16548   0.74225   0.51817   0.00000  Uiso   1.00
C1014  C     0.18938   0.98558   0.74805   0.00000  Uiso   1.00
C1015  C     0.14398   0.68110   0.75228   0.00000  Uiso   1.00
C1016  C     0.16758   0.83390   0.83619   0.00000  Uiso   1.00
C1017  C     0.16590   0.83334   0.66382   0.00000  Uiso   1.00
C1018  C     0.16786   0.78591   0.59212   0.00000  Uiso   1.00
H1019  H     0.15576   0.91225   0.61554   0.00000  Uiso   1.00
H1020  H     0.29168   0.83751   0.94033   0.00000  Uiso   1.00
H1021  H     0.27692   0.90306   0.95237   0.00000  Uiso   1.00
H1022  H     0.04577   0.67892   0.53901   0.00000  Uiso   1.00
H1023  H     0.06647   0.71312   0.98879   0.00000  Uiso   1.00
H1024  H     0.05779   0.76148   0.58531   0.00000  Uiso   1.00
H1025  H     0.06267   0.79389   0.53217   0.00000  Uiso   1.00
H1026  H     0.30157   0.75219   0.51475   0.00000  Uiso   1.00
H1027  H     0.29985   0.79573   0.56263   0.00000  Uiso   1.00
H1028  H     0.29598   0.72880   0.57185   0.00000  Uiso   1.00
H1029  H     0.18693   0.75767   0.88349   0.00000  Uiso   1.00
H1030  H     0.23263   0.66840   0.74418   0.00000  Uiso   1.00
H1031  H     0.10073   0.99828   0.75616   0.00000  Uiso   1.00
H1032  H     0.01884   0.96054   0.98047   0.00000  Uiso   1.00
H1033  H     0.04691   0.92035   0.51989   0.00000  Uiso   1.00
H1034  H     0.04037   0.89458   0.91767   0.00000  Uiso   1.00
H1035  H     0.05539   0.85160   0.96113   0.00000  Uiso   1.00
H1036  H     0.29215   0.86212   0.99760   0.00000  Uiso   1.00
I1037  I     0.16961   0.71775   0.62928   0.00000  Uiso   1.00
I1038  I     0.14172   0.94672   0.87104   0.00000  Uiso   1.00
I1039  I     0.23704   0.96569   0.54499   0.00000  Uiso   1.00
I1040  I     0.23542   0.68945   0.93955   0.00000  Uiso   1.00
I1041  I     0.01283   0.76657   0.68985   0.00000  Uiso   1.00
I1042  I     0.32007   0.89963   0.81054   0.00000  Uiso   1.00
N1043  N     0.31678   0.81932   0.73783   0.00000  Uiso   1.00
N1044  N     0.01656   0.84735   0.76217   0.00000  Uiso   1.00
O1045  O     0.12975   0.91286   0.75298   0.00000  Uiso   1.00
O1046  O     0.12940   0.70294   0.53393   0.00000  Uiso   1.00
O1047  O     0.20358   0.75381   0.74701   0.00000  Uiso   1.00
O1048  O     0.22613   0.90387   0.74518   0.00000  Uiso   1.00
O1049  O     0.10720   0.76279   0.75481   0.00000  Uiso   1.00
O1050  O     0.11847   0.83784   0.81997   0.00000  Uiso   1.00
O1051  O     0.21486   0.82883   0.68002   0.00000  Uiso   1.00
O1052  O     0.21485   0.82885   0.81217   0.00000  Uiso   1.00
O1053  O     0.11848   0.83781   0.68782   0.00000  Uiso   1.00
O1054  O     0.10480   0.95332   0.97063   0.00000  Uiso   1.00
Zn1055 Zn    0.10231   0.83933   0.75521   0.00000  Uiso   1.00
Zn1056 Zn    0.23102   0.82734   0.74479   0.00000  Uiso   1.00
C1057  C     0.51490   0.93139   0.74862   0.00000  Uiso   1.00
C1058  C     0.49254   0.88096   0.90806   0.00000  Uiso   1.00
C1059  C     0.49735   0.83186   0.61631   0.00000  Uiso   1.00
C1060  C     0.50345   0.83608   0.88370   0.00000  Uiso   1.00
C1061  C     0.49312   0.87737   0.59548   0.00000  Uiso   1.00
C1062  C     0.51476   0.79177   0.90421   0.00000  Uiso   1.00
C1063  C     0.49539   0.87829   0.54901   0.00000  Uiso   1.00
C1064  C     0.51298   0.79034   0.95072   0.00000  Uiso   1.00
C1065  C     0.50177   0.83337   0.52340   0.00000  Uiso   1.00
C1066  C     0.50379   0.83499   0.97633   0.00000  Uiso   1.00
C1067  C     0.50305   0.78666   0.54480   0.00000  Uiso   1.00
C1068  C     0.48511   0.73528   0.75155   0.00000  Uiso   1.00
C1069  C     0.49423   0.88076   0.95524   0.00000  Uiso   1.00
C1070  C     0.49541   0.92403   0.52776   0.00000  Uiso   1.00
C1071  C     0.51613   0.74451   0.97211   0.00000  Uiso   1.00
C1072  C     0.38347   0.93106   0.98383   0.00000  Uiso   1.00
C1073  C     0.36536   0.88546   0.95370   0.00000  Uiso   1.00
C1074  C     0.63580   0.87129   0.96171   0.00000  Uiso   1.00
C1075  C     0.40505   0.71181   0.52564   0.00000  Uiso   1.00
C1076  C     0.37979   0.75921   0.54974   0.00000  Uiso   1.00
C1077  C     0.64855   0.75866   0.54950   0.00000  Uiso   1.00
C1078  C     0.48052   0.92303   0.98281   0.00000  Uiso   1.00
C1079  C     0.49882   0.74225   0.51817   0.00000  Uiso   1.00
C1080  C     0.52271   0.98558   0.74805   0.00000  Uiso   1.00
C1081  C     0.47732   0.68110   0.75228   0.00000  Uiso   1.00
C1082  C     0.50092   0.83390   0.83619   0.00000  Uiso   1.00
C1083  C     0.49924   0.83334   0.66382   0.00000  Uiso   1.00
C1084  C     0.50120   0.78591   0.59212   0.00000  Uiso   1.00
H1085  H     0.48909   0.91225   0.61554   0.00000  Uiso   1.00
H1086  H     0.62501   0.83751   0.94033   0.00000  Uiso   1.00
H1087  H     0.61025   0.90306   0.95237   0.00000  Uiso   1.00
H1088  H     0.37910   0.67892   0.53901   0.00000  Uiso   1.00
H1089  H     0.39980   0.71312   0.98879   0.00000  Uiso   1.00
H1090  H     0.39113   0.76148   0.58531   0.00000  Uiso   1.00
H1091  H     0.39601   0.79389   0.53217   0.00000  Uiso   1.00
H1092  H     0.63490   0.75219   0.51475   0.00000  Uiso   1.00
H1093  H     0.63318   0.79573   0.56263   0.00000  Uiso   1.00
H1094  H     0.62931   0.72880   0.57185   0.00000  Uiso   1.00
H1095  H     0.52027   0.75767   0.88349   0.00000  Uiso   1.00
H1096  H     0.56597   0.66840   0.74418   0.00000  Uiso   1.00
H1097  H     0.43406   0.99828   0.75616   0.00000  Uiso   1.00
H1098  H     0.35218   0.96054   0.98047   0.00000  Uiso   1.00
H1099  H     0.38025   0.92035   0.51989   0.00000  Uiso   1.00
H1100  H     0.37370   0.89458   0.91767   0.00000  Uiso   1.00
H1101  H     0.38872   0.85160   0.96113   0.00000  Uiso   1.00
H1102  H     0.62548   0.86212   0.99760   0.00000  Uiso   1.00
I1103  I     0.50294   0.71775   0.62928   0.00000  Uiso   1.00
I1104  I     0.47505   0.94672   0.87104   0.00000  Uiso   1.00
I1105  I     0.57038   0.96569   0.54499   0.00000  Uiso   1.00
I1106  I     0.56875   0.68945   0.93955   0.00000  Uiso   1.00
I1107  I     0.34616   0.76657   0.68985   0.00000  Uiso   1.00
I1108  I     0.65341   0.89963   0.81054   0.00000  Uiso   1.00
N1109  N     0.65011   0.81932   0.73783   0.00000  Uiso   1.00
N1110  N     0.34989   0.84735   0.76217   0.00000  Uiso   1.00
O1111  O     0.46308   0.91286   0.75298   0.00000  Uiso   1.00
O1112  O     0.46273   0.70294   0.53393   0.00000  Uiso   1.00
O1113  O     0.53692   0.75381   0.74701   0.00000  Uiso   1.00
O1114  O     0.55946   0.90387   0.74518   0.00000  Uiso   1.00
O1115  O     0.44054   0.76279   0.75481   0.00000  Uiso   1.00
O1116  O     0.45181   0.83784   0.81997   0.00000  Uiso   1.00
O1117  O     0.54819   0.82883   0.68002   0.00000  Uiso   1.00
O1118  O     0.54819   0.82885   0.81217   0.00000  Uiso   1.00
O1119  O     0.45181   0.83781   0.68782   0.00000  Uiso   1.00
O1120  O     0.43813   0.95332   0.97063   0.00000  Uiso   1.00
Zn1121 Zn    0.43565   0.83933   0.75521   0.00000  Uiso   1.00
Zn1122 Zn    0.56435   0.82734   0.74479   0.00000  Uiso   1.00
C1123  C     0.84824   0.93139   0.74862   0.00000  Uiso   1.00
C1124  C     0.82587   0.88096   0.90806   0.00000  Uiso   1.00
C1125  C     0.83068   0.83186   0.61631   0.00000  Uiso   1.00
C1126  C     0.83678   0.83608   0.88370   0.00000  Uiso   1.00
C1127  C     0.82645   0.87737   0.59548   0.00000  Uiso   1.00
C1128  C     0.84809   0.79177   0.90421   0.00000  Uiso   1.00
C1129  C     0.82873   0.87829   0.54901   0.00000  Uiso   1.00
C1130  C     0.84631   0.79034   0.95072   0.00000  Uiso   1.00
C1131  C     0.83510   0.83337   0.52340   0.00000  Uiso   1.00
C1132  C     0.83712   0.83499   0.97633   0.00000  Uiso   1.00
C1133  C     0.83639   0.78666   0.54480   0.00000  Uiso   1.00
C1134  C     0.81844   0.73528   0.75155   0.00000  Uiso   1.00
C1135  C     0.82757   0.88076   0.95524   0.00000  Uiso   1.00
C1136  C     0.82875   0.92403   0.52776   0.00000  Uiso   1.00
C1137  C     0.84946   0.74451   0.97211   0.00000  Uiso   1.00
C1138  C     0.71680   0.93106   0.98383   0.00000  Uiso   1.00
C1139  C     0.69870   0.88546   0.95370   0.00000  Uiso   1.00
C1140  C     0.96914   0.87129   0.96171   0.00000  Uiso   1.00
C1141  C     0.73838   0.71181   0.52564   0.00000  Uiso   1.00
C1142  C     0.71312   0.75921   0.54974   0.00000  Uiso   1.00
C1143  C     0.98188   0.75866   0.54950   0.00000  Uiso   1.00
C1144  C     0.81385   0.92303   0.98281   0.00000  Uiso   1.00
C1145  C     0.83215   0.74225   0.51817   0.00000  Uiso   1.00
C1146  C     0.85604   0.98558   0.74805   0.00000  Uiso   1.00
C1147  C     0.81065   0.68110   0.75228   0.00000  Uiso   1.00
C1148  C     0.83425   0.83390   0.83619   0.00000  Uiso   1.00
C1149  C     0.83257   0.83334   0.66382   0.00000  Uiso   1.00
C1150  C     0.83453   0.78591   0.59212   0.00000  Uiso   1.00
H1151  H     0.82243   0.91225   0.61554   0.00000  Uiso   1.00
H1152  H     0.95835   0.83751   0.94033   0.00000  Uiso   1.00
H1153  H     0.94359   0.90306   0.95237   0.00000  Uiso   1.00
H1154  H     0.71244   0.67892   0.53901   0.00000  Uiso   1.00
H1155  H     0.73314   0.71312   0.98879   0.00000  Uiso   1.00
H1156  H     0.72446   0.76148   0.58531   0.00000  Uiso   1.00
H1157  H     0.72934   0.79389   0.53217   0.00000  Uiso   1.00
H1158  H     0.96823   0.75219   0.51475   0.00000  Uiso   1.00
H1159  H     0.96651   0.79573   0.56263   0.00000  Uiso   1.00
H1160  H     0.96265   0.72880   0.57185   0.00000  Uiso   1.00
H1161  H     0.85360   0.75767   0.88349   0.00000  Uiso   1.00
H1162  H     0.89930   0.66840   0.74418   0.00000  Uiso   1.00
H1163  H     0.76739   0.99828   0.75616   0.00000  Uiso   1.00
H1164  H     0.68551   0.96054   0.98047   0.00000  Uiso   1.00
H1165  H     0.71358   0.92035   0.51989   0.00000  Uiso   1.00
H1166  H     0.70703   0.89458   0.91767   0.00000  Uiso   1.00
H1167  H     0.72206   0.85160   0.96113   0.00000  Uiso   1.00
H1168  H     0.95882   0.86212   0.99760   0.00000  Uiso   1.00
I1169  I     0.83628   0.71775   0.62928   0.00000  Uiso   1.00
I1170  I     0.80839   0.94672   0.87104   0.00000  Uiso   1.00
I1171  I     0.90371   0.96569   0.54499   0.00000  Uiso   1.00
I1172  I     0.90209   0.68945   0.93955   0.00000  Uiso   1.00
I1173  I     0.67949   0.76657   0.68985   0.00000  Uiso   1.00
I1174  I     0.98674   0.89963   0.81054   0.00000  Uiso   1.00
N1175  N     0.98344   0.81932   0.73783   0.00000  Uiso   1.00
N1176  N     0.68322   0.84735   0.76217   0.00000  Uiso   1.00
O1177  O     0.79642   0.91286   0.75298   0.00000  Uiso   1.00
O1178  O     0.79607   0.70294   0.53393   0.00000  Uiso   1.00
O1179  O     0.87025   0.75381   0.74701   0.00000  Uiso   1.00
O1180  O     0.89280   0.90387   0.74518   0.00000  Uiso   1.00
O1181  O     0.77387   0.76279   0.75481   0.00000  Uiso   1.00
O1182  O     0.78514   0.83784   0.81997   0.00000  Uiso   1.00
O1183  O     0.88153   0.82883   0.68002   0.00000  Uiso   1.00
O1184  O     0.88152   0.82885   0.81217   0.00000  Uiso   1.00
O1185  O     0.78515   0.83781   0.68782   0.00000  Uiso   1.00
O1186  O     0.77147   0.95332   0.97063   0.00000  Uiso   1.00
Zn1187 Zn    0.76898   0.83933   0.75521   0.00000  Uiso   1.00
Zn1188 Zn    0.89769   0.82734   0.74479   0.00000  Uiso   1.00
loop_
_geom_bond_atom_site_label_1
_geom_bond_atom_site_label_2
_geom_bond_distance
_geom_bond_site_symmetry_2
_ccdc_geom_bond_type
C1     O55     1.294   .     A
C1     O58     1.302   .     A
C1     C24     1.435   .     S
C2     C4      1.395   .     A
C2     C13     1.407   .     A
C2     I48     2.156   .     S
C3     C5      1.380   .     A
C3     C28     1.395   .     A
C3     C27     1.417   .     S
C4     C26     1.418   .     S
C4     C6      1.382   .     A
C5     C7      1.381   .     A
C5     H29     1.086   .     S
C6     H39     1.084   .     S
C6     C8      1.383   .     A
C7     C9      1.399   .     A
C7     C14     1.381   .     A
C8     C15     1.393   .     A
C8     C10     1.402   .     A
C9     C11     1.408   .     A
C9     C604    1.400   1_554 S
C10    C13     1.414   .     A
C10    C603    1.400   .     S
C11    C28     1.406   .     A
C11    C23     1.399   .     A
C12    C25     1.435   .     S
C12    O57     1.294   .     A
C12    O59     1.302   .     A
C13    C22     1.402   .     A
C14    I49     2.122   .     S
C14    C616    1.405   1_554 S
C15    I50     2.124   .     S
C15    C617    1.405   .     S
C16    O64     1.426   .     S
C16    H42     1.109   .     S
C16    C17     1.541   .     S
C16    H637    1.115   .     S
C17    H44     1.108   .     S
C17    H45     1.108   .     S
C17    C150    1.517   1_455 S
C18    H30     1.110   .     S
C18    H46     1.110   .     S
C18    H31     1.109   .     S
C18    C83     1.517   .     S
C19    O56     1.430   .     S
C19    C20     1.547   .     S
C19    H32     1.107   .     S
C19    H627    1.113   1_554 S
C20    H34     1.108   .     S
C20    H35     1.108   .     S
C20    C153    1.523   1_455 S
C21    H37     1.111   .     S
C21    H36     1.110   .     S
C21    H38     1.108   .     S
C21    C86     1.523   .     S
C22    O64     1.383   .     S
C22    C608    1.405   .     S
C23    O56     1.383   .     S
C23    C609    1.405   1_554 S
C24    C223    1.340   .     S
C24    H238    1.087   .     S
C25    C420    1.340   1_545 S
C25    H437    1.087   1_545 S
C26    O62     1.292   .     A
C26    O60     1.294   .     A
C27    O63     1.293   .     A
C27    O61     1.293   .     A
C28    I47     2.145   .     S
H33    C613    1.113   .     S
H40    C420    1.087   1_545 S
H41    C223    1.087   .     S
H43    C610    1.115   1_554 S
I51    N185    2.072   1_455 S
I52    N120    2.074   .     S
N53    Zn66    2.039   .     S
N53    I117    2.072   .     S
N53    N120    1.293   .     S
N54    Zn65    2.039   .     S
N54    N185    1.293   1_455 S
N54    I184    2.074   1_455 S
O55    Zn65    2.020   .     S
O57    Zn66    2.020   .     S
O58    Zn66    2.030   .     S
O59    Zn65    2.030   .     S
O60    Zn65    1.992   .     S
O61    Zn66    1.992   .     S
O62    Zn66    2.014   .     S
O63    Zn65    2.014   .     S
C67    O121    1.294   .     A
C67    O124    1.302   .     A
C67    C90     1.435   .     S
C68    C70     1.395   .     A
C68    C79     1.407   .     A
C68    I114    2.156   .     S
C69    C71     1.380   .     A
C69    C94     1.395   .     A
C69    C93     1.417   .     S
C70    C92     1.418   .     S
C70    C72     1.382   .     A
C71    C73     1.381   .     A
C71    H95     1.086   .     S
C72    H105    1.084   .     S
C72    C74     1.383   .     A
C73    C75     1.399   .     A
C73    C80     1.381   .     A
C74    C81     1.393   .     A
C74    C76     1.402   .     A
C75    C77     1.408   .     A
C75    C670    1.400   1_554 S
C76    C79     1.414   .     A
C76    C669    1.400   .     S
C77    C94     1.406   .     A
C77    C89     1.399   .     A
C78    C91     1.435   .     S
C78    O123    1.294   .     A
C78    O125    1.302   .     A
C79    C88     1.402   .     A
C80    I115    2.122   .     S
C80    C682    1.405   1_554 S
C81    I116    2.124   .     S
C81    C683    1.405   .     S
C82    O130    1.426   .     S
C82    H108    1.109   .     S
C82    C83     1.541   .     S
C82    H703    1.115   .     S
C83    H110    1.108   .     S
C83    H111    1.108   .     S
C84    H96     1.110   .     S
C84    H112    1.110   .     S
C84    H97     1.109   .     S
C84    C149    1.517   .     S
C85    O122    1.430   .     S
C85    C86     1.547   .     S
C85    H98     1.107   .     S
C85    H693    1.113   1_554 S
C86    H100    1.108   .     S
C86    H101    1.108   .     S
C87    H103    1.111   .     S
C87    H102    1.110   .     S
C87    H104    1.108   .     S
C87    C152    1.523   .     S
C88    O130    1.383   .     S
C88    C674    1.405   .     S
C89    O122    1.383   .     S
C89    C675    1.405   1_554 S
C90    C289    1.340   .     S
C90    H304    1.087   .     S
C91    C486    1.340   1_545 S
C91    H503    1.087   1_545 S
C92    O128    1.292   .     A
C92    O126    1.294   .     A
C93    O129    1.293   .     A
C93    O127    1.293   .     A
C94    I113    2.145   .     S
H99    C679    1.113   .     S
H106   C486    1.087   1_545 S
H107   C289    1.087   .     S
H109   C676    1.115   1_554 S
I118   N186    2.074   .     S
N119   Zn132   2.039   .     S
N119   I183    2.072   .     S
N119   N186    1.293   .     S
N120   Zn131   2.039   .     S
O121   Zn131   2.020   .     S
O123   Zn132   2.020   .     S
O124   Zn132   2.030   .     S
O125   Zn131   2.030   .     S
O126   Zn131   1.992   .     S
O127   Zn132   1.992   .     S
O128   Zn132   2.014   .     S
O129   Zn131   2.014   .     S
C133   O187    1.294   .     A
C133   O190    1.302   .     A
C133   C156    1.435   .     S
C134   C136    1.395   .     A
C134   C145    1.407   .     A
C134   I180    2.156   .     S
C135   C137    1.380   .     A
C135   C160    1.395   .     A
C135   C159    1.417   .     S
C136   C158    1.418   .     S
C136   C138    1.382   .     A
C137   C139    1.381   .     A
C137   H161    1.086   .     S
C138   H171    1.084   .     S
C138   C140    1.383   .     A
C139   C141    1.399   .     A
C139   C146    1.381   .     A
C140   C147    1.393   .     A
C140   C142    1.402   .     A
C141   C143    1.408   .     A
C141   C736    1.400   1_554 S
C142   C145    1.414   .     A
C142   C735    1.400   .     S
C143   C160    1.406   .     A
C143   C155    1.399   .     A
C144   C157    1.435   .     S
C144   O189    1.294   .     A
C144   O191    1.302   .     A
C145   C154    1.402   .     A
C146   I181    2.122   .     S
C146   C748    1.405   1_554 S
C147   I182    2.124   .     S
C147   C749    1.405   .     S
C148   O196    1.426   .     S
C148   H174    1.109   .     S
C148   C149    1.541   .     S
C148   H769    1.115   .     S
C149   H176    1.108   .     S
C149   H177    1.108   .     S
C150   H162    1.110   .     S
C150   H178    1.110   .     S
C150   H163    1.109   .     S
C150   C17     1.517   1_655 S
C151   O188    1.430   .     S
C151   C152    1.547   .     S
C151   H164    1.107   .     S
C151   H759    1.113   1_554 S
C152   H166    1.108   .     S
C152   H167    1.108   .     S
C153   H169    1.111   .     S
C153   H168    1.110   .     S
C153   H170    1.108   .     S
C153   C20     1.523   1_655 S
C154   O196    1.383   .     S
C154   C740    1.405   .     S
C155   O188    1.383   .     S
C155   C741    1.405   1_554 S
C156   C355    1.340   .     S
C156   H370    1.087   .     S
C157   C552    1.340   1_545 S
C157   H569    1.087   1_545 S
C158   O194    1.292   .     A
C158   O192    1.294   .     A
C159   O195    1.293   .     A
C159   O193    1.293   .     A
C160   I179    2.145   .     S
H165   C745    1.113   .     S
H172   C552    1.087   1_545 S
H173   C355    1.087   .     S
H175   C742    1.115   1_554 S
I184   N54     2.074   1_655 S
N185   Zn198   2.039   .     S
N185   I51     2.072   1_655 S
N185   N54     1.293   1_655 S
N186   Zn197   2.039   .     S
O187   Zn197   2.020   .     S
O189   Zn198   2.020   .     S
O190   Zn198   2.030   .     S
O191   Zn197   2.030   .     S
O192   Zn197   1.992   .     S
O193   Zn198   1.992   .     S
O194   Zn198   2.014   .     S
O195   Zn197   2.014   .     S
C199   O253    1.294   .     A
C199   O256    1.302   .     A
C199   C222    1.435   .     S
C200   C202    1.395   .     A
C200   C211    1.407   .     A
C200   I246    2.156   .     S
C201   C203    1.380   .     A
C201   C226    1.395   .     A
C201   C225    1.417   .     S
C202   C224    1.418   .     S
C202   C204    1.382   .     A
C203   C205    1.381   .     A
C203   H227    1.086   .     S
C204   H237    1.084   .     S
C204   C206    1.383   .     A
C205   C207    1.399   .     A
C205   C212    1.381   .     A
C206   C213    1.393   .     A
C206   C208    1.402   .     A
C207   C209    1.408   .     A
C207   C802    1.400   1_554 S
C208   C211    1.414   .     A
C208   C801    1.400   .     S
C209   C226    1.406   .     A
C209   C221    1.399   .     A
C210   C223    1.435   .     S
C210   O255    1.294   .     A
C210   O257    1.302   .     A
C211   C220    1.402   .     A
C212   I247    2.122   .     S
C212   C814    1.405   1_554 S
C213   I248    2.124   .     S
C213   C815    1.405   .     S
C214   O262    1.426   .     S
C214   H240    1.109   .     S
C214   C215    1.541   .     S
C214   H835    1.115   .     S
C215   H242    1.108   .     S
C215   H243    1.108   .     S
C215   C348    1.517   1_455 S
C216   H228    1.110   .     S
C216   H244    1.110   .     S
C216   H229    1.109   .     S
C216   C281    1.517   .     S
C217   O254    1.430   .     S
C217   C218    1.547   .     S
C217   H230    1.107   .     S
C217   H825    1.113   1_554 S
C218   H232    1.108   .     S
C218   H233    1.108   .     S
C218   C351    1.523   1_455 S
C219   H235    1.111   .     S
C219   H234    1.110   .     S
C219   H236    1.108   .     S
C219   C284    1.523   .     S
C220   O262    1.383   .     S
C220   C806    1.405   .     S
C221   O254    1.383   .     S
C221   C807    1.405   1_554 S
C222   C421    1.340   .     S
C222   H436    1.087   .     S
C224   O260    1.292   .     A
C224   O258    1.294   .     A
C225   O261    1.293   .     A
C225   O259    1.293   .     A
C226   I245    2.145   .     S
H231   C811    1.113   .     S
H239   C421    1.087   .     S
H241   C808    1.115   1_554 S
I249   N383    2.072   1_455 S
I250   N318    2.074   .     S
N251   Zn264   2.039   .     S
N251   I315    2.072   .     S
N251   N318    1.293   .     S
N252   Zn263   2.039   .     S
N252   N383    1.293   1_455 S
N252   I382    2.074   1_455 S
O253   Zn263   2.020   .     S
O255   Zn264   2.020   .     S
O256   Zn264   2.030   .     S
O257   Zn263   2.030   .     S
O258   Zn263   1.992   .     S
O259   Zn264   1.992   .     S
O260   Zn264   2.014   .     S
O261   Zn263   2.014   .     S
C265   O319    1.294   .     A
C265   O322    1.302   .     A
C265   C288    1.435   .     S
C266   C268    1.395   .     A
C266   C277    1.407   .     A
C266   I312    2.156   .     S
C267   C269    1.380   .     A
C267   C292    1.395   .     A
C267   C291    1.417   .     S
C268   C290    1.418   .     S
C268   C270    1.382   .     A
C269   C271    1.381   .     A
C269   H293    1.086   .     S
C270   H303    1.084   .     S
C270   C272    1.383   .     A
C271   C273    1.399   .     A
C271   C278    1.381   .     A
C272   C279    1.393   .     A
C272   C274    1.402   .     A
C273   C275    1.408   .     A
C273   C868    1.400   1_554 S
C274   C277    1.414   .     A
C274   C867    1.400   .     S
C275   C292    1.406   .     A
C275   C287    1.399   .     A
C276   C289    1.435   .     S
C276   O321    1.294   .     A
C276   O323    1.302   .     A
C277   C286    1.402   .     A
C278   I313    2.122   .     S
C278   C880    1.405   1_554 S
C279   I314    2.124   .     S
C279   C881    1.405   .     S
C280   O328    1.426   .     S
C280   H306    1.109   .     S
C280   C281    1.541   .     S
C280   H901    1.115   .     S
C281   H308    1.108   .     S
C281   H309    1.108   .     S
C282   H294    1.110   .     S
C282   H310    1.110   .     S
C282   H295    1.109   .     S
C282   C347    1.517   .     S
C283   O320    1.430   .     S
C283   C284    1.547   .     S
C283   H296    1.107   .     S
C283   H891    1.113   1_554 S
C284   H298    1.108   .     S
C284   H299    1.108   .     S
C285   H301    1.111   .     S
C285   H300    1.110   .     S
C285   H302    1.108   .     S
C285   C350    1.523   .     S
C286   O328    1.383   .     S
C286   C872    1.405   .     S
C287   O320    1.383   .     S
C287   C873    1.405   1_554 S
C288   C487    1.340   .     S
C288   H502    1.087   .     S
C290   O326    1.292   .     A
C290   O324    1.294   .     A
C291   O327    1.293   .     A
C291   O325    1.293   .     A
C292   I311    2.145   .     S
H297   C877    1.113   .     S
H305   C487    1.087   .     S
H307   C874    1.115   1_554 S
I316   N384    2.074   .     S
N317   Zn330   2.039   .     S
N317   I381    2.072   .     S
N317   N384    1.293   .     S
N318   Zn329   2.039   .     S
O319   Zn329   2.020   .     S
O321   Zn330   2.020   .     S
O322   Zn330   2.030   .     S
O323   Zn329   2.030   .     S
O324   Zn329   1.992   .     S
O325   Zn330   1.992   .     S
O326   Zn330   2.014   .     S
O327   Zn329   2.014   .     S
C331   O385    1.294   .     A
C331   O388    1.302   .     A
C331   C354    1.435   .     S
C332   C334    1.395   .     A
C332   C343    1.407   .     A
C332   I378    2.156   .     S
C333   C335    1.380   .     A
C333   C358    1.395   .     A
C333   C357    1.417   .     S
C334   C356    1.418   .     S
C334   C336    1.382   .     A
C335   C337    1.381   .     A
C335   H359    1.086   .     S
C336   H369    1.084   .     S
C336   C338    1.383   .     A
C337   C339    1.399   .     A
C337   C344    1.381   .     A
C338   C345    1.393   .     A
C338   C340    1.402   .     A
C339   C341    1.408   .     A
C339   C934    1.400   1_554 S
C340   C343    1.414   .     A
C340   C933    1.400   .     S
C341   C358    1.406   .     A
C341   C353    1.399   .     A
C342   C355    1.435   .     S
C342   O387    1.294   .     A
C342   O389    1.302   .     A
C343   C352    1.402   .     A
C344   I379    2.122   .     S
C344   C946    1.405   1_554 S
C345   I380    2.124   .     S
C345   C947    1.405   .     S
C346   O394    1.426   .     S
C346   H372    1.109   .     S
C346   C347    1.541   .     S
C346   H967    1.115   .     S
C347   H374    1.108   .     S
C347   H375    1.108   .     S
C348   H360    1.110   .     S
C348   H376    1.110   .     S
C348   H361    1.109   .     S
C348   C215    1.517   1_655 S
C349   O386    1.430   .     S
C349   C350    1.547   .     S
C349   H362    1.107   .     S
C349   H957    1.113   1_554 S
C350   H364    1.108   .     S
C350   H365    1.108   .     S
C351   H367    1.111   .     S
C351   H366    1.110   .     S
C351   H368    1.108   .     S
C351   C218    1.523   1_655 S
C352   O394    1.383   .     S
C352   C938    1.405   .     S
C353   O386    1.383   .     S
C353   C939    1.405   1_554 S
C354   C553    1.340   .     S
C354   H568    1.087   .     S
C356   O392    1.292   .     A
C356   O390    1.294   .     A
C357   O393    1.293   .     A
C357   O391    1.293   .     A
C358   I377    2.145   .     S
H363   C943    1.113   .     S
H371   C553    1.087   .     S
H373   C940    1.115   1_554 S
I382   N252    2.074   1_655 S
N383   Zn396   2.039   .     S
N383   I249    2.072   1_655 S
N383   N252    1.293   1_655 S
N384   Zn395   2.039   .     S
O385   Zn395   2.020   .     S
O387   Zn396   2.020   .     S
O388   Zn396   2.030   .     S
O389   Zn395   2.030   .     S
O390   Zn395   1.992   .     S
O391   Zn396   1.992   .     S
O392   Zn396   2.014   .     S
O393   Zn395   2.014   .     S
C397   O451    1.294   .     A
C397   O454    1.302   .     A
C397   C420    1.435   .     S
C398   C400    1.395   .     A
C398   C409    1.407   .     A
C398   I444    2.156   .     S
C399   C401    1.380   .     A
C399   C424    1.395   .     A
C399   C423    1.417   .     S
C400   C422    1.418   .     S
C400   C402    1.382   .     A
C401   C403    1.381   .     A
C401   H425    1.086   .     S
C402   H435    1.084   .     S
C402   C404    1.383   .     A
C403   C405    1.399   .     A
C403   C410    1.381   .     A
C404   C411    1.393   .     A
C404   C406    1.402   .     A
C405   C407    1.408   .     A
C405   C1000   1.400   1_554 S
C406   C409    1.414   .     A
C406   C999    1.400   .     S
C407   C424    1.406   .     A
C407   C419    1.399   .     A
C408   C421    1.435   .     S
C408   O453    1.294   .     A
C408   O455    1.302   .     A
C409   C418    1.402   .     A
C410   I445    2.122   .     S
C410   C1012   1.405   1_554 S
C411   I446    2.124   .     S
C411   C1013   1.405   .     S
C412   O460    1.426   .     S
C412   H438    1.109   .     S
C412   C413    1.541   .     S
C412   H1033   1.115   .     S
C413   H440    1.108   .     S
C413   H441    1.108   .     S
C413   C546    1.517   1_455 S
C414   H426    1.110   .     S
C414   H442    1.110   .     S
C414   H427    1.109   .     S
C414   C479    1.517   .     S
C415   O452    1.430   .     S
C415   C416    1.547   .     S
C415   H428    1.107   .     S
C415   H1023   1.113   1_554 S
C416   H430    1.108   .     S
C416   H431    1.108   .     S
C416   C549    1.523   1_455 S
C417   H433    1.111   .     S
C417   H432    1.110   .     S
C417   H434    1.108   .     S
C417   C482    1.523   .     S
C418   O460    1.383   .     S
C418   C1004   1.405   .     S
C419   O452    1.383   .     S
C419   C1005   1.405   1_554 S
C420   C25     1.340   1_565 S
C420   H40     1.087   1_565 S
C422   O458    1.292   .     A
C422   O456    1.294   .     A
C423   O459    1.293   .     A
C423   O457    1.293   .     A
C424   I443    2.145   .     S
H429   C1009   1.113   .     S
H437   C25     1.087   1_565 S
H439   C1006   1.115   1_554 S
I447   N581    2.072   1_455 S
I448   N516    2.074   .     S
N449   Zn462   2.039   .     S
N449   I513    2.072   .     S
N449   N516    1.293   .     S
N450   Zn461   2.039   .     S
N450   N581    1.293   1_455 S
N450   I580    2.074   1_455 S
O451   Zn461   2.020   .     S
O453   Zn462   2.020   .     S
O454   Zn462   2.030   .     S
O455   Zn461   2.030   .     S
O456   Zn461   1.992   .     S
O457   Zn462   1.992   .     S
O458   Zn462   2.014   .     S
O459   Zn461   2.014   .     S
C463   O517    1.294   .     A
C463   O520    1.302   .     A
C463   C486    1.435   .     S
C464   C466    1.395   .     A
C464   C475    1.407   .     A
C464   I510    2.156   .     S
C465   C467    1.380   .     A
C465   C490    1.395   .     A
C465   C489    1.417   .     S
C466   C488    1.418   .     S
C466   C468    1.382   .     A
C467   C469    1.381   .     A
C467   H491    1.086   .     S
C468   H501    1.084   .     S
C468   C470    1.383   .     A
C469   C471    1.399   .     A
C469   C476    1.381   .     A
C470   C477    1.393   .     A
C470   C472    1.402   .     A
C471   C473    1.408   .     A
C471   C1066   1.400   1_554 S
C472   C475    1.414   .     A
C472   C1065   1.400   .     S
C473   C490    1.406   .     A
C473   C485    1.399   .     A
C474   C487    1.435   .     S
C474   O519    1.294   .     A
C474   O521    1.302   .     A
C475   C484    1.402   .     A
C476   I511    2.122   .     S
C476   C1078   1.405   1_554 S
C477   I512    2.124   .     S
C477   C1079   1.405   .     S
C478   O526    1.426   .     S
C478   H504    1.109   .     S
C478   C479    1.541   .     S
C478   H1099   1.115   .     S
C479   H506    1.108   .     S
C479   H507    1.108   .     S
C480   H492    1.110   .     S
C480   H508    1.110   .     S
C480   H493    1.109   .     S
C480   C545    1.517   .     S
C481   O518    1.430   .     S
C481   C482    1.547   .     S
C481   H494    1.107   .     S
C481   H1089   1.113   1_554 S
C482   H496    1.108   .     S
C482   H497    1.108   .     S
C483   H499    1.111   .     S
C483   H498    1.110   .     S
C483   H500    1.108   .     S
C483   C548    1.523   .     S
C484   O526    1.383   .     S
C484   C1070   1.405   .     S
C485   O518    1.383   .     S
C485   C1071   1.405   1_554 S
C486   C91     1.340   1_565 S
C486   H106    1.087   1_565 S
C488   O524    1.292   .     A
C488   O522    1.294   .     A
C489   O525    1.293   .     A
C489   O523    1.293   .     A
C490   I509    2.145   .     S
H495   C1075   1.113   .     S
H503   C91     1.087   1_565 S
H505   C1072   1.115   1_554 S
I514   N582    2.074   .     S
N515   Zn528   2.039   .     S
N515   I579    2.072   .     S
N515   N582    1.293   .     S
N516   Zn527   2.039   .     S
O517   Zn527   2.020   .     S
O519   Zn528   2.020   .     S
O520   Zn528   2.030   .     S
O521   Zn527   2.030   .     S
O522   Zn527   1.992   .     S
O523   Zn528   1.992   .     S
O524   Zn528   2.014   .     S
O525   Zn527   2.014   .     S
C529   O583    1.294   .     A
C529   O586    1.302   .     A
C529   C552    1.435   .     S
C530   C532    1.395   .     A
C530   C541    1.407   .     A
C530   I576    2.156   .     S
C531   C533    1.380   .     A
C531   C556    1.395   .     A
C531   C555    1.417   .     S
C532   C554    1.418   .     S
C532   C534    1.382   .     A
C533   C535    1.381   .     A
C533   H557    1.086   .     S
C534   H567    1.084   .     S
C534   C536    1.383   .     A
C535   C537    1.399   .     A
C535   C542    1.381   .     A
C536   C543    1.393   .     A
C536   C538    1.402   .     A
C537   C539    1.408   .     A
C537   C1132   1.400   1_554 S
C538   C541    1.414   .     A
C538   C1131   1.400   .     S
C539   C556    1.406   .     A
C539   C551    1.399   .     A
C540   C553    1.435   .     S
C540   O585    1.294   .     A
C540   O587    1.302   .     A
C541   C550    1.402   .     A
C542   I577    2.122   .     S
C542   C1144   1.405   1_554 S
C543   I578    2.124   .     S
C543   C1145   1.405   .     S
C544   O592    1.426   .     S
C544   H570    1.109   .     S
C544   C545    1.541   .     S
C544   H1165   1.115   .     S
C545   H572    1.108   .     S
C545   H573    1.108   .     S
C546   H558    1.110   .     S
C546   H574    1.110   .     S
C546   H559    1.109   .     S
C546   C413    1.517   1_655 S
C547   O584    1.430   .     S
C547   C548    1.547   .     S
C547   H560    1.107   .     S
C547   H1155   1.113   1_554 S
C548   H562    1.108   .     S
C548   H563    1.108   .     S
C549   H565    1.111   .     S
C549   H564    1.110   .     S
C549   H566    1.108   .     S
C549   C416    1.523   1_655 S
C550   O592    1.383   .     S
C550   C1136   1.405   .     S
C551   O584    1.383   .     S
C551   C1137   1.405   1_554 S
C552   C157    1.340   1_565 S
C552   H172    1.087   1_565 S
C554   O590    1.292   .     A
C554   O588    1.294   .     A
C555   O591    1.293   .     A
C555   O589    1.293   .     A
C556   I575    2.145   .     S
H561   C1141   1.113   .     S
H569   C157    1.087   1_565 S
H571   C1138   1.115   1_554 S
I580   N450    2.074   1_655 S
N581   Zn594   2.039   .     S
N581   I447    2.072   1_655 S
N581   N450    1.293   1_655 S
N582   Zn593   2.039   .     S
O583   Zn593   2.020   .     S
O585   Zn594   2.020   .     S
O586   Zn594   2.030   .     S
O587   Zn593   2.030   .     S
O588   Zn593   1.992   .     S
O589   Zn594   1.992   .     S
O590   Zn594   2.014   .     S
O591   Zn593   2.014   .     S
C595   O649    1.294   .     A
C595   O652    1.302   .     A
C595   C618    1.435   .     S
C596   C598    1.395   .     A
C596   C607    1.407   .     A
C596   I642    2.156   .     S
C597   C599    1.380   .     A
C597   C622    1.395   .     A
C597   C621    1.417   .     S
C598   C620    1.418   .     S
C598   C600    1.382   .     A
C599   C601    1.381   .     A
C599   H623    1.086   .     S
C600   H633    1.084   .     S
C600   C602    1.383   .     A
C601   C603    1.399   .     A
C601   C608    1.381   .     A
C602   C609    1.393   .     A
C602   C604    1.402   .     A
C603   C605    1.408   .     A
C604   C607    1.414   .     A
C604   C9      1.400   1_556 S
C605   C622    1.406   .     A
C605   C617    1.399   .     A
C606   C619    1.435   .     S
C606   O651    1.294   .     A
C606   O653    1.302   .     A
C607   C616    1.402   .     A
C608   I643    2.122   .     S
C609   I644    2.124   .     S
C609   C23     1.405   1_556 S
C610   O658    1.426   .     S
C610   H636    1.109   .     S
C610   C611    1.541   .     S
C610   H43     1.115   1_556 S
C611   H638    1.108   .     S
C611   H639    1.108   .     S
C611   C744    1.517   1_455 S
C612   H624    1.110   .     S
C612   H640    1.110   .     S
C612   H625    1.109   .     S
C612   C677    1.517   .     S
C613   O650    1.430   .     S
C613   C614    1.547   .     S
C613   H626    1.107   .     S
C614   H628    1.108   .     S
C614   H629    1.108   .     S
C614   C747    1.523   1_455 S
C615   H631    1.111   .     S
C615   H630    1.110   .     S
C615   H632    1.108   .     S
C615   C680    1.523   .     S
C616   O658    1.383   .     S
C616   C14     1.405   1_556 S
C617   O650    1.383   .     S
C618   C817    1.340   .     S
C618   H832    1.087   .     S
C619   C1014   1.340   1_545 S
C619   H1031   1.087   1_545 S
C620   O656    1.292   .     A
C620   O654    1.294   .     A
C621   O657    1.293   .     A
C621   O655    1.293   .     A
C622   I641    2.145   .     S
H627   C19     1.113   1_556 S
H634   C1014   1.087   1_545 S
H635   C817    1.087   .     S
I645   N779    2.072   1_455 S
I646   N714    2.074   .     S
N647   Zn660   2.039   .     S
N647   I711    2.072   .     S
N647   N714    1.293   .     S
N648   Zn659   2.039   .     S
N648   N779    1.293   1_455 S
N648   I778    2.074   1_455 S
O649   Zn659   2.020   .     S
O651   Zn660   2.020   .     S
O652   Zn660   2.030   .     S
O653   Zn659   2.030   .     S
O654   Zn659   1.992   .     S
O655   Zn660   1.992   .     S
O656   Zn660   2.014   .     S
O657   Zn659   2.014   .     S
C661   O715    1.294   .     A
C661   O718    1.302   .     A
C661   C684    1.435   .     S
C662   C664    1.395   .     A
C662   C673    1.407   .     A
C662   I708    2.156   .     S
C663   C665    1.380   .     A
C663   C688    1.395   .     A
C663   C687    1.417   .     S
C664   C686    1.418   .     S
C664   C666    1.382   .     A
C665   C667    1.381   .     A
C665   H689    1.086   .     S
C666   H699    1.084   .     S
C666   C668    1.383   .     A
C667   C669    1.399   .     A
C667   C674    1.381   .     A
C668   C675    1.393   .     A
C668   C670    1.402   .     A
C669   C671    1.408   .     A
C670   C673    1.414   .     A
C670   C75     1.400   1_556 S
C671   C688    1.406   .     A
C671   C683    1.399   .     A
C672   C685    1.435   .     S
C672   O717    1.294   .     A
C672   O719    1.302   .     A
C673   C682    1.402   .     A
C674   I709    2.122   .     S
C675   I710    2.124   .     S
C675   C89     1.405   1_556 S
C676   O724    1.426   .     S
C676   H702    1.109   .     S
C676   C677    1.541   .     S
C676   H109    1.115   1_556 S
C677   H704    1.108   .     S
C677   H705    1.108   .     S
C678   H690    1.110   .     S
C678   H706    1.110   .     S
C678   H691    1.109   .     S
C678   C743    1.517   .     S
C679   O716    1.430   .     S
C679   C680    1.547   .     S
C679   H692    1.107   .     S
C680   H694    1.108   .     S
C680   H695    1.108   .     S
C681   H697    1.111   .     S
C681   H696    1.110   .     S
C681   H698    1.108   .     S
C681   C746    1.523   .     S
C682   O724    1.383   .     S
C682   C80     1.405   1_556 S
C683   O716    1.383   .     S
C684   C883    1.340   .     S
C684   H898    1.087   .     S
C685   C1080   1.340   1_545 S
C685   H1097   1.087   1_545 S
C686   O722    1.292   .     A
C686   O720    1.294   .     A
C687   O723    1.293   .     A
C687   O721    1.293   .     A
C688   I707    2.145   .     S
H693   C85     1.113   1_556 S
H700   C1080   1.087   1_545 S
H701   C883    1.087   .     S
I712   N780    2.074   .     S
N713   Zn726   2.039   .     S
N713   I777    2.072   .     S
N713   N780    1.293   .     S
N714   Zn725   2.039   .     S
O715   Zn725   2.020   .     S
O717   Zn726   2.020   .     S
O718   Zn726   2.030   .     S
O719   Zn725   2.030   .     S
O720   Zn725   1.992   .     S
O721   Zn726   1.992   .     S
O722   Zn726   2.014   .     S
O723   Zn725   2.014   .     S
C727   O781    1.294   .     A
C727   O784    1.302   .     A
C727   C750    1.435   .     S
C728   C730    1.395   .     A
C728   C739    1.407   .     A
C728   I774    2.156   .     S
C729   C731    1.380   .     A
C729   C754    1.395   .     A
C729   C753    1.417   .     S
C730   C752    1.418   .     S
C730   C732    1.382   .     A
C731   C733    1.381   .     A
C731   H755    1.086   .     S
C732   H765    1.084   .     S
C732   C734    1.383   .     A
C733   C735    1.399   .     A
C733   C740    1.381   .     A
C734   C741    1.393   .     A
C734   C736    1.402   .     A
C735   C737    1.408   .     A
C736   C739    1.414   .     A
C736   C141    1.400   1_556 S
C737   C754    1.406   .     A
C737   C749    1.399   .     A
C738   C751    1.435   .     S
C738   O783    1.294   .     A
C738   O785    1.302   .     A
C739   C748    1.402   .     A
C740   I775    2.122   .     S
C741   I776    2.124   .     S
C741   C155    1.405   1_556 S
C742   O790    1.426   .     S
C742   H768    1.109   .     S
C742   C743    1.541   .     S
C742   H175    1.115   1_556 S
C743   H770    1.108   .     S
C743   H771    1.108   .     S
C744   H756    1.110   .     S
C744   H772    1.110   .     S
C744   H757    1.109   .     S
C744   C611    1.517   1_655 S
C745   O782    1.430   .     S
C745   C746    1.547   .     S
C745   H758    1.107   .     S
C746   H760    1.108   .     S
C746   H761    1.108   .     S
C747   H763    1.111   .     S
C747   H762    1.110   .     S
C747   H764    1.108   .     S
C747   C614    1.523   1_655 S
C748   O790    1.383   .     S
C748   C146    1.405   1_556 S
C749   O782    1.383   .     S
C750   C949    1.340   .     S
C750   H964    1.087   .     S
C751   C1146   1.340   1_545 S
C751   H1163   1.087   1_545 S
C752   O788    1.292   .     A
C752   O786    1.294   .     A
C753   O789    1.293   .     A
C753   O787    1.293   .     A
C754   I773    2.145   .     S
H759   C151    1.113   1_556 S
H766   C1146   1.087   1_545 S
H767   C949    1.087   .     S
I778   N648    2.074   1_655 S
N779   Zn792   2.039   .     S
N779   I645    2.072   1_655 S
N779   N648    1.293   1_655 S
N780   Zn791   2.039   .     S
O781   Zn791   2.020   .     S
O783   Zn792   2.020   .     S
O784   Zn792   2.030   .     S
O785   Zn791   2.030   .     S
O786   Zn791   1.992   .     S
O787   Zn792   1.992   .     S
O788   Zn792   2.014   .     S
O789   Zn791   2.014   .     S
C793   O847    1.294   .     A
C793   O850    1.302   .     A
C793   C816    1.435   .     S
C794   C796    1.395   .     A
C794   C805    1.407   .     A
C794   I840    2.156   .     S
C795   C797    1.380   .     A
C795   C820    1.395   .     A
C795   C819    1.417   .     S
C796   C818    1.418   .     S
C796   C798    1.382   .     A
C797   C799    1.381   .     A
C797   H821    1.086   .     S
C798   H831    1.084   .     S
C798   C800    1.383   .     A
C799   C801    1.399   .     A
C799   C806    1.381   .     A
C800   C807    1.393   .     A
C800   C802    1.402   .     A
C801   C803    1.408   .     A
C802   C805    1.414   .     A
C802   C207    1.400   1_556 S
C803   C820    1.406   .     A
C803   C815    1.399   .     A
C804   C817    1.435   .     S
C804   O849    1.294   .     A
C804   O851    1.302   .     A
C805   C814    1.402   .     A
C806   I841    2.122   .     S
C807   I842    2.124   .     S
C807   C221    1.405   1_556 S
C808   O856    1.426   .     S
C808   H834    1.109   .     S
C808   C809    1.541   .     S
C808   H241    1.115   1_556 S
C809   H836    1.108   .     S
C809   H837    1.108   .     S
C809   C942    1.517   1_455 S
C810   H822    1.110   .     S
C810   H838    1.110   .     S
C810   H823    1.109   .     S
C810   C875    1.517   .     S
C811   O848    1.430   .     S
C811   C812    1.547   .     S
C811   H824    1.107   .     S
C812   H826    1.108   .     S
C812   H827    1.108   .     S
C812   C945    1.523   1_455 S
C813   H829    1.111   .     S
C813   H828    1.110   .     S
C813   H830    1.108   .     S
C813   C878    1.523   .     S
C814   O856    1.383   .     S
C814   C212    1.405   1_556 S
C815   O848    1.383   .     S
C816   C1015   1.340   .     S
C816   H1030   1.087   .     S
C818   O854    1.292   .     A
C818   O852    1.294   .     A
C819   O855    1.293   .     A
C819   O853    1.293   .     A
C820   I839    2.145   .     S
H825   C217    1.113   1_556 S
H833   C1015   1.087   .     S
I843   N977    2.072   1_455 S
I844   N912    2.074   .     S
N845   Zn858   2.039   .     S
N845   I909    2.072   .     S
N845   N912    1.293   .     S
N846   Zn857   2.039   .     S
N846   N977    1.293   1_455 S
N846   I976    2.074   1_455 S
O847   Zn857   2.020   .     S
O849   Zn858   2.020   .     S
O850   Zn858   2.030   .     S
O851   Zn857   2.030   .     S
O852   Zn857   1.992   .     S
O853   Zn858   1.992   .     S
O854   Zn858   2.014   .     S
O855   Zn857   2.014   .     S
C859   O913    1.294   .     A
C859   O916    1.302   .     A
C859   C882    1.435   .     S
C860   C862    1.395   .     A
C860   C871    1.407   .     A
C860   I906    2.156   .     S
C861   C863    1.380   .     A
C861   C886    1.395   .     A
C861   C885    1.417   .     S
C862   C884    1.418   .     S
C862   C864    1.382   .     A
C863   C865    1.381   .     A
C863   H887    1.086   .     S
C864   H897    1.084   .     S
C864   C866    1.383   .     A
C865   C867    1.399   .     A
C865   C872    1.381   .     A
C866   C873    1.393   .     A
C866   C868    1.402   .     A
C867   C869    1.408   .     A
C868   C871    1.414   .     A
C868   C273    1.400   1_556 S
C869   C886    1.406   .     A
C869   C881    1.399   .     A
C870   C883    1.435   .     S
C870   O915    1.294   .     A
C870   O917    1.302   .     A
C871   C880    1.402   .     A
C872   I907    2.122   .     S
C873   I908    2.124   .     S
C873   C287    1.405   1_556 S
C874   O922    1.426   .     S
C874   H900    1.109   .     S
C874   C875    1.541   .     S
C874   H307    1.115   1_556 S
C875   H902    1.108   .     S
C875   H903    1.108   .     S
C876   H888    1.110   .     S
C876   H904    1.110   .     S
C876   H889    1.109   .     S
C876   C941    1.517   .     S
C877   O914    1.430   .     S
C877   C878    1.547   .     S
C877   H890    1.107   .     S
C878   H892    1.108   .     S
C878   H893    1.108   .     S
C879   H895    1.111   .     S
C879   H894    1.110   .     S
C879   H896    1.108   .     S
C879   C944    1.523   .     S
C880   O922    1.383   .     S
C880   C278    1.405   1_556 S
C881   O914    1.383   .     S
C882   C1081   1.340   .     S
C882   H1096   1.087   .     S
C884   O920    1.292   .     A
C884   O918    1.294   .     A
C885   O921    1.293   .     A
C885   O919    1.293   .     A
C886   I905    2.145   .     S
H891   C283    1.113   1_556 S
H899   C1081   1.087   .     S
I910   N978    2.074   .     S
N911   Zn924   2.039   .     S
N911   I975    2.072   .     S
N911   N978    1.293   .     S
N912   Zn923   2.039   .     S
O913   Zn923   2.020   .     S
O915   Zn924   2.020   .     S
O916   Zn924   2.030   .     S
O917   Zn923   2.030   .     S
O918   Zn923   1.992   .     S
O919   Zn924   1.992   .     S
O920   Zn924   2.014   .     S
O921   Zn923   2.014   .     S
C925   O979    1.294   .     A
C925   O982    1.302   .     A
C925   C948    1.435   .     S
C926   C928    1.395   .     A
C926   C937    1.407   .     A
C926   I972    2.156   .     S
C927   C929    1.380   .     A
C927   C952    1.395   .     A
C927   C951    1.417   .     S
C928   C950    1.418   .     S
C928   C930    1.382   .     A
C929   C931    1.381   .     A
C929   H953    1.086   .     S
C930   H963    1.084   .     S
C930   C932    1.383   .     A
C931   C933    1.399   .     A
C931   C938    1.381   .     A
C932   C939    1.393   .     A
C932   C934    1.402   .     A
C933   C935    1.408   .     A
C934   C937    1.414   .     A
C934   C339    1.400   1_556 S
C935   C952    1.406   .     A
C935   C947    1.399   .     A
C936   C949    1.435   .     S
C936   O981    1.294   .     A
C936   O983    1.302   .     A
C937   C946    1.402   .     A
C938   I973    2.122   .     S
C939   I974    2.124   .     S
C939   C353    1.405   1_556 S
C940   O988    1.426   .     S
C940   H966    1.109   .     S
C940   C941    1.541   .     S
C940   H373    1.115   1_556 S
C941   H968    1.108   .     S
C941   H969    1.108   .     S
C942   H954    1.110   .     S
C942   H970    1.110   .     S
C942   H955    1.109   .     S
C942   C809    1.517   1_655 S
C943   O980    1.430   .     S
C943   C944    1.547   .     S
C943   H956    1.107   .     S
C944   H958    1.108   .     S
C944   H959    1.108   .     S
C945   H961    1.111   .     S
C945   H960    1.110   .     S
C945   H962    1.108   .     S
C945   C812    1.523   1_655 S
C946   O988    1.383   .     S
C946   C344    1.405   1_556 S
C947   O980    1.383   .     S
C948   C1147   1.340   .     S
C948   H1162   1.087   .     S
C950   O986    1.292   .     A
C950   O984    1.294   .     A
C951   O987    1.293   .     A
C951   O985    1.293   .     A
C952   I971    2.145   .     S
H957   C349    1.113   1_556 S
H965   C1147   1.087   .     S
I976   N846    2.074   1_655 S
N977   Zn990   2.039   .     S
N977   I843    2.072   1_655 S
N977   N846    1.293   1_655 S
N978   Zn989   2.039   .     S
O979   Zn989   2.020   .     S
O981   Zn990   2.020   .     S
O982   Zn990   2.030   .     S
O983   Zn989   2.030   .     S
O984   Zn989   1.992   .     S
O985   Zn990   1.992   .     S
O986   Zn990   2.014   .     S
O987   Zn989   2.014   .     S
C991   O1045   1.294   .     A
C991   O1048   1.302   .     A
C991   C1014   1.435   .     S
C992   C994    1.395   .     A
C992   C1003   1.407   .     A
C992   I1038   2.156   .     S
C993   C995    1.380   .     A
C993   C1018   1.395   .     A
C993   C1017   1.417   .     S
C994   C1016   1.418   .     S
C994   C996    1.382   .     A
C995   C997    1.381   .     A
C995   H1019   1.086   .     S
C996   H1029   1.084   .     S
C996   C998    1.383   .     A
C997   C999    1.399   .     A
C997   C1004   1.381   .     A
C998   C1005   1.393   .     A
C998   C1000   1.402   .     A
C999   C1001   1.408   .     A
C1000  C1003   1.414   .     A
C1000  C405    1.400   1_556 S
C1001  C1018   1.406   .     A
C1001  C1013   1.399   .     A
C1002  C1015   1.435   .     S
C1002  O1047   1.294   .     A
C1002  O1049   1.302   .     A
C1003  C1012   1.402   .     A
C1004  I1039   2.122   .     S
C1005  I1040   2.124   .     S
C1005  C419    1.405   1_556 S
C1006  O1054   1.426   .     S
C1006  H1032   1.109   .     S
C1006  C1007   1.541   .     S
C1006  H439    1.115   1_556 S
C1007  H1034   1.108   .     S
C1007  H1035   1.108   .     S
C1007  C1140   1.517   1_455 S
C1008  H1020   1.110   .     S
C1008  H1036   1.110   .     S
C1008  H1021   1.109   .     S
C1008  C1073   1.517   .     S
C1009  O1046   1.430   .     S
C1009  C1010   1.547   .     S
C1009  H1022   1.107   .     S
C1010  H1024   1.108   .     S
C1010  H1025   1.108   .     S
C1010  C1143   1.523   1_455 S
C1011  H1027   1.111   .     S
C1011  H1026   1.110   .     S
C1011  H1028   1.108   .     S
C1011  C1076   1.523   .     S
C1012  O1054   1.383   .     S
C1012  C410    1.405   1_556 S
C1013  O1046   1.383   .     S
C1014  C619    1.340   1_565 S
C1014  H634    1.087   1_565 S
C1016  O1052   1.292   .     A
C1016  O1050   1.294   .     A
C1017  O1053   1.293   .     A
C1017  O1051   1.293   .     A
C1018  I1037   2.145   .     S
H1023  C415    1.113   1_556 S
H1031  C619    1.087   1_565 S
I1041  N1175   2.072   1_455 S
I1042  N1110   2.074   .     S
N1043  Zn1056  2.039   .     S
N1043  I1107   2.072   .     S
N1043  N1110   1.293   .     S
N1044  Zn1055  2.039   .     S
N1044  N1175   1.293   1_455 S
N1044  I1174   2.074   1_455 S
O1045  Zn1055  2.020   .     S
O1047  Zn1056  2.020   .     S
O1048  Zn1056  2.030   .     S
O1049  Zn1055  2.030   .     S
O1050  Zn1055  1.992   .     S
O1051  Zn1056  1.992   .     S
O1052  Zn1056  2.014   .     S
O1053  Zn1055  2.014   .     S
C1057  O1111   1.294   .     A
C1057  O1114   1.302   .     A
C1057  C1080   1.435   .     S
C1058  C1060   1.395   .     A
C1058  C1069   1.407   .     A
C1058  I1104   2.156   .     S
C1059  C1061   1.380   .     A
C1059  C1084   1.395   .     A
C1059  C1083   1.417   .     S
C1060  C1082   1.418   .     S
C1060  C1062   1.382   .     A
C1061  C1063   1.381   .     A
C1061  H1085   1.086   .     S
C1062  H1095   1.084   .     S
C1062  C1064   1.383   .     A
C1063  C1065   1.399   .     A
C1063  C1070   1.381   .     A
C1064  C1071   1.393   .     A
C1064  C1066   1.402   .     A
C1065  C1067   1.408   .     A
C1066  C1069   1.414   .     A
C1066  C471    1.400   1_556 S
C1067  C1084   1.406   .     A
C1067  C1079   1.399   .     A
C1068  C1081   1.435   .     S
C1068  O1113   1.294   .     A
C1068  O1115   1.302   .     A
C1069  C1078   1.402   .     A
C1070  I1105   2.122   .     S
C1071  I1106   2.124   .     S
C1071  C485    1.405   1_556 S
C1072  O1120   1.426   .     S
C1072  H1098   1.109   .     S
C1072  C1073   1.541   .     S
C1072  H505    1.115   1_556 S
C1073  H1100   1.108   .     S
C1073  H1101   1.108   .     S
C1074  H1086   1.110   .     S
C1074  H1102   1.110   .     S
C1074  H1087   1.109   .     S
C1074  C1139   1.517   .     S
C1075  O1112   1.430   .     S
C1075  C1076   1.547   .     S
C1075  H1088   1.107   .     S
C1076  H1090   1.108   .     S
C1076  H1091   1.108   .     S
C1077  H1093   1.111   .     S
C1077  H1092   1.110   .     S
C1077  H1094   1.108   .     S
C1077  C1142   1.523   .     S
C1078  O1120   1.383   .     S
C1078  C476    1.405   1_556 S
C1079  O1112   1.383   .     S
C1080  C685    1.340   1_565 S
C1080  H700    1.087   1_565 S
C1082  O1118   1.292   .     A
C1082  O1116   1.294   .     A
C1083  O1119   1.293   .     A
C1083  O1117   1.293   .     A
C1084  I1103   2.145   .     S
H1089  C481    1.113   1_556 S
H1097  C685    1.087   1_565 S
I1108  N1176   2.074   .     S
N1109  Zn1122  2.039   .     S
N1109  I1173   2.072   .     S
N1109  N1176   1.293   .     S
N1110  Zn1121  2.039   .     S
O1111  Zn1121  2.020   .     S
O1113  Zn1122  2.020   .     S
O1114  Zn1122  2.030   .     S
O1115  Zn1121  2.030   .     S
O1116  Zn1121  1.992   .     S
O1117  Zn1122  1.992   .     S
O1118  Zn1122  2.014   .     S
O1119  Zn1121  2.014   .     S
C1123  O1177   1.294   .     A
C1123  O1180   1.302   .     A
C1123  C1146   1.435   .     S
C1124  C1126   1.395   .     A
C1124  C1135   1.407   .     A
C1124  I1170   2.156   .     S
C1125  C1127   1.380   .     A
C1125  C1150   1.395   .     A
C1125  C1149   1.417   .     S
C1126  C1148   1.418   .     S
C1126  C1128   1.382   .     A
C1127  C1129   1.381   .     A
C1127  H1151   1.086   .     S
C1128  H1161   1.084   .     S
C1128  C1130   1.383   .     A
C1129  C1131   1.399   .     A
C1129  C1136   1.381   .     A
C1130  C1137   1.393   .     A
C1130  C1132   1.402   .     A
C1131  C1133   1.408   .     A
C1132  C1135   1.414   .     A
C1132  C537    1.400   1_556 S
C1133  C1150   1.406   .     A
C1133  C1145   1.399   .     A
C1134  C1147   1.435   .     S
C1134  O1179   1.294   .     A
C1134  O1181   1.302   .     A
C1135  C1144   1.402   .     A
C1136  I1171   2.122   .     S
C1137  I1172   2.124   .     S
C1137  C551    1.405   1_556 S
C1138  O1186   1.426   .     S
C1138  H1164   1.109   .     S
C1138  C1139   1.541   .     S
C1138  H571    1.115   1_556 S
C1139  H1166   1.108   .     S
C1139  H1167   1.108   .     S
C1140  H1152   1.110   .     S
C1140  H1168   1.110   .     S
C1140  H1153   1.109   .     S
C1140  C1007   1.517   1_655 S
C1141  O1178   1.430   .     S
C1141  C1142   1.547   .     S
C1141  H1154   1.107   .     S
C1142  H1156   1.108   .     S
C1142  H1157   1.108   .     S
C1143  H1159   1.111   .     S
C1143  H1158   1.110   .     S
C1143  H1160   1.108   .     S
C1143  C1010   1.523   1_655 S
C1144  O1186   1.383   .     S
C1144  C542    1.405   1_556 S
C1145  O1178   1.383   .     S
C1146  C751    1.340   1_565 S
C1146  H766    1.087   1_565 S
C1148  O1184   1.292   .     A
C1148  O1182   1.294   .     A
C1149  O1185   1.293   .     A
C1149  O1183   1.293   .     A
C1150  I1169   2.145   .     S
H1155  C547    1.113   1_556 S
H1163  C751    1.087   1_565 S
I1174  N1044   2.074   1_655 S
N1175  Zn1188  2.039   .     S
N1175  I1041   2.072   1_655 S
N1175  N1044   1.293   1_655 S
N1176  Zn1187  2.039   .     S
O1177  Zn1187  2.020   .     S
O1179  Zn1188  2.020   .     S
O1180  Zn1188  2.030   .     S
O1181  Zn1187  2.030   .     S
O1182  Zn1187  1.992   .     S
O1183  Zn1188  1.992   .     S
O1184  Zn1188  2.014   .     S
O1185  Zn1187  2.014   .     S
