data_str_m3_o2_o10_pcu_sym.76
_audit_creation_date              2020-01-03
_audit_creation_method            'Materials Studio'
_symmetry_space_group_name_H-M    'P1'
_symmetry_Int_Tables_number       1
_symmetry_cell_setting            triclinic
loop_
_symmetry_equiv_pos_as_xyz
  x,y,z
_cell_length_a                    25.7339
_cell_length_b                    29.9165
_cell_length_c                    28.6732
_cell_angle_alpha                 89.1027
_cell_angle_beta                  98.1650
_cell_angle_gamma                 92.1096
loop_
_atom_site_label
_atom_site_type_symbol
_atom_site_fract_x
_atom_site_fract_y
_atom_site_fract_z
_atom_site_U_iso_or_equiv
_atom_site_adp_type
_atom_site_occupancy
Br1    Br    0.06280   0.11492   0.27590   0.00000  Uiso   1.00
Br2    Br    0.05881   0.37398   0.20499   0.00000  Uiso   1.00
Br3    Br    0.26763   0.13035   0.21195   0.00000  Uiso   1.00
Br4    Br    0.27972   0.37811   0.28634   0.00000  Uiso   1.00
Br5    Br    0.09568   0.17285   0.12266   0.00000  Uiso   1.00
Br6    Br    0.26629   0.30010   0.38289   0.00000  Uiso   1.00
Br7    Br    0.23984   0.32506   0.14320   0.00000  Uiso   1.00
Br8    Br    0.07156   0.19513   0.35832   0.00000  Uiso   1.00
C9     C     0.16667   0.16409   0.25016   0.00000  Uiso   1.00
C10    C     0.12064   0.23712   0.44202   0.00000  Uiso   1.00
C11    C     0.16563   0.25254   0.02670   0.00000  Uiso   1.00
C12    C     0.16477   0.25230   0.47345   0.00000  Uiso   1.00
C13    C     0.06719   0.25012   0.23769   0.00000  Uiso   1.00
C14    C     0.26613   0.25093   0.26222   0.00000  Uiso   1.00
C15    C     0.01213   0.24967   0.23103   0.00000  Uiso   1.00
C16    C     0.32115   0.25375   0.26850   0.00000  Uiso   1.00
C17    C     0.12811   0.04413   0.26189   0.00000  Uiso   1.00
C18    C     0.12483   0.45170   0.22678   0.00000  Uiso   1.00
C19    C     0.12638   0.09012   0.26282   0.00000  Uiso   1.00
C20    C     0.16731   0.33577   0.24966   0.00000  Uiso   1.00
C21    C     0.12334   0.40551   0.22871   0.00000  Uiso   1.00
C22    C     0.16856   0.11623   0.25006   0.00000  Uiso   1.00
C23    C     0.16853   0.38345   0.24830   0.00000  Uiso   1.00
C24    C     0.21109   0.09613   0.23384   0.00000  Uiso   1.00
C25    C     0.21552   0.40723   0.26427   0.00000  Uiso   1.00
C26    C     0.21200   0.04991   0.23231   0.00000  Uiso   1.00
C27    C     0.21634   0.45348   0.26283   0.00000  Uiso   1.00
C28    C     0.17060   0.02398   0.24646   0.00000  Uiso   1.00
C29    C     0.17088   0.47569   0.24472   0.00000  Uiso   1.00
C30    C     0.14215   0.21685   0.04957   0.00000  Uiso   1.00
C31    C     0.20925   0.26622   0.45316   0.00000  Uiso   1.00
C32    C     0.13980   0.21759   0.09822   0.00000  Uiso   1.00
C33    C     0.20814   0.26833   0.40396   0.00000  Uiso   1.00
C34    C     0.19375   0.28351   0.10544   0.00000  Uiso   1.00
C35    C     0.12445   0.23223   0.39348   0.00000  Uiso   1.00
C36    C     0.19030   0.28729   0.05571   0.00000  Uiso   1.00
Cl37   Cl    0.21308   0.33760   0.03097   0.00000  Uiso   1.00
Cl38   Cl    0.05883   0.22748   0.46150   0.00000  Uiso   1.00
H39    H     0.32504   0.24496   0.19544   0.00000  Uiso   1.00
H40    H     0.00814   0.25943   0.30386   0.00000  Uiso   1.00
H41    H     0.09577   0.02409   0.27251   0.00000  Uiso   1.00
H42    H     0.08993   0.46888   0.21172   0.00000  Uiso   1.00
H43    H     0.24440   0.03430   0.21933   0.00000  Uiso   1.00
H44    H     0.25208   0.47203   0.27648   0.00000  Uiso   1.00
H45    H     0.12426   0.18852   0.02961   0.00000  Uiso   1.00
H46    H     0.24495   0.27685   0.47537   0.00000  Uiso   1.00
N47    N     0.16667   0.24999   0.12624   0.00000  Uiso   1.00
N48    N     0.16667   0.25001   0.37377   0.00000  Uiso   1.00
O49    O     0.16667   0.18454   0.28974   0.00000  Uiso   1.00
O50    O     0.16666   0.31547   0.21026   0.00000  Uiso   1.00
O51    O     0.16667   0.18453   0.21026   0.00000  Uiso   1.00
O52    O     0.16666   0.31547   0.28974   0.00000  Uiso   1.00
O53    O     0.09058   0.25000   0.28045   0.00000  Uiso   1.00
O54    O     0.24275   0.25000   0.21956   0.00000  Uiso   1.00
O55    O     0.09058   0.25000   0.20097   0.00000  Uiso   1.00
O56    O     0.24275   0.25001   0.29904   0.00000  Uiso   1.00
Zn57   Zn    0.16667   0.25001   0.30307   0.00000  Uiso   1.00
Zn58   Zn    0.16667   0.25000   0.19693   0.00000  Uiso   1.00
Br59   Br    0.39613   0.11492   0.27590   0.00000  Uiso   1.00
Br60   Br    0.39215   0.37398   0.20499   0.00000  Uiso   1.00
Br61   Br    0.60097   0.13035   0.21195   0.00000  Uiso   1.00
Br62   Br    0.61306   0.37811   0.28634   0.00000  Uiso   1.00
Br63   Br    0.42901   0.17285   0.12266   0.00000  Uiso   1.00
Br64   Br    0.59963   0.30010   0.38289   0.00000  Uiso   1.00
Br65   Br    0.57318   0.32506   0.14320   0.00000  Uiso   1.00
Br66   Br    0.40489   0.19513   0.35832   0.00000  Uiso   1.00
C67    C     0.50001   0.16409   0.25016   0.00000  Uiso   1.00
C68    C     0.45397   0.23712   0.44202   0.00000  Uiso   1.00
C69    C     0.49896   0.25254   0.02670   0.00000  Uiso   1.00
C70    C     0.49810   0.25230   0.47345   0.00000  Uiso   1.00
C71    C     0.40052   0.25012   0.23769   0.00000  Uiso   1.00
C72    C     0.59947   0.25093   0.26222   0.00000  Uiso   1.00
C73    C     0.34546   0.24967   0.23103   0.00000  Uiso   1.00
C74    C     0.65448   0.25375   0.26850   0.00000  Uiso   1.00
C75    C     0.46144   0.04413   0.26189   0.00000  Uiso   1.00
C76    C     0.45816   0.45170   0.22678   0.00000  Uiso   1.00
C77    C     0.45972   0.09012   0.26282   0.00000  Uiso   1.00
C78    C     0.50064   0.33577   0.24966   0.00000  Uiso   1.00
C79    C     0.45667   0.40551   0.22871   0.00000  Uiso   1.00
C80    C     0.50189   0.11623   0.25006   0.00000  Uiso   1.00
C81    C     0.50186   0.38345   0.24830   0.00000  Uiso   1.00
C82    C     0.54442   0.09613   0.23384   0.00000  Uiso   1.00
C83    C     0.54885   0.40723   0.26427   0.00000  Uiso   1.00
C84    C     0.54534   0.04991   0.23231   0.00000  Uiso   1.00
C85    C     0.54967   0.45348   0.26283   0.00000  Uiso   1.00
C86    C     0.50393   0.02398   0.24646   0.00000  Uiso   1.00
C87    C     0.50421   0.47569   0.24472   0.00000  Uiso   1.00
C88    C     0.47549   0.21685   0.04957   0.00000  Uiso   1.00
C89    C     0.54258   0.26622   0.45316   0.00000  Uiso   1.00
C90    C     0.47313   0.21759   0.09822   0.00000  Uiso   1.00
C91    C     0.54148   0.26833   0.40396   0.00000  Uiso   1.00
C92    C     0.52708   0.28351   0.10544   0.00000  Uiso   1.00
C93    C     0.45778   0.23223   0.39348   0.00000  Uiso   1.00
C94    C     0.52364   0.28729   0.05571   0.00000  Uiso   1.00
Cl95   Cl    0.54642   0.33760   0.03097   0.00000  Uiso   1.00
Cl96   Cl    0.39216   0.22748   0.46150   0.00000  Uiso   1.00
H97    H     0.65838   0.24496   0.19544   0.00000  Uiso   1.00
H98    H     0.34147   0.25943   0.30386   0.00000  Uiso   1.00
H99    H     0.42910   0.02409   0.27251   0.00000  Uiso   1.00
H100   H     0.42327   0.46888   0.21172   0.00000  Uiso   1.00
H101   H     0.57773   0.03430   0.21933   0.00000  Uiso   1.00
H102   H     0.58541   0.47203   0.27648   0.00000  Uiso   1.00
H103   H     0.45759   0.18852   0.02961   0.00000  Uiso   1.00
H104   H     0.57828   0.27685   0.47537   0.00000  Uiso   1.00
N105   N     0.50000   0.24999   0.12624   0.00000  Uiso   1.00
N106   N     0.50000   0.25001   0.37377   0.00000  Uiso   1.00
O107   O     0.50000   0.18454   0.28974   0.00000  Uiso   1.00
O108   O     0.50000   0.31547   0.21026   0.00000  Uiso   1.00
O109   O     0.50000   0.18453   0.21026   0.00000  Uiso   1.00
O110   O     0.50000   0.31547   0.28974   0.00000  Uiso   1.00
O111   O     0.42392   0.25000   0.28045   0.00000  Uiso   1.00
O112   O     0.57608   0.25000   0.21956   0.00000  Uiso   1.00
O113   O     0.42392   0.25000   0.20097   0.00000  Uiso   1.00
O114   O     0.57608   0.25001   0.29904   0.00000  Uiso   1.00
Zn115  Zn    0.50000   0.25001   0.30307   0.00000  Uiso   1.00
Zn116  Zn    0.50000   0.25000   0.19693   0.00000  Uiso   1.00
Br117  Br    0.72946   0.11492   0.27590   0.00000  Uiso   1.00
Br118  Br    0.72548   0.37398   0.20499   0.00000  Uiso   1.00
Br119  Br    0.93430   0.13035   0.21195   0.00000  Uiso   1.00
Br120  Br    0.94639   0.37811   0.28634   0.00000  Uiso   1.00
Br121  Br    0.76235   0.17285   0.12266   0.00000  Uiso   1.00
Br122  Br    0.93296   0.30010   0.38289   0.00000  Uiso   1.00
Br123  Br    0.90651   0.32506   0.14320   0.00000  Uiso   1.00
Br124  Br    0.73823   0.19513   0.35832   0.00000  Uiso   1.00
C125   C     0.83334   0.16409   0.25016   0.00000  Uiso   1.00
C126   C     0.78731   0.23712   0.44202   0.00000  Uiso   1.00
C127   C     0.83229   0.25254   0.02670   0.00000  Uiso   1.00
C128   C     0.83143   0.25230   0.47345   0.00000  Uiso   1.00
C129   C     0.73386   0.25012   0.23769   0.00000  Uiso   1.00
C130   C     0.93280   0.25093   0.26222   0.00000  Uiso   1.00
C131   C     0.67879   0.24967   0.23103   0.00000  Uiso   1.00
C132   C     0.98781   0.25375   0.26850   0.00000  Uiso   1.00
C133   C     0.79478   0.04413   0.26189   0.00000  Uiso   1.00
C134   C     0.79150   0.45170   0.22678   0.00000  Uiso   1.00
C135   C     0.79305   0.09012   0.26282   0.00000  Uiso   1.00
C136   C     0.83397   0.33577   0.24966   0.00000  Uiso   1.00
C137   C     0.79001   0.40551   0.22871   0.00000  Uiso   1.00
C138   C     0.83523   0.11623   0.25006   0.00000  Uiso   1.00
C139   C     0.83519   0.38345   0.24830   0.00000  Uiso   1.00
C140   C     0.87775   0.09613   0.23384   0.00000  Uiso   1.00
C141   C     0.88218   0.40723   0.26427   0.00000  Uiso   1.00
C142   C     0.87867   0.04991   0.23231   0.00000  Uiso   1.00
C143   C     0.88300   0.45348   0.26283   0.00000  Uiso   1.00
C144   C     0.83726   0.02398   0.24646   0.00000  Uiso   1.00
C145   C     0.83755   0.47569   0.24472   0.00000  Uiso   1.00
C146   C     0.80882   0.21685   0.04957   0.00000  Uiso   1.00
C147   C     0.87592   0.26622   0.45316   0.00000  Uiso   1.00
C148   C     0.80647   0.21759   0.09822   0.00000  Uiso   1.00
C149   C     0.87481   0.26833   0.40396   0.00000  Uiso   1.00
C150   C     0.86042   0.28351   0.10544   0.00000  Uiso   1.00
C151   C     0.79111   0.23223   0.39348   0.00000  Uiso   1.00
C152   C     0.85697   0.28729   0.05571   0.00000  Uiso   1.00
Cl153  Cl    0.87975   0.33760   0.03097   0.00000  Uiso   1.00
Cl154  Cl    0.72549   0.22748   0.46150   0.00000  Uiso   1.00
H155   H     0.99171   0.24496   0.19544   0.00000  Uiso   1.00
H156   H     0.67481   0.25943   0.30386   0.00000  Uiso   1.00
H157   H     0.76243   0.02409   0.27251   0.00000  Uiso   1.00
H158   H     0.75660   0.46888   0.21172   0.00000  Uiso   1.00
H159   H     0.91106   0.03430   0.21933   0.00000  Uiso   1.00
H160   H     0.91874   0.47203   0.27648   0.00000  Uiso   1.00
H161   H     0.79093   0.18852   0.02961   0.00000  Uiso   1.00
H162   H     0.91162   0.27685   0.47537   0.00000  Uiso   1.00
N163   N     0.83333   0.24999   0.12624   0.00000  Uiso   1.00
N164   N     0.83333   0.25001   0.37377   0.00000  Uiso   1.00
O165   O     0.83334   0.18454   0.28974   0.00000  Uiso   1.00
O166   O     0.83333   0.31547   0.21026   0.00000  Uiso   1.00
O167   O     0.83334   0.18453   0.21026   0.00000  Uiso   1.00
O168   O     0.83333   0.31547   0.28974   0.00000  Uiso   1.00
O169   O     0.75725   0.25000   0.28045   0.00000  Uiso   1.00
O170   O     0.90942   0.25000   0.21956   0.00000  Uiso   1.00
O171   O     0.75725   0.25000   0.20097   0.00000  Uiso   1.00
O172   O     0.90942   0.25001   0.29904   0.00000  Uiso   1.00
Zn173  Zn    0.83333   0.25001   0.30307   0.00000  Uiso   1.00
Zn174  Zn    0.83333   0.25000   0.19693   0.00000  Uiso   1.00
Br175  Br    0.06280   0.61492   0.27590   0.00000  Uiso   1.00
Br176  Br    0.05881   0.87398   0.20499   0.00000  Uiso   1.00
Br177  Br    0.26763   0.63035   0.21195   0.00000  Uiso   1.00
Br178  Br    0.27972   0.87811   0.28634   0.00000  Uiso   1.00
Br179  Br    0.09568   0.67285   0.12266   0.00000  Uiso   1.00
Br180  Br    0.26629   0.80010   0.38289   0.00000  Uiso   1.00
Br181  Br    0.23984   0.82506   0.14320   0.00000  Uiso   1.00
Br182  Br    0.07156   0.69513   0.35832   0.00000  Uiso   1.00
C183   C     0.16667   0.66409   0.25016   0.00000  Uiso   1.00
C184   C     0.12064   0.73712   0.44202   0.00000  Uiso   1.00
C185   C     0.16563   0.75254   0.02670   0.00000  Uiso   1.00
C186   C     0.16477   0.75230   0.47345   0.00000  Uiso   1.00
C187   C     0.06719   0.75012   0.23769   0.00000  Uiso   1.00
C188   C     0.26613   0.75093   0.26222   0.00000  Uiso   1.00
C189   C     0.01213   0.74967   0.23103   0.00000  Uiso   1.00
C190   C     0.32115   0.75375   0.26850   0.00000  Uiso   1.00
C191   C     0.12811   0.54413   0.26189   0.00000  Uiso   1.00
C192   C     0.12483   0.95170   0.22678   0.00000  Uiso   1.00
C193   C     0.12638   0.59012   0.26282   0.00000  Uiso   1.00
C194   C     0.16731   0.83577   0.24966   0.00000  Uiso   1.00
C195   C     0.12334   0.90551   0.22871   0.00000  Uiso   1.00
C196   C     0.16856   0.61623   0.25006   0.00000  Uiso   1.00
C197   C     0.16853   0.88345   0.24830   0.00000  Uiso   1.00
C198   C     0.21109   0.59613   0.23384   0.00000  Uiso   1.00
C199   C     0.21552   0.90723   0.26427   0.00000  Uiso   1.00
C200   C     0.21200   0.54991   0.23231   0.00000  Uiso   1.00
C201   C     0.21634   0.95348   0.26283   0.00000  Uiso   1.00
C202   C     0.17060   0.52398   0.24646   0.00000  Uiso   1.00
C203   C     0.17088   0.97569   0.24472   0.00000  Uiso   1.00
C204   C     0.14215   0.71685   0.04957   0.00000  Uiso   1.00
C205   C     0.20925   0.76622   0.45316   0.00000  Uiso   1.00
C206   C     0.13980   0.71759   0.09822   0.00000  Uiso   1.00
C207   C     0.20814   0.76833   0.40396   0.00000  Uiso   1.00
C208   C     0.19375   0.78351   0.10544   0.00000  Uiso   1.00
C209   C     0.12445   0.73223   0.39348   0.00000  Uiso   1.00
C210   C     0.19030   0.78729   0.05571   0.00000  Uiso   1.00
Cl211  Cl    0.21308   0.83760   0.03097   0.00000  Uiso   1.00
Cl212  Cl    0.05883   0.72748   0.46150   0.00000  Uiso   1.00
H213   H     0.32504   0.74496   0.19544   0.00000  Uiso   1.00
H214   H     0.00814   0.75943   0.30386   0.00000  Uiso   1.00
H215   H     0.09577   0.52409   0.27251   0.00000  Uiso   1.00
H216   H     0.08993   0.96888   0.21172   0.00000  Uiso   1.00
H217   H     0.24440   0.53430   0.21933   0.00000  Uiso   1.00
H218   H     0.25208   0.97203   0.27648   0.00000  Uiso   1.00
H219   H     0.12426   0.68852   0.02961   0.00000  Uiso   1.00
H220   H     0.24495   0.77685   0.47537   0.00000  Uiso   1.00
N221   N     0.16667   0.74999   0.12624   0.00000  Uiso   1.00
N222   N     0.16667   0.75001   0.37377   0.00000  Uiso   1.00
O223   O     0.16667   0.68454   0.28974   0.00000  Uiso   1.00
O224   O     0.16666   0.81547   0.21026   0.00000  Uiso   1.00
O225   O     0.16667   0.68453   0.21026   0.00000  Uiso   1.00
O226   O     0.16666   0.81547   0.28974   0.00000  Uiso   1.00
O227   O     0.09058   0.75000   0.28045   0.00000  Uiso   1.00
O228   O     0.24275   0.75000   0.21956   0.00000  Uiso   1.00
O229   O     0.09058   0.75000   0.20097   0.00000  Uiso   1.00
O230   O     0.24275   0.75001   0.29904   0.00000  Uiso   1.00
Zn231  Zn    0.16667   0.75001   0.30307   0.00000  Uiso   1.00
Zn232  Zn    0.16667   0.75000   0.19693   0.00000  Uiso   1.00
Br233  Br    0.39613   0.61492   0.27590   0.00000  Uiso   1.00
Br234  Br    0.39215   0.87398   0.20499   0.00000  Uiso   1.00
Br235  Br    0.60097   0.63035   0.21195   0.00000  Uiso   1.00
Br236  Br    0.61306   0.87811   0.28634   0.00000  Uiso   1.00
Br237  Br    0.42901   0.67285   0.12266   0.00000  Uiso   1.00
Br238  Br    0.59963   0.80010   0.38289   0.00000  Uiso   1.00
Br239  Br    0.57318   0.82506   0.14320   0.00000  Uiso   1.00
Br240  Br    0.40489   0.69513   0.35832   0.00000  Uiso   1.00
C241   C     0.50001   0.66409   0.25016   0.00000  Uiso   1.00
C242   C     0.45397   0.73712   0.44202   0.00000  Uiso   1.00
C243   C     0.49896   0.75254   0.02670   0.00000  Uiso   1.00
C244   C     0.49810   0.75230   0.47345   0.00000  Uiso   1.00
C245   C     0.40052   0.75012   0.23769   0.00000  Uiso   1.00
C246   C     0.59947   0.75093   0.26222   0.00000  Uiso   1.00
C247   C     0.34546   0.74967   0.23103   0.00000  Uiso   1.00
C248   C     0.65448   0.75375   0.26850   0.00000  Uiso   1.00
C249   C     0.46144   0.54413   0.26189   0.00000  Uiso   1.00
C250   C     0.45816   0.95170   0.22678   0.00000  Uiso   1.00
C251   C     0.45972   0.59012   0.26282   0.00000  Uiso   1.00
C252   C     0.50064   0.83577   0.24966   0.00000  Uiso   1.00
C253   C     0.45667   0.90551   0.22871   0.00000  Uiso   1.00
C254   C     0.50189   0.61623   0.25006   0.00000  Uiso   1.00
C255   C     0.50186   0.88345   0.24830   0.00000  Uiso   1.00
C256   C     0.54442   0.59613   0.23384   0.00000  Uiso   1.00
C257   C     0.54885   0.90723   0.26427   0.00000  Uiso   1.00
C258   C     0.54534   0.54991   0.23231   0.00000  Uiso   1.00
C259   C     0.54967   0.95348   0.26283   0.00000  Uiso   1.00
C260   C     0.50393   0.52398   0.24646   0.00000  Uiso   1.00
C261   C     0.50421   0.97569   0.24472   0.00000  Uiso   1.00
C262   C     0.47549   0.71685   0.04957   0.00000  Uiso   1.00
C263   C     0.54258   0.76622   0.45316   0.00000  Uiso   1.00
C264   C     0.47313   0.71759   0.09822   0.00000  Uiso   1.00
C265   C     0.54148   0.76833   0.40396   0.00000  Uiso   1.00
C266   C     0.52708   0.78351   0.10544   0.00000  Uiso   1.00
C267   C     0.45778   0.73223   0.39348   0.00000  Uiso   1.00
C268   C     0.52364   0.78729   0.05571   0.00000  Uiso   1.00
Cl269  Cl    0.54642   0.83760   0.03097   0.00000  Uiso   1.00
Cl270  Cl    0.39216   0.72748   0.46150   0.00000  Uiso   1.00
H271   H     0.65838   0.74496   0.19544   0.00000  Uiso   1.00
H272   H     0.34147   0.75943   0.30386   0.00000  Uiso   1.00
H273   H     0.42910   0.52409   0.27251   0.00000  Uiso   1.00
H274   H     0.42327   0.96888   0.21172   0.00000  Uiso   1.00
H275   H     0.57773   0.53430   0.21933   0.00000  Uiso   1.00
H276   H     0.58541   0.97203   0.27648   0.00000  Uiso   1.00
H277   H     0.45759   0.68852   0.02961   0.00000  Uiso   1.00
H278   H     0.57828   0.77685   0.47537   0.00000  Uiso   1.00
N279   N     0.50000   0.74999   0.12624   0.00000  Uiso   1.00
N280   N     0.50000   0.75001   0.37377   0.00000  Uiso   1.00
O281   O     0.50000   0.68454   0.28974   0.00000  Uiso   1.00
O282   O     0.50000   0.81547   0.21026   0.00000  Uiso   1.00
O283   O     0.50000   0.68453   0.21026   0.00000  Uiso   1.00
O284   O     0.50000   0.81547   0.28974   0.00000  Uiso   1.00
O285   O     0.42392   0.75000   0.28045   0.00000  Uiso   1.00
O286   O     0.57608   0.75000   0.21956   0.00000  Uiso   1.00
O287   O     0.42392   0.75000   0.20097   0.00000  Uiso   1.00
O288   O     0.57608   0.75001   0.29904   0.00000  Uiso   1.00
Zn289  Zn    0.50000   0.75001   0.30307   0.00000  Uiso   1.00
Zn290  Zn    0.50000   0.75000   0.19693   0.00000  Uiso   1.00
Br291  Br    0.72946   0.61492   0.27590   0.00000  Uiso   1.00
Br292  Br    0.72548   0.87398   0.20499   0.00000  Uiso   1.00
Br293  Br    0.93430   0.63035   0.21195   0.00000  Uiso   1.00
Br294  Br    0.94639   0.87811   0.28634   0.00000  Uiso   1.00
Br295  Br    0.76235   0.67285   0.12266   0.00000  Uiso   1.00
Br296  Br    0.93296   0.80010   0.38289   0.00000  Uiso   1.00
Br297  Br    0.90651   0.82506   0.14320   0.00000  Uiso   1.00
Br298  Br    0.73823   0.69513   0.35832   0.00000  Uiso   1.00
C299   C     0.83334   0.66409   0.25016   0.00000  Uiso   1.00
C300   C     0.78731   0.73712   0.44202   0.00000  Uiso   1.00
C301   C     0.83229   0.75254   0.02670   0.00000  Uiso   1.00
C302   C     0.83143   0.75230   0.47345   0.00000  Uiso   1.00
C303   C     0.73386   0.75012   0.23769   0.00000  Uiso   1.00
C304   C     0.93280   0.75093   0.26222   0.00000  Uiso   1.00
C305   C     0.67879   0.74967   0.23103   0.00000  Uiso   1.00
C306   C     0.98781   0.75375   0.26850   0.00000  Uiso   1.00
C307   C     0.79478   0.54413   0.26189   0.00000  Uiso   1.00
C308   C     0.79150   0.95170   0.22678   0.00000  Uiso   1.00
C309   C     0.79305   0.59012   0.26282   0.00000  Uiso   1.00
C310   C     0.83397   0.83577   0.24966   0.00000  Uiso   1.00
C311   C     0.79001   0.90551   0.22871   0.00000  Uiso   1.00
C312   C     0.83523   0.61623   0.25006   0.00000  Uiso   1.00
C313   C     0.83519   0.88345   0.24830   0.00000  Uiso   1.00
C314   C     0.87775   0.59613   0.23384   0.00000  Uiso   1.00
C315   C     0.88218   0.90723   0.26427   0.00000  Uiso   1.00
C316   C     0.87867   0.54991   0.23231   0.00000  Uiso   1.00
C317   C     0.88300   0.95348   0.26283   0.00000  Uiso   1.00
C318   C     0.83726   0.52398   0.24646   0.00000  Uiso   1.00
C319   C     0.83755   0.97569   0.24472   0.00000  Uiso   1.00
C320   C     0.80882   0.71685   0.04957   0.00000  Uiso   1.00
C321   C     0.87592   0.76622   0.45316   0.00000  Uiso   1.00
C322   C     0.80647   0.71759   0.09822   0.00000  Uiso   1.00
C323   C     0.87481   0.76833   0.40396   0.00000  Uiso   1.00
C324   C     0.86042   0.78351   0.10544   0.00000  Uiso   1.00
C325   C     0.79111   0.73223   0.39348   0.00000  Uiso   1.00
C326   C     0.85697   0.78729   0.05571   0.00000  Uiso   1.00
Cl327  Cl    0.87975   0.83760   0.03097   0.00000  Uiso   1.00
Cl328  Cl    0.72549   0.72748   0.46150   0.00000  Uiso   1.00
H329   H     0.99171   0.74496   0.19544   0.00000  Uiso   1.00
H330   H     0.67481   0.75943   0.30386   0.00000  Uiso   1.00
H331   H     0.76243   0.52409   0.27251   0.00000  Uiso   1.00
H332   H     0.75660   0.96888   0.21172   0.00000  Uiso   1.00
H333   H     0.91106   0.53430   0.21933   0.00000  Uiso   1.00
H334   H     0.91874   0.97203   0.27648   0.00000  Uiso   1.00
H335   H     0.79093   0.68852   0.02961   0.00000  Uiso   1.00
H336   H     0.91162   0.77685   0.47537   0.00000  Uiso   1.00
N337   N     0.83333   0.74999   0.12624   0.00000  Uiso   1.00
N338   N     0.83333   0.75001   0.37377   0.00000  Uiso   1.00
O339   O     0.83334   0.68454   0.28974   0.00000  Uiso   1.00
O340   O     0.83333   0.81547   0.21026   0.00000  Uiso   1.00
O341   O     0.83334   0.68453   0.21026   0.00000  Uiso   1.00
O342   O     0.83333   0.81547   0.28974   0.00000  Uiso   1.00
O343   O     0.75725   0.75000   0.28045   0.00000  Uiso   1.00
O344   O     0.90942   0.75000   0.21956   0.00000  Uiso   1.00
O345   O     0.75725   0.75000   0.20097   0.00000  Uiso   1.00
O346   O     0.90942   0.75001   0.29904   0.00000  Uiso   1.00
Zn347  Zn    0.83333   0.75001   0.30307   0.00000  Uiso   1.00
Zn348  Zn    0.83333   0.75000   0.19693   0.00000  Uiso   1.00
Br349  Br    0.06280   0.11492   0.77590   0.00000  Uiso   1.00
Br350  Br    0.05881   0.37398   0.70499   0.00000  Uiso   1.00
Br351  Br    0.26763   0.13035   0.71195   0.00000  Uiso   1.00
Br352  Br    0.27972   0.37811   0.78634   0.00000  Uiso   1.00
Br353  Br    0.09568   0.17285   0.62266   0.00000  Uiso   1.00
Br354  Br    0.26629   0.30010   0.88289   0.00000  Uiso   1.00
Br355  Br    0.23984   0.32506   0.64320   0.00000  Uiso   1.00
Br356  Br    0.07156   0.19513   0.85832   0.00000  Uiso   1.00
C357   C     0.16667   0.16409   0.75016   0.00000  Uiso   1.00
C358   C     0.12064   0.23712   0.94202   0.00000  Uiso   1.00
C359   C     0.16563   0.25254   0.52670   0.00000  Uiso   1.00
C360   C     0.16477   0.25230   0.97345   0.00000  Uiso   1.00
C361   C     0.06719   0.25012   0.73769   0.00000  Uiso   1.00
C362   C     0.26613   0.25093   0.76222   0.00000  Uiso   1.00
C363   C     0.01213   0.24967   0.73103   0.00000  Uiso   1.00
C364   C     0.32115   0.25375   0.76850   0.00000  Uiso   1.00
C365   C     0.12811   0.04413   0.76189   0.00000  Uiso   1.00
C366   C     0.12483   0.45170   0.72678   0.00000  Uiso   1.00
C367   C     0.12638   0.09012   0.76282   0.00000  Uiso   1.00
C368   C     0.16731   0.33577   0.74966   0.00000  Uiso   1.00
C369   C     0.12334   0.40551   0.72871   0.00000  Uiso   1.00
C370   C     0.16856   0.11623   0.75006   0.00000  Uiso   1.00
C371   C     0.16853   0.38345   0.74830   0.00000  Uiso   1.00
C372   C     0.21109   0.09613   0.73384   0.00000  Uiso   1.00
C373   C     0.21552   0.40723   0.76427   0.00000  Uiso   1.00
C374   C     0.21200   0.04991   0.73231   0.00000  Uiso   1.00
C375   C     0.21634   0.45348   0.76283   0.00000  Uiso   1.00
C376   C     0.17060   0.02398   0.74646   0.00000  Uiso   1.00
C377   C     0.17088   0.47569   0.74472   0.00000  Uiso   1.00
C378   C     0.14215   0.21685   0.54957   0.00000  Uiso   1.00
C379   C     0.20925   0.26622   0.95316   0.00000  Uiso   1.00
C380   C     0.13980   0.21759   0.59822   0.00000  Uiso   1.00
C381   C     0.20814   0.26833   0.90396   0.00000  Uiso   1.00
C382   C     0.19375   0.28351   0.60544   0.00000  Uiso   1.00
C383   C     0.12445   0.23223   0.89348   0.00000  Uiso   1.00
C384   C     0.19030   0.28729   0.55571   0.00000  Uiso   1.00
Cl385  Cl    0.21308   0.33760   0.53097   0.00000  Uiso   1.00
Cl386  Cl    0.05883   0.22748   0.96150   0.00000  Uiso   1.00
H387   H     0.32504   0.24496   0.69544   0.00000  Uiso   1.00
H388   H     0.00814   0.25943   0.80386   0.00000  Uiso   1.00
H389   H     0.09577   0.02409   0.77251   0.00000  Uiso   1.00
H390   H     0.08993   0.46888   0.71172   0.00000  Uiso   1.00
H391   H     0.24440   0.03430   0.71933   0.00000  Uiso   1.00
H392   H     0.25208   0.47203   0.77648   0.00000  Uiso   1.00
H393   H     0.12426   0.18852   0.52961   0.00000  Uiso   1.00
H394   H     0.24495   0.27685   0.97537   0.00000  Uiso   1.00
N395   N     0.16667   0.24999   0.62624   0.00000  Uiso   1.00
N396   N     0.16667   0.25001   0.87377   0.00000  Uiso   1.00
O397   O     0.16667   0.18454   0.78974   0.00000  Uiso   1.00
O398   O     0.16666   0.31547   0.71026   0.00000  Uiso   1.00
O399   O     0.16667   0.18453   0.71026   0.00000  Uiso   1.00
O400   O     0.16666   0.31547   0.78974   0.00000  Uiso   1.00
O401   O     0.09058   0.25000   0.78045   0.00000  Uiso   1.00
O402   O     0.24275   0.25000   0.71956   0.00000  Uiso   1.00
O403   O     0.09058   0.25000   0.70097   0.00000  Uiso   1.00
O404   O     0.24275   0.25001   0.79904   0.00000  Uiso   1.00
Zn405  Zn    0.16667   0.25001   0.80307   0.00000  Uiso   1.00
Zn406  Zn    0.16667   0.25000   0.69693   0.00000  Uiso   1.00
Br407  Br    0.39613   0.11492   0.77590   0.00000  Uiso   1.00
Br408  Br    0.39215   0.37398   0.70499   0.00000  Uiso   1.00
Br409  Br    0.60097   0.13035   0.71195   0.00000  Uiso   1.00
Br410  Br    0.61306   0.37811   0.78634   0.00000  Uiso   1.00
Br411  Br    0.42901   0.17285   0.62266   0.00000  Uiso   1.00
Br412  Br    0.59963   0.30010   0.88289   0.00000  Uiso   1.00
Br413  Br    0.57318   0.32506   0.64320   0.00000  Uiso   1.00
Br414  Br    0.40489   0.19513   0.85832   0.00000  Uiso   1.00
C415   C     0.50001   0.16409   0.75016   0.00000  Uiso   1.00
C416   C     0.45397   0.23712   0.94202   0.00000  Uiso   1.00
C417   C     0.49896   0.25254   0.52670   0.00000  Uiso   1.00
C418   C     0.49810   0.25230   0.97345   0.00000  Uiso   1.00
C419   C     0.40052   0.25012   0.73769   0.00000  Uiso   1.00
C420   C     0.59947   0.25093   0.76222   0.00000  Uiso   1.00
C421   C     0.34546   0.24967   0.73103   0.00000  Uiso   1.00
C422   C     0.65448   0.25375   0.76850   0.00000  Uiso   1.00
C423   C     0.46144   0.04413   0.76189   0.00000  Uiso   1.00
C424   C     0.45816   0.45170   0.72678   0.00000  Uiso   1.00
C425   C     0.45972   0.09012   0.76282   0.00000  Uiso   1.00
C426   C     0.50064   0.33577   0.74966   0.00000  Uiso   1.00
C427   C     0.45667   0.40551   0.72871   0.00000  Uiso   1.00
C428   C     0.50189   0.11623   0.75006   0.00000  Uiso   1.00
C429   C     0.50186   0.38345   0.74830   0.00000  Uiso   1.00
C430   C     0.54442   0.09613   0.73384   0.00000  Uiso   1.00
C431   C     0.54885   0.40723   0.76427   0.00000  Uiso   1.00
C432   C     0.54534   0.04991   0.73231   0.00000  Uiso   1.00
C433   C     0.54967   0.45348   0.76283   0.00000  Uiso   1.00
C434   C     0.50393   0.02398   0.74646   0.00000  Uiso   1.00
C435   C     0.50421   0.47569   0.74472   0.00000  Uiso   1.00
C436   C     0.47549   0.21685   0.54957   0.00000  Uiso   1.00
C437   C     0.54258   0.26622   0.95316   0.00000  Uiso   1.00
C438   C     0.47313   0.21759   0.59822   0.00000  Uiso   1.00
C439   C     0.54148   0.26833   0.90396   0.00000  Uiso   1.00
C440   C     0.52708   0.28351   0.60544   0.00000  Uiso   1.00
C441   C     0.45778   0.23223   0.89348   0.00000  Uiso   1.00
C442   C     0.52364   0.28729   0.55571   0.00000  Uiso   1.00
Cl443  Cl    0.54642   0.33760   0.53097   0.00000  Uiso   1.00
Cl444  Cl    0.39216   0.22748   0.96150   0.00000  Uiso   1.00
H445   H     0.65838   0.24496   0.69544   0.00000  Uiso   1.00
H446   H     0.34147   0.25943   0.80386   0.00000  Uiso   1.00
H447   H     0.42910   0.02409   0.77251   0.00000  Uiso   1.00
H448   H     0.42327   0.46888   0.71172   0.00000  Uiso   1.00
H449   H     0.57773   0.03430   0.71933   0.00000  Uiso   1.00
H450   H     0.58541   0.47203   0.77648   0.00000  Uiso   1.00
H451   H     0.45759   0.18852   0.52961   0.00000  Uiso   1.00
H452   H     0.57828   0.27685   0.97537   0.00000  Uiso   1.00
N453   N     0.50000   0.24999   0.62624   0.00000  Uiso   1.00
N454   N     0.50000   0.25001   0.87377   0.00000  Uiso   1.00
O455   O     0.50000   0.18454   0.78974   0.00000  Uiso   1.00
O456   O     0.50000   0.31547   0.71026   0.00000  Uiso   1.00
O457   O     0.50000   0.18453   0.71026   0.00000  Uiso   1.00
O458   O     0.50000   0.31547   0.78974   0.00000  Uiso   1.00
O459   O     0.42392   0.25000   0.78045   0.00000  Uiso   1.00
O460   O     0.57608   0.25000   0.71956   0.00000  Uiso   1.00
O461   O     0.42392   0.25000   0.70097   0.00000  Uiso   1.00
O462   O     0.57608   0.25001   0.79904   0.00000  Uiso   1.00
Zn463  Zn    0.50000   0.25001   0.80307   0.00000  Uiso   1.00
Zn464  Zn    0.50000   0.25000   0.69693   0.00000  Uiso   1.00
Br465  Br    0.72946   0.11492   0.77590   0.00000  Uiso   1.00
Br466  Br    0.72548   0.37398   0.70499   0.00000  Uiso   1.00
Br467  Br    0.93430   0.13035   0.71195   0.00000  Uiso   1.00
Br468  Br    0.94639   0.37811   0.78634   0.00000  Uiso   1.00
Br469  Br    0.76235   0.17285   0.62266   0.00000  Uiso   1.00
Br470  Br    0.93296   0.30010   0.88289   0.00000  Uiso   1.00
Br471  Br    0.90651   0.32506   0.64320   0.00000  Uiso   1.00
Br472  Br    0.73823   0.19513   0.85832   0.00000  Uiso   1.00
C473   C     0.83334   0.16409   0.75016   0.00000  Uiso   1.00
C474   C     0.78731   0.23712   0.94202   0.00000  Uiso   1.00
C475   C     0.83229   0.25254   0.52670   0.00000  Uiso   1.00
C476   C     0.83143   0.25230   0.97345   0.00000  Uiso   1.00
C477   C     0.73386   0.25012   0.73769   0.00000  Uiso   1.00
C478   C     0.93280   0.25093   0.76222   0.00000  Uiso   1.00
C479   C     0.67879   0.24967   0.73103   0.00000  Uiso   1.00
C480   C     0.98781   0.25375   0.76850   0.00000  Uiso   1.00
C481   C     0.79478   0.04413   0.76189   0.00000  Uiso   1.00
C482   C     0.79150   0.45170   0.72678   0.00000  Uiso   1.00
C483   C     0.79305   0.09012   0.76282   0.00000  Uiso   1.00
C484   C     0.83397   0.33577   0.74966   0.00000  Uiso   1.00
C485   C     0.79001   0.40551   0.72871   0.00000  Uiso   1.00
C486   C     0.83523   0.11623   0.75006   0.00000  Uiso   1.00
C487   C     0.83519   0.38345   0.74830   0.00000  Uiso   1.00
C488   C     0.87775   0.09613   0.73384   0.00000  Uiso   1.00
C489   C     0.88218   0.40723   0.76427   0.00000  Uiso   1.00
C490   C     0.87867   0.04991   0.73231   0.00000  Uiso   1.00
C491   C     0.88300   0.45348   0.76283   0.00000  Uiso   1.00
C492   C     0.83726   0.02398   0.74646   0.00000  Uiso   1.00
C493   C     0.83755   0.47569   0.74472   0.00000  Uiso   1.00
C494   C     0.80882   0.21685   0.54957   0.00000  Uiso   1.00
C495   C     0.87592   0.26622   0.95316   0.00000  Uiso   1.00
C496   C     0.80647   0.21759   0.59822   0.00000  Uiso   1.00
C497   C     0.87481   0.26833   0.90396   0.00000  Uiso   1.00
C498   C     0.86042   0.28351   0.60544   0.00000  Uiso   1.00
C499   C     0.79111   0.23223   0.89348   0.00000  Uiso   1.00
C500   C     0.85697   0.28729   0.55571   0.00000  Uiso   1.00
Cl501  Cl    0.87975   0.33760   0.53097   0.00000  Uiso   1.00
Cl502  Cl    0.72549   0.22748   0.96150   0.00000  Uiso   1.00
H503   H     0.99171   0.24496   0.69544   0.00000  Uiso   1.00
H504   H     0.67481   0.25943   0.80386   0.00000  Uiso   1.00
H505   H     0.76243   0.02409   0.77251   0.00000  Uiso   1.00
H506   H     0.75660   0.46888   0.71172   0.00000  Uiso   1.00
H507   H     0.91106   0.03430   0.71933   0.00000  Uiso   1.00
H508   H     0.91874   0.47203   0.77648   0.00000  Uiso   1.00
H509   H     0.79093   0.18852   0.52961   0.00000  Uiso   1.00
H510   H     0.91162   0.27685   0.97537   0.00000  Uiso   1.00
N511   N     0.83333   0.24999   0.62624   0.00000  Uiso   1.00
N512   N     0.83333   0.25001   0.87377   0.00000  Uiso   1.00
O513   O     0.83334   0.18454   0.78974   0.00000  Uiso   1.00
O514   O     0.83333   0.31547   0.71026   0.00000  Uiso   1.00
O515   O     0.83334   0.18453   0.71026   0.00000  Uiso   1.00
O516   O     0.83333   0.31547   0.78974   0.00000  Uiso   1.00
O517   O     0.75725   0.25000   0.78045   0.00000  Uiso   1.00
O518   O     0.90942   0.25000   0.71956   0.00000  Uiso   1.00
O519   O     0.75725   0.25000   0.70097   0.00000  Uiso   1.00
O520   O     0.90942   0.25001   0.79904   0.00000  Uiso   1.00
Zn521  Zn    0.83333   0.25001   0.80307   0.00000  Uiso   1.00
Zn522  Zn    0.83333   0.25000   0.69693   0.00000  Uiso   1.00
Br523  Br    0.06280   0.61492   0.77590   0.00000  Uiso   1.00
Br524  Br    0.05881   0.87398   0.70499   0.00000  Uiso   1.00
Br525  Br    0.26763   0.63035   0.71195   0.00000  Uiso   1.00
Br526  Br    0.27972   0.87811   0.78634   0.00000  Uiso   1.00
Br527  Br    0.09568   0.67285   0.62266   0.00000  Uiso   1.00
Br528  Br    0.26629   0.80010   0.88289   0.00000  Uiso   1.00
Br529  Br    0.23984   0.82506   0.64320   0.00000  Uiso   1.00
Br530  Br    0.07156   0.69513   0.85832   0.00000  Uiso   1.00
C531   C     0.16667   0.66409   0.75016   0.00000  Uiso   1.00
C532   C     0.12064   0.73712   0.94202   0.00000  Uiso   1.00
C533   C     0.16563   0.75254   0.52670   0.00000  Uiso   1.00
C534   C     0.16477   0.75230   0.97345   0.00000  Uiso   1.00
C535   C     0.06719   0.75012   0.73769   0.00000  Uiso   1.00
C536   C     0.26613   0.75093   0.76222   0.00000  Uiso   1.00
C537   C     0.01213   0.74967   0.73103   0.00000  Uiso   1.00
C538   C     0.32115   0.75375   0.76850   0.00000  Uiso   1.00
C539   C     0.12811   0.54413   0.76189   0.00000  Uiso   1.00
C540   C     0.12483   0.95170   0.72678   0.00000  Uiso   1.00
C541   C     0.12638   0.59012   0.76282   0.00000  Uiso   1.00
C542   C     0.16731   0.83577   0.74966   0.00000  Uiso   1.00
C543   C     0.12334   0.90551   0.72871   0.00000  Uiso   1.00
C544   C     0.16856   0.61623   0.75006   0.00000  Uiso   1.00
C545   C     0.16853   0.88345   0.74830   0.00000  Uiso   1.00
C546   C     0.21109   0.59613   0.73384   0.00000  Uiso   1.00
C547   C     0.21552   0.90723   0.76427   0.00000  Uiso   1.00
C548   C     0.21200   0.54991   0.73231   0.00000  Uiso   1.00
C549   C     0.21634   0.95348   0.76283   0.00000  Uiso   1.00
C550   C     0.17060   0.52398   0.74646   0.00000  Uiso   1.00
C551   C     0.17088   0.97569   0.74472   0.00000  Uiso   1.00
C552   C     0.14215   0.71685   0.54957   0.00000  Uiso   1.00
C553   C     0.20925   0.76622   0.95316   0.00000  Uiso   1.00
C554   C     0.13980   0.71759   0.59822   0.00000  Uiso   1.00
C555   C     0.20814   0.76833   0.90396   0.00000  Uiso   1.00
C556   C     0.19375   0.78351   0.60544   0.00000  Uiso   1.00
C557   C     0.12445   0.73223   0.89348   0.00000  Uiso   1.00
C558   C     0.19030   0.78729   0.55571   0.00000  Uiso   1.00
Cl559  Cl    0.21308   0.83760   0.53097   0.00000  Uiso   1.00
Cl560  Cl    0.05883   0.72748   0.96150   0.00000  Uiso   1.00
H561   H     0.32504   0.74496   0.69544   0.00000  Uiso   1.00
H562   H     0.00814   0.75943   0.80386   0.00000  Uiso   1.00
H563   H     0.09577   0.52409   0.77251   0.00000  Uiso   1.00
H564   H     0.08993   0.96888   0.71172   0.00000  Uiso   1.00
H565   H     0.24440   0.53430   0.71933   0.00000  Uiso   1.00
H566   H     0.25208   0.97203   0.77648   0.00000  Uiso   1.00
H567   H     0.12426   0.68852   0.52961   0.00000  Uiso   1.00
H568   H     0.24495   0.77685   0.97537   0.00000  Uiso   1.00
N569   N     0.16667   0.74999   0.62624   0.00000  Uiso   1.00
N570   N     0.16667   0.75001   0.87377   0.00000  Uiso   1.00
O571   O     0.16667   0.68454   0.78974   0.00000  Uiso   1.00
O572   O     0.16666   0.81547   0.71026   0.00000  Uiso   1.00
O573   O     0.16667   0.68453   0.71026   0.00000  Uiso   1.00
O574   O     0.16666   0.81547   0.78974   0.00000  Uiso   1.00
O575   O     0.09058   0.75000   0.78045   0.00000  Uiso   1.00
O576   O     0.24275   0.75000   0.71956   0.00000  Uiso   1.00
O577   O     0.09058   0.75000   0.70097   0.00000  Uiso   1.00
O578   O     0.24275   0.75001   0.79904   0.00000  Uiso   1.00
Zn579  Zn    0.16667   0.75001   0.80307   0.00000  Uiso   1.00
Zn580  Zn    0.16667   0.75000   0.69693   0.00000  Uiso   1.00
Br581  Br    0.39613   0.61492   0.77590   0.00000  Uiso   1.00
Br582  Br    0.39215   0.87398   0.70499   0.00000  Uiso   1.00
Br583  Br    0.60097   0.63035   0.71195   0.00000  Uiso   1.00
Br584  Br    0.61306   0.87811   0.78634   0.00000  Uiso   1.00
Br585  Br    0.42901   0.67285   0.62266   0.00000  Uiso   1.00
Br586  Br    0.59963   0.80010   0.88289   0.00000  Uiso   1.00
Br587  Br    0.57318   0.82506   0.64320   0.00000  Uiso   1.00
Br588  Br    0.40489   0.69513   0.85832   0.00000  Uiso   1.00
C589   C     0.50001   0.66409   0.75016   0.00000  Uiso   1.00
C590   C     0.45397   0.73712   0.94202   0.00000  Uiso   1.00
C591   C     0.49896   0.75254   0.52670   0.00000  Uiso   1.00
C592   C     0.49810   0.75230   0.97345   0.00000  Uiso   1.00
C593   C     0.40052   0.75012   0.73769   0.00000  Uiso   1.00
C594   C     0.59947   0.75093   0.76222   0.00000  Uiso   1.00
C595   C     0.34546   0.74967   0.73103   0.00000  Uiso   1.00
C596   C     0.65448   0.75375   0.76850   0.00000  Uiso   1.00
C597   C     0.46144   0.54413   0.76189   0.00000  Uiso   1.00
C598   C     0.45816   0.95170   0.72678   0.00000  Uiso   1.00
C599   C     0.45972   0.59012   0.76282   0.00000  Uiso   1.00
C600   C     0.50064   0.83577   0.74966   0.00000  Uiso   1.00
C601   C     0.45667   0.90551   0.72871   0.00000  Uiso   1.00
C602   C     0.50189   0.61623   0.75006   0.00000  Uiso   1.00
C603   C     0.50186   0.88345   0.74830   0.00000  Uiso   1.00
C604   C     0.54442   0.59613   0.73384   0.00000  Uiso   1.00
C605   C     0.54885   0.90723   0.76427   0.00000  Uiso   1.00
C606   C     0.54534   0.54991   0.73231   0.00000  Uiso   1.00
C607   C     0.54967   0.95348   0.76283   0.00000  Uiso   1.00
C608   C     0.50393   0.52398   0.74646   0.00000  Uiso   1.00
C609   C     0.50421   0.97569   0.74472   0.00000  Uiso   1.00
C610   C     0.47549   0.71685   0.54957   0.00000  Uiso   1.00
C611   C     0.54258   0.76622   0.95316   0.00000  Uiso   1.00
C612   C     0.47313   0.71759   0.59822   0.00000  Uiso   1.00
C613   C     0.54148   0.76833   0.90396   0.00000  Uiso   1.00
C614   C     0.52708   0.78351   0.60544   0.00000  Uiso   1.00
C615   C     0.45778   0.73223   0.89348   0.00000  Uiso   1.00
C616   C     0.52364   0.78729   0.55571   0.00000  Uiso   1.00
Cl617  Cl    0.54642   0.83760   0.53097   0.00000  Uiso   1.00
Cl618  Cl    0.39216   0.72748   0.96150   0.00000  Uiso   1.00
H619   H     0.65838   0.74496   0.69544   0.00000  Uiso   1.00
H620   H     0.34147   0.75943   0.80386   0.00000  Uiso   1.00
H621   H     0.42910   0.52409   0.77251   0.00000  Uiso   1.00
H622   H     0.42327   0.96888   0.71172   0.00000  Uiso   1.00
H623   H     0.57773   0.53430   0.71933   0.00000  Uiso   1.00
H624   H     0.58541   0.97203   0.77648   0.00000  Uiso   1.00
H625   H     0.45759   0.68852   0.52961   0.00000  Uiso   1.00
H626   H     0.57828   0.77685   0.97537   0.00000  Uiso   1.00
N627   N     0.50000   0.74999   0.62624   0.00000  Uiso   1.00
N628   N     0.50000   0.75001   0.87377   0.00000  Uiso   1.00
O629   O     0.50000   0.68454   0.78974   0.00000  Uiso   1.00
O630   O     0.50000   0.81547   0.71026   0.00000  Uiso   1.00
O631   O     0.50000   0.68453   0.71026   0.00000  Uiso   1.00
O632   O     0.50000   0.81547   0.78974   0.00000  Uiso   1.00
O633   O     0.42392   0.75000   0.78045   0.00000  Uiso   1.00
O634   O     0.57608   0.75000   0.71956   0.00000  Uiso   1.00
O635   O     0.42392   0.75000   0.70097   0.00000  Uiso   1.00
O636   O     0.57608   0.75001   0.79904   0.00000  Uiso   1.00
Zn637  Zn    0.50000   0.75001   0.80307   0.00000  Uiso   1.00
Zn638  Zn    0.50000   0.75000   0.69693   0.00000  Uiso   1.00
Br639  Br    0.72946   0.61492   0.77590   0.00000  Uiso   1.00
Br640  Br    0.72548   0.87398   0.70499   0.00000  Uiso   1.00
Br641  Br    0.93430   0.63035   0.71195   0.00000  Uiso   1.00
Br642  Br    0.94639   0.87811   0.78634   0.00000  Uiso   1.00
Br643  Br    0.76235   0.67285   0.62266   0.00000  Uiso   1.00
Br644  Br    0.93296   0.80010   0.88289   0.00000  Uiso   1.00
Br645  Br    0.90651   0.82506   0.64320   0.00000  Uiso   1.00
Br646  Br    0.73823   0.69513   0.85832   0.00000  Uiso   1.00
C647   C     0.83334   0.66409   0.75016   0.00000  Uiso   1.00
C648   C     0.78731   0.73712   0.94202   0.00000  Uiso   1.00
C649   C     0.83229   0.75254   0.52670   0.00000  Uiso   1.00
C650   C     0.83143   0.75230   0.97345   0.00000  Uiso   1.00
C651   C     0.73386   0.75012   0.73769   0.00000  Uiso   1.00
C652   C     0.93280   0.75093   0.76222   0.00000  Uiso   1.00
C653   C     0.67879   0.74967   0.73103   0.00000  Uiso   1.00
C654   C     0.98781   0.75375   0.76850   0.00000  Uiso   1.00
C655   C     0.79478   0.54413   0.76189   0.00000  Uiso   1.00
C656   C     0.79150   0.95170   0.72678   0.00000  Uiso   1.00
C657   C     0.79305   0.59012   0.76282   0.00000  Uiso   1.00
C658   C     0.83397   0.83577   0.74966   0.00000  Uiso   1.00
C659   C     0.79001   0.90551   0.72871   0.00000  Uiso   1.00
C660   C     0.83523   0.61623   0.75006   0.00000  Uiso   1.00
C661   C     0.83519   0.88345   0.74830   0.00000  Uiso   1.00
C662   C     0.87775   0.59613   0.73384   0.00000  Uiso   1.00
C663   C     0.88218   0.90723   0.76427   0.00000  Uiso   1.00
C664   C     0.87867   0.54991   0.73231   0.00000  Uiso   1.00
C665   C     0.88300   0.95348   0.76283   0.00000  Uiso   1.00
C666   C     0.83726   0.52398   0.74646   0.00000  Uiso   1.00
C667   C     0.83755   0.97569   0.74472   0.00000  Uiso   1.00
C668   C     0.80882   0.71685   0.54957   0.00000  Uiso   1.00
C669   C     0.87592   0.76622   0.95316   0.00000  Uiso   1.00
C670   C     0.80647   0.71759   0.59822   0.00000  Uiso   1.00
C671   C     0.87481   0.76833   0.90396   0.00000  Uiso   1.00
C672   C     0.86042   0.78351   0.60544   0.00000  Uiso   1.00
C673   C     0.79111   0.73223   0.89348   0.00000  Uiso   1.00
C674   C     0.85697   0.78729   0.55571   0.00000  Uiso   1.00
Cl675  Cl    0.87975   0.83760   0.53097   0.00000  Uiso   1.00
Cl676  Cl    0.72549   0.72748   0.96150   0.00000  Uiso   1.00
H677   H     0.99171   0.74496   0.69544   0.00000  Uiso   1.00
H678   H     0.67481   0.75943   0.80386   0.00000  Uiso   1.00
H679   H     0.76243   0.52409   0.77251   0.00000  Uiso   1.00
H680   H     0.75660   0.96888   0.71172   0.00000  Uiso   1.00
H681   H     0.91106   0.53430   0.71933   0.00000  Uiso   1.00
H682   H     0.91874   0.97203   0.77648   0.00000  Uiso   1.00
H683   H     0.79093   0.68852   0.52961   0.00000  Uiso   1.00
H684   H     0.91162   0.77685   0.97537   0.00000  Uiso   1.00
N685   N     0.83333   0.74999   0.62624   0.00000  Uiso   1.00
N686   N     0.83333   0.75001   0.87377   0.00000  Uiso   1.00
O687   O     0.83334   0.68454   0.78974   0.00000  Uiso   1.00
O688   O     0.83333   0.81547   0.71026   0.00000  Uiso   1.00
O689   O     0.83334   0.68453   0.71026   0.00000  Uiso   1.00
O690   O     0.83333   0.81547   0.78974   0.00000  Uiso   1.00
O691   O     0.75725   0.75000   0.78045   0.00000  Uiso   1.00
O692   O     0.90942   0.75000   0.71956   0.00000  Uiso   1.00
O693   O     0.75725   0.75000   0.70097   0.00000  Uiso   1.00
O694   O     0.90942   0.75001   0.79904   0.00000  Uiso   1.00
Zn695  Zn    0.83333   0.75001   0.80307   0.00000  Uiso   1.00
Zn696  Zn    0.83333   0.75000   0.69693   0.00000  Uiso   1.00
loop_
_geom_bond_atom_site_label_1
_geom_bond_atom_site_label_2
_geom_bond_distance
_geom_bond_site_symmetry_2
_ccdc_geom_bond_type
Br1    C19     1.908   .     S
Br2    C21     1.922   .     S
Br3    C24     1.921   .     S
Br4    C25     1.919   .     S
Br5    C32     1.912   .     S
Br6    C33     1.908   .     S
Br7    C34     1.922   .     S
Br8    C35     1.906   .     S
C9     O51     1.289   .     A
C9     C22     1.435   .     S
C9     O49     1.298   .     A
C10    C35     1.419   .     A
C10    Cl38    1.772   .     S
C10    C12     1.411   .     A
C11    C30     1.407   .     A
C11    C36     1.416   .     A
C11    C360    1.524   1_554 S
C12    C31     1.403   .     A
C12    C359    1.524   .     S
C13    C15     1.402   .     S
C13    O53     1.287   .     A
C13    O55     1.285   .     A
C14    O56     1.287   .     A
C14    C16     1.401   .     S
C14    O54     1.285   .     A
C15    C132    1.327   1_455 S
C15    H155    1.088   1_455 S
C16    C73     1.327   .     S
C16    H98     1.086   .     S
C17    H41     1.084   .     S
C17    C19     1.379   .     A
C17    C28     1.396   .     A
C18    C21     1.381   .     A
C18    H42     1.084   .     S
C18    C29     1.400   .     A
C19    C22     1.401   .     A
C20    C23     1.426   .     S
C20    O52     1.293   .     A
C20    O50     1.289   .     A
C21    C23     1.401   .     A
C22    C24     1.406   .     A
C23    C25     1.403   .     A
C24    C26     1.385   .     A
C25    C27     1.383   .     A
C26    H43     1.083   .     S
C26    C28     1.398   .     A
C27    H44     1.083   .     S
C27    C29     1.398   .     A
C28    C203    1.447   1_545 S
C29    C202    1.447   .     S
C30    H45     1.081   .     S
C30    C32     1.406   .     A
C31    C33     1.407   .     A
C31    H46     1.081   .     S
C32    N47     1.371   .     A
C33    N48     1.378   .     A
C34    C36     1.419   .     A
C34    N47     1.376   .     A
C35    N48     1.380   .     A
C36    Cl37    1.770   .     S
H39    C73     1.088   .     S
H40    C132    1.086   1_455 S
N47    Zn58    2.027   .     S
N48    Zn57    2.027   .     S
O49    Zn57    2.001   .     S
O50    Zn58    2.001   .     S
O51    Zn58    1.990   .     S
O52    Zn57    1.990   .     S
O53    Zn57    1.973   .     S
O54    Zn58    1.973   .     S
O55    Zn58    1.978   .     S
O56    Zn57    1.978   .     S
Br59   C77     1.908   .     S
Br60   C79     1.922   .     S
Br61   C82     1.921   .     S
Br62   C83     1.919   .     S
Br63   C90     1.912   .     S
Br64   C91     1.908   .     S
Br65   C92     1.922   .     S
Br66   C93     1.906   .     S
C67    O109    1.289   .     A
C67    C80     1.435   .     S
C67    O107    1.298   .     A
C68    C93     1.419   .     A
C68    Cl96    1.772   .     S
C68    C70     1.411   .     A
C69    C88     1.407   .     A
C69    C94     1.416   .     A
C69    C418    1.524   1_554 S
C70    C89     1.403   .     A
C70    C417    1.524   .     S
C71    C73     1.402   .     S
C71    O111    1.287   .     A
C71    O113    1.285   .     A
C72    O114    1.287   .     A
C72    C74     1.401   .     S
C72    O112    1.285   .     A
C74    C131    1.327   .     S
C74    H156    1.086   .     S
C75    H99     1.084   .     S
C75    C77     1.379   .     A
C75    C86     1.396   .     A
C76    C79     1.381   .     A
C76    H100    1.084   .     S
C76    C87     1.400   .     A
C77    C80     1.401   .     A
C78    C81     1.426   .     S
C78    O110    1.293   .     A
C78    O108    1.289   .     A
C79    C81     1.401   .     A
C80    C82     1.406   .     A
C81    C83     1.403   .     A
C82    C84     1.385   .     A
C83    C85     1.383   .     A
C84    H101    1.083   .     S
C84    C86     1.398   .     A
C85    H102    1.083   .     S
C85    C87     1.398   .     A
C86    C261    1.447   1_545 S
C87    C260    1.447   .     S
C88    H103    1.081   .     S
C88    C90     1.406   .     A
C89    C91     1.407   .     A
C89    H104    1.081   .     S
C90    N105    1.371   .     A
C91    N106    1.378   .     A
C92    C94     1.419   .     A
C92    N105    1.376   .     A
C93    N106    1.380   .     A
C94    Cl95    1.770   .     S
H97    C131    1.088   .     S
N105   Zn116   2.027   .     S
N106   Zn115   2.027   .     S
O107   Zn115   2.001   .     S
O108   Zn116   2.001   .     S
O109   Zn116   1.990   .     S
O110   Zn115   1.990   .     S
O111   Zn115   1.973   .     S
O112   Zn116   1.973   .     S
O113   Zn116   1.978   .     S
O114   Zn115   1.978   .     S
Br117  C135    1.908   .     S
Br118  C137    1.922   .     S
Br119  C140    1.921   .     S
Br120  C141    1.919   .     S
Br121  C148    1.912   .     S
Br122  C149    1.908   .     S
Br123  C150    1.922   .     S
Br124  C151    1.906   .     S
C125   O167    1.289   .     A
C125   C138    1.435   .     S
C125   O165    1.298   .     A
C126   C151    1.419   .     A
C126   Cl154   1.772   .     S
C126   C128    1.411   .     A
C127   C146    1.407   .     A
C127   C152    1.416   .     A
C127   C476    1.524   1_554 S
C128   C147    1.403   .     A
C128   C475    1.524   .     S
C129   C131    1.402   .     S
C129   O169    1.287   .     A
C129   O171    1.285   .     A
C130   O172    1.287   .     A
C130   C132    1.401   .     S
C130   O170    1.285   .     A
C132   C15     1.327   1_655 S
C132   H40     1.086   1_655 S
C133   H157    1.084   .     S
C133   C135    1.379   .     A
C133   C144    1.396   .     A
C134   C137    1.381   .     A
C134   H158    1.084   .     S
C134   C145    1.400   .     A
C135   C138    1.401   .     A
C136   C139    1.426   .     S
C136   O168    1.293   .     A
C136   O166    1.289   .     A
C137   C139    1.401   .     A
C138   C140    1.406   .     A
C139   C141    1.403   .     A
C140   C142    1.385   .     A
C141   C143    1.383   .     A
C142   H159    1.083   .     S
C142   C144    1.398   .     A
C143   H160    1.083   .     S
C143   C145    1.398   .     A
C144   C319    1.447   1_545 S
C145   C318    1.447   .     S
C146   H161    1.081   .     S
C146   C148    1.406   .     A
C147   C149    1.407   .     A
C147   H162    1.081   .     S
C148   N163    1.371   .     A
C149   N164    1.378   .     A
C150   C152    1.419   .     A
C150   N163    1.376   .     A
C151   N164    1.380   .     A
C152   Cl153   1.770   .     S
H155   C15     1.088   1_655 S
N163   Zn174   2.027   .     S
N164   Zn173   2.027   .     S
O165   Zn173   2.001   .     S
O166   Zn174   2.001   .     S
O167   Zn174   1.990   .     S
O168   Zn173   1.990   .     S
O169   Zn173   1.973   .     S
O170   Zn174   1.973   .     S
O171   Zn174   1.978   .     S
O172   Zn173   1.978   .     S
Br175  C193    1.908   .     S
Br176  C195    1.922   .     S
Br177  C198    1.921   .     S
Br178  C199    1.919   .     S
Br179  C206    1.912   .     S
Br180  C207    1.908   .     S
Br181  C208    1.922   .     S
Br182  C209    1.906   .     S
C183   O225    1.289   .     A
C183   C196    1.435   .     S
C183   O223    1.298   .     A
C184   C209    1.419   .     A
C184   Cl212   1.772   .     S
C184   C186    1.411   .     A
C185   C204    1.407   .     A
C185   C210    1.416   .     A
C185   C534    1.524   1_554 S
C186   C205    1.403   .     A
C186   C533    1.524   .     S
C187   C189    1.402   .     S
C187   O227    1.287   .     A
C187   O229    1.285   .     A
C188   O230    1.287   .     A
C188   C190    1.401   .     S
C188   O228    1.285   .     A
C189   C306    1.327   1_455 S
C189   H329    1.088   1_455 S
C190   C247    1.327   .     S
C190   H272    1.086   .     S
C191   H215    1.084   .     S
C191   C193    1.379   .     A
C191   C202    1.396   .     A
C192   C195    1.381   .     A
C192   H216    1.084   .     S
C192   C203    1.400   .     A
C193   C196    1.401   .     A
C194   C197    1.426   .     S
C194   O226    1.293   .     A
C194   O224    1.289   .     A
C195   C197    1.401   .     A
C196   C198    1.406   .     A
C197   C199    1.403   .     A
C198   C200    1.385   .     A
C199   C201    1.383   .     A
C200   H217    1.083   .     S
C200   C202    1.398   .     A
C201   H218    1.083   .     S
C201   C203    1.398   .     A
C203   C28     1.447   1_565 S
C204   H219    1.081   .     S
C204   C206    1.406   .     A
C205   C207    1.407   .     A
C205   H220    1.081   .     S
C206   N221    1.371   .     A
C207   N222    1.378   .     A
C208   C210    1.419   .     A
C208   N221    1.376   .     A
C209   N222    1.380   .     A
C210   Cl211   1.770   .     S
H213   C247    1.088   .     S
H214   C306    1.086   1_455 S
N221   Zn232   2.027   .     S
N222   Zn231   2.027   .     S
O223   Zn231   2.001   .     S
O224   Zn232   2.001   .     S
O225   Zn232   1.990   .     S
O226   Zn231   1.990   .     S
O227   Zn231   1.973   .     S
O228   Zn232   1.973   .     S
O229   Zn232   1.978   .     S
O230   Zn231   1.978   .     S
Br233  C251    1.908   .     S
Br234  C253    1.922   .     S
Br235  C256    1.921   .     S
Br236  C257    1.919   .     S
Br237  C264    1.912   .     S
Br238  C265    1.908   .     S
Br239  C266    1.922   .     S
Br240  C267    1.906   .     S
C241   O283    1.289   .     A
C241   C254    1.435   .     S
C241   O281    1.298   .     A
C242   C267    1.419   .     A
C242   Cl270   1.772   .     S
C242   C244    1.411   .     A
C243   C262    1.407   .     A
C243   C268    1.416   .     A
C243   C592    1.524   1_554 S
C244   C263    1.403   .     A
C244   C591    1.524   .     S
C245   C247    1.402   .     S
C245   O285    1.287   .     A
C245   O287    1.285   .     A
C246   O288    1.287   .     A
C246   C248    1.401   .     S
C246   O286    1.285   .     A
C248   C305    1.327   .     S
C248   H330    1.086   .     S
C249   H273    1.084   .     S
C249   C251    1.379   .     A
C249   C260    1.396   .     A
C250   C253    1.381   .     A
C250   H274    1.084   .     S
C250   C261    1.400   .     A
C251   C254    1.401   .     A
C252   C255    1.426   .     S
C252   O284    1.293   .     A
C252   O282    1.289   .     A
C253   C255    1.401   .     A
C254   C256    1.406   .     A
C255   C257    1.403   .     A
C256   C258    1.385   .     A
C257   C259    1.383   .     A
C258   H275    1.083   .     S
C258   C260    1.398   .     A
C259   H276    1.083   .     S
C259   C261    1.398   .     A
C261   C86     1.447   1_565 S
C262   H277    1.081   .     S
C262   C264    1.406   .     A
C263   C265    1.407   .     A
C263   H278    1.081   .     S
C264   N279    1.371   .     A
C265   N280    1.378   .     A
C266   C268    1.419   .     A
C266   N279    1.376   .     A
C267   N280    1.380   .     A
C268   Cl269   1.770   .     S
H271   C305    1.088   .     S
N279   Zn290   2.027   .     S
N280   Zn289   2.027   .     S
O281   Zn289   2.001   .     S
O282   Zn290   2.001   .     S
O283   Zn290   1.990   .     S
O284   Zn289   1.990   .     S
O285   Zn289   1.973   .     S
O286   Zn290   1.973   .     S
O287   Zn290   1.978   .     S
O288   Zn289   1.978   .     S
Br291  C309    1.908   .     S
Br292  C311    1.922   .     S
Br293  C314    1.921   .     S
Br294  C315    1.919   .     S
Br295  C322    1.912   .     S
Br296  C323    1.908   .     S
Br297  C324    1.922   .     S
Br298  C325    1.906   .     S
C299   O341    1.289   .     A
C299   C312    1.435   .     S
C299   O339    1.298   .     A
C300   C325    1.419   .     A
C300   Cl328   1.772   .     S
C300   C302    1.411   .     A
C301   C320    1.407   .     A
C301   C326    1.416   .     A
C301   C650    1.524   1_554 S
C302   C321    1.403   .     A
C302   C649    1.524   .     S
C303   C305    1.402   .     S
C303   O343    1.287   .     A
C303   O345    1.285   .     A
C304   O346    1.287   .     A
C304   C306    1.401   .     S
C304   O344    1.285   .     A
C306   C189    1.327   1_655 S
C306   H214    1.086   1_655 S
C307   H331    1.084   .     S
C307   C309    1.379   .     A
C307   C318    1.396   .     A
C308   C311    1.381   .     A
C308   H332    1.084   .     S
C308   C319    1.400   .     A
C309   C312    1.401   .     A
C310   C313    1.426   .     S
C310   O342    1.293   .     A
C310   O340    1.289   .     A
C311   C313    1.401   .     A
C312   C314    1.406   .     A
C313   C315    1.403   .     A
C314   C316    1.385   .     A
C315   C317    1.383   .     A
C316   H333    1.083   .     S
C316   C318    1.398   .     A
C317   H334    1.083   .     S
C317   C319    1.398   .     A
C319   C144    1.447   1_565 S
C320   H335    1.081   .     S
C320   C322    1.406   .     A
C321   C323    1.407   .     A
C321   H336    1.081   .     S
C322   N337    1.371   .     A
C323   N338    1.378   .     A
C324   C326    1.419   .     A
C324   N337    1.376   .     A
C325   N338    1.380   .     A
C326   Cl327   1.770   .     S
H329   C189    1.088   1_655 S
N337   Zn348   2.027   .     S
N338   Zn347   2.027   .     S
O339   Zn347   2.001   .     S
O340   Zn348   2.001   .     S
O341   Zn348   1.990   .     S
O342   Zn347   1.990   .     S
O343   Zn347   1.973   .     S
O344   Zn348   1.973   .     S
O345   Zn348   1.978   .     S
O346   Zn347   1.978   .     S
Br349  C367    1.908   .     S
Br350  C369    1.922   .     S
Br351  C372    1.921   .     S
Br352  C373    1.919   .     S
Br353  C380    1.912   .     S
Br354  C381    1.908   .     S
Br355  C382    1.922   .     S
Br356  C383    1.906   .     S
C357   O399    1.289   .     A
C357   C370    1.435   .     S
C357   O397    1.298   .     A
C358   C383    1.419   .     A
C358   Cl386   1.772   .     S
C358   C360    1.411   .     A
C359   C378    1.407   .     A
C359   C384    1.416   .     A
C360   C379    1.403   .     A
C360   C11     1.524   1_556 S
C361   C363    1.402   .     S
C361   O401    1.287   .     A
C361   O403    1.285   .     A
C362   O404    1.287   .     A
C362   C364    1.401   .     S
C362   O402    1.285   .     A
C363   C480    1.327   1_455 S
C363   H503    1.088   1_455 S
C364   C421    1.327   .     S
C364   H446    1.086   .     S
C365   H389    1.084   .     S
C365   C367    1.379   .     A
C365   C376    1.396   .     A
C366   C369    1.381   .     A
C366   H390    1.084   .     S
C366   C377    1.400   .     A
C367   C370    1.401   .     A
C368   C371    1.426   .     S
C368   O400    1.293   .     A
C368   O398    1.289   .     A
C369   C371    1.401   .     A
C370   C372    1.406   .     A
C371   C373    1.403   .     A
C372   C374    1.385   .     A
C373   C375    1.383   .     A
C374   H391    1.083   .     S
C374   C376    1.398   .     A
C375   H392    1.083   .     S
C375   C377    1.398   .     A
C376   C551    1.447   1_545 S
C377   C550    1.447   .     S
C378   H393    1.081   .     S
C378   C380    1.406   .     A
C379   C381    1.407   .     A
C379   H394    1.081   .     S
C380   N395    1.371   .     A
C381   N396    1.378   .     A
C382   C384    1.419   .     A
C382   N395    1.376   .     A
C383   N396    1.380   .     A
C384   Cl385   1.770   .     S
H387   C421    1.088   .     S
H388   C480    1.086   1_455 S
N395   Zn406   2.027   .     S
N396   Zn405   2.027   .     S
O397   Zn405   2.001   .     S
O398   Zn406   2.001   .     S
O399   Zn406   1.990   .     S
O400   Zn405   1.990   .     S
O401   Zn405   1.973   .     S
O402   Zn406   1.973   .     S
O403   Zn406   1.978   .     S
O404   Zn405   1.978   .     S
Br407  C425    1.908   .     S
Br408  C427    1.922   .     S
Br409  C430    1.921   .     S
Br410  C431    1.919   .     S
Br411  C438    1.912   .     S
Br412  C439    1.908   .     S
Br413  C440    1.922   .     S
Br414  C441    1.906   .     S
C415   O457    1.289   .     A
C415   C428    1.435   .     S
C415   O455    1.298   .     A
C416   C441    1.419   .     A
C416   Cl444   1.772   .     S
C416   C418    1.411   .     A
C417   C436    1.407   .     A
C417   C442    1.416   .     A
C418   C437    1.403   .     A
C418   C69     1.524   1_556 S
C419   C421    1.402   .     S
C419   O459    1.287   .     A
C419   O461    1.285   .     A
C420   O462    1.287   .     A
C420   C422    1.401   .     S
C420   O460    1.285   .     A
C422   C479    1.327   .     S
C422   H504    1.086   .     S
C423   H447    1.084   .     S
C423   C425    1.379   .     A
C423   C434    1.396   .     A
C424   C427    1.381   .     A
C424   H448    1.084   .     S
C424   C435    1.400   .     A
C425   C428    1.401   .     A
C426   C429    1.426   .     S
C426   O458    1.293   .     A
C426   O456    1.289   .     A
C427   C429    1.401   .     A
C428   C430    1.406   .     A
C429   C431    1.403   .     A
C430   C432    1.385   .     A
C431   C433    1.383   .     A
C432   H449    1.083   .     S
C432   C434    1.398   .     A
C433   H450    1.083   .     S
C433   C435    1.398   .     A
C434   C609    1.447   1_545 S
C435   C608    1.447   .     S
C436   H451    1.081   .     S
C436   C438    1.406   .     A
C437   C439    1.407   .     A
C437   H452    1.081   .     S
C438   N453    1.371   .     A
C439   N454    1.378   .     A
C440   C442    1.419   .     A
C440   N453    1.376   .     A
C441   N454    1.380   .     A
C442   Cl443   1.770   .     S
H445   C479    1.088   .     S
N453   Zn464   2.027   .     S
N454   Zn463   2.027   .     S
O455   Zn463   2.001   .     S
O456   Zn464   2.001   .     S
O457   Zn464   1.990   .     S
O458   Zn463   1.990   .     S
O459   Zn463   1.973   .     S
O460   Zn464   1.973   .     S
O461   Zn464   1.978   .     S
O462   Zn463   1.978   .     S
Br465  C483    1.908   .     S
Br466  C485    1.922   .     S
Br467  C488    1.921   .     S
Br468  C489    1.919   .     S
Br469  C496    1.912   .     S
Br470  C497    1.908   .     S
Br471  C498    1.922   .     S
Br472  C499    1.906   .     S
C473   O515    1.289   .     A
C473   C486    1.435   .     S
C473   O513    1.298   .     A
C474   C499    1.419   .     A
C474   Cl502   1.772   .     S
C474   C476    1.411   .     A
C475   C494    1.407   .     A
C475   C500    1.416   .     A
C476   C495    1.403   .     A
C476   C127    1.524   1_556 S
C477   C479    1.402   .     S
C477   O517    1.287   .     A
C477   O519    1.285   .     A
C478   O520    1.287   .     A
C478   C480    1.401   .     S
C478   O518    1.285   .     A
C480   C363    1.327   1_655 S
C480   H388    1.086   1_655 S
C481   H505    1.084   .     S
C481   C483    1.379   .     A
C481   C492    1.396   .     A
C482   C485    1.381   .     A
C482   H506    1.084   .     S
C482   C493    1.400   .     A
C483   C486    1.401   .     A
C484   C487    1.426   .     S
C484   O516    1.293   .     A
C484   O514    1.289   .     A
C485   C487    1.401   .     A
C486   C488    1.406   .     A
C487   C489    1.403   .     A
C488   C490    1.385   .     A
C489   C491    1.383   .     A
C490   H507    1.083   .     S
C490   C492    1.398   .     A
C491   H508    1.083   .     S
C491   C493    1.398   .     A
C492   C667    1.447   1_545 S
C493   C666    1.447   .     S
C494   H509    1.081   .     S
C494   C496    1.406   .     A
C495   C497    1.407   .     A
C495   H510    1.081   .     S
C496   N511    1.371   .     A
C497   N512    1.378   .     A
C498   C500    1.419   .     A
C498   N511    1.376   .     A
C499   N512    1.380   .     A
C500   Cl501   1.770   .     S
H503   C363    1.088   1_655 S
N511   Zn522   2.027   .     S
N512   Zn521   2.027   .     S
O513   Zn521   2.001   .     S
O514   Zn522   2.001   .     S
O515   Zn522   1.990   .     S
O516   Zn521   1.990   .     S
O517   Zn521   1.973   .     S
O518   Zn522   1.973   .     S
O519   Zn522   1.978   .     S
O520   Zn521   1.978   .     S
Br523  C541    1.908   .     S
Br524  C543    1.922   .     S
Br525  C546    1.921   .     S
Br526  C547    1.919   .     S
Br527  C554    1.912   .     S
Br528  C555    1.908   .     S
Br529  C556    1.922   .     S
Br530  C557    1.906   .     S
C531   O573    1.289   .     A
C531   C544    1.435   .     S
C531   O571    1.298   .     A
C532   C557    1.419   .     A
C532   Cl560   1.772   .     S
C532   C534    1.411   .     A
C533   C552    1.407   .     A
C533   C558    1.416   .     A
C534   C553    1.403   .     A
C534   C185    1.524   1_556 S
C535   C537    1.402   .     S
C535   O575    1.287   .     A
C535   O577    1.285   .     A
C536   O578    1.287   .     A
C536   C538    1.401   .     S
C536   O576    1.285   .     A
C537   C654    1.327   1_455 S
C537   H677    1.088   1_455 S
C538   C595    1.327   .     S
C538   H620    1.086   .     S
C539   H563    1.084   .     S
C539   C541    1.379   .     A
C539   C550    1.396   .     A
C540   C543    1.381   .     A
C540   H564    1.084   .     S
C540   C551    1.400   .     A
C541   C544    1.401   .     A
C542   C545    1.426   .     S
C542   O574    1.293   .     A
C542   O572    1.289   .     A
C543   C545    1.401   .     A
C544   C546    1.406   .     A
C545   C547    1.403   .     A
C546   C548    1.385   .     A
C547   C549    1.383   .     A
C548   H565    1.083   .     S
C548   C550    1.398   .     A
C549   H566    1.083   .     S
C549   C551    1.398   .     A
C551   C376    1.447   1_565 S
C552   H567    1.081   .     S
C552   C554    1.406   .     A
C553   C555    1.407   .     A
C553   H568    1.081   .     S
C554   N569    1.371   .     A
C555   N570    1.378   .     A
C556   C558    1.419   .     A
C556   N569    1.376   .     A
C557   N570    1.380   .     A
C558   Cl559   1.770   .     S
H561   C595    1.088   .     S
H562   C654    1.086   1_455 S
N569   Zn580   2.027   .     S
N570   Zn579   2.027   .     S
O571   Zn579   2.001   .     S
O572   Zn580   2.001   .     S
O573   Zn580   1.990   .     S
O574   Zn579   1.990   .     S
O575   Zn579   1.973   .     S
O576   Zn580   1.973   .     S
O577   Zn580   1.978   .     S
O578   Zn579   1.978   .     S
Br581  C599    1.908   .     S
Br582  C601    1.922   .     S
Br583  C604    1.921   .     S
Br584  C605    1.919   .     S
Br585  C612    1.912   .     S
Br586  C613    1.908   .     S
Br587  C614    1.922   .     S
Br588  C615    1.906   .     S
C589   O631    1.289   .     A
C589   C602    1.435   .     S
C589   O629    1.298   .     A
C590   C615    1.419   .     A
C590   Cl618   1.772   .     S
C590   C592    1.411   .     A
C591   C610    1.407   .     A
C591   C616    1.416   .     A
C592   C611    1.403   .     A
C592   C243    1.524   1_556 S
C593   C595    1.402   .     S
C593   O633    1.287   .     A
C593   O635    1.285   .     A
C594   O636    1.287   .     A
C594   C596    1.401   .     S
C594   O634    1.285   .     A
C596   C653    1.327   .     S
C596   H678    1.086   .     S
C597   H621    1.084   .     S
C597   C599    1.379   .     A
C597   C608    1.396   .     A
C598   C601    1.381   .     A
C598   H622    1.084   .     S
C598   C609    1.400   .     A
C599   C602    1.401   .     A
C600   C603    1.426   .     S
C600   O632    1.293   .     A
C600   O630    1.289   .     A
C601   C603    1.401   .     A
C602   C604    1.406   .     A
C603   C605    1.403   .     A
C604   C606    1.385   .     A
C605   C607    1.383   .     A
C606   H623    1.083   .     S
C606   C608    1.398   .     A
C607   H624    1.083   .     S
C607   C609    1.398   .     A
C609   C434    1.447   1_565 S
C610   H625    1.081   .     S
C610   C612    1.406   .     A
C611   C613    1.407   .     A
C611   H626    1.081   .     S
C612   N627    1.371   .     A
C613   N628    1.378   .     A
C614   C616    1.419   .     A
C614   N627    1.376   .     A
C615   N628    1.380   .     A
C616   Cl617   1.770   .     S
H619   C653    1.088   .     S
N627   Zn638   2.027   .     S
N628   Zn637   2.027   .     S
O629   Zn637   2.001   .     S
O630   Zn638   2.001   .     S
O631   Zn638   1.990   .     S
O632   Zn637   1.990   .     S
O633   Zn637   1.973   .     S
O634   Zn638   1.973   .     S
O635   Zn638   1.978   .     S
O636   Zn637   1.978   .     S
Br639  C657    1.908   .     S
Br640  C659    1.922   .     S
Br641  C662    1.921   .     S
Br642  C663    1.919   .     S
Br643  C670    1.912   .     S
Br644  C671    1.908   .     S
Br645  C672    1.922   .     S
Br646  C673    1.906   .     S
C647   O689    1.289   .     A
C647   C660    1.435   .     S
C647   O687    1.298   .     A
C648   C673    1.419   .     A
C648   Cl676   1.772   .     S
C648   C650    1.411   .     A
C649   C668    1.407   .     A
C649   C674    1.416   .     A
C650   C669    1.403   .     A
C650   C301    1.524   1_556 S
C651   C653    1.402   .     S
C651   O691    1.287   .     A
C651   O693    1.285   .     A
C652   O694    1.287   .     A
C652   C654    1.401   .     S
C652   O692    1.285   .     A
C654   C537    1.327   1_655 S
C654   H562    1.086   1_655 S
C655   H679    1.084   .     S
C655   C657    1.379   .     A
C655   C666    1.396   .     A
C656   C659    1.381   .     A
C656   H680    1.084   .     S
C656   C667    1.400   .     A
C657   C660    1.401   .     A
C658   C661    1.426   .     S
C658   O690    1.293   .     A
C658   O688    1.289   .     A
C659   C661    1.401   .     A
C660   C662    1.406   .     A
C661   C663    1.403   .     A
C662   C664    1.385   .     A
C663   C665    1.383   .     A
C664   H681    1.083   .     S
C664   C666    1.398   .     A
C665   H682    1.083   .     S
C665   C667    1.398   .     A
C667   C492    1.447   1_565 S
C668   H683    1.081   .     S
C668   C670    1.406   .     A
C669   C671    1.407   .     A
C669   H684    1.081   .     S
C670   N685    1.371   .     A
C671   N686    1.378   .     A
C672   C674    1.419   .     A
C672   N685    1.376   .     A
C673   N686    1.380   .     A
C674   Cl675   1.770   .     S
H677   C537    1.088   1_655 S
N685   Zn696   2.027   .     S
N686   Zn695   2.027   .     S
O687   Zn695   2.001   .     S
O688   Zn696   2.001   .     S
O689   Zn696   1.990   .     S
O690   Zn695   1.990   .     S
O691   Zn695   1.973   .     S
O692   Zn696   1.973   .     S
O693   Zn696   1.978   .     S
O694   Zn695   1.978   .     S
