data_str_m3_o1_o10_pcu_sym.206
_audit_creation_date              2020-01-03
_audit_creation_method            'Materials Studio'
_symmetry_space_group_name_H-M    'P1'
_symmetry_Int_Tables_number       1
_symmetry_cell_setting            triclinic
loop_
_symmetry_equiv_pos_as_xyz
  x,y,z
_cell_length_a                    25.9044
_cell_length_b                    32.0258
_cell_length_c                    29.5043
_cell_angle_alpha                 90.2498
_cell_angle_beta                  98.8087
_cell_angle_gamma                 90.1908
loop_
_atom_site_label
_atom_site_type_symbol
_atom_site_fract_x
_atom_site_fract_y
_atom_site_fract_z
_atom_site_U_iso_or_equiv
_atom_site_adp_type
_atom_site_occupancy
C1     C     0.16649   0.08687   0.16652   0.00000  Uiso   1.00
C2     C     0.16673   0.24658   0.16681   0.00000  Uiso   1.00
C3     C     0.06741   0.17111   0.15486   0.00000  Uiso   1.00
C4     C     0.26601   0.17103   0.17857   0.00000  Uiso   1.00
C5     C     0.01309   0.18117   0.14843   0.00000  Uiso   1.00
C6     C     0.32051   0.18102   0.18535   0.00000  Uiso   1.00
C7     C     0.20975   0.02213   0.15358   0.00000  Uiso   1.00
C8     C     0.12342   0.31166   0.17957   0.00000  Uiso   1.00
C9     C     0.21085   0.31199   0.15525   0.00000  Uiso   1.00
C10    C     0.12253   0.02181   0.17844   0.00000  Uiso   1.00
C11    C     0.16705   0.29086   0.16716   0.00000  Uiso   1.00
C12    C     0.16620   0.04279   0.16619   0.00000  Uiso   1.00
C13    C     0.19144   0.19763   0.02742   0.00000  Uiso   1.00
C14    C     0.14142   0.13593   0.30582   0.00000  Uiso   1.00
C15    C     0.19165   0.19751   0.31282   0.00000  Uiso   1.00
C16    C     0.14151   0.13590   0.02047   0.00000  Uiso   1.00
H17    H     0.21091   0.22257   0.04823   0.00000  Uiso   1.00
H18    H     0.12114   0.11140   0.28481   0.00000  Uiso   1.00
H19    H     0.21168   0.22215   0.29745   0.00000  Uiso   1.00
H20    H     0.12135   0.11133   0.03583   0.00000  Uiso   1.00
N21    N     0.16665   0.16666   0.28573   0.00000  Uiso   1.00
N22    N     0.16668   0.16668   0.04760   0.00000  Uiso   1.00
O23    O     0.16666   0.10558   0.20487   0.00000  Uiso   1.00
O24    O     0.16667   0.22775   0.12846   0.00000  Uiso   1.00
O25    O     0.16666   0.10559   0.12843   0.00000  Uiso   1.00
O26    O     0.16667   0.22774   0.20490   0.00000  Uiso   1.00
O27    O     0.09058   0.16666   0.19595   0.00000  Uiso   1.00
O28    O     0.24275   0.16667   0.13739   0.00000  Uiso   1.00
O29    O     0.09058   0.16667   0.11950   0.00000  Uiso   1.00
O30    O     0.24275   0.16666   0.21383   0.00000  Uiso   1.00
Zn31   Zn    0.16667   0.16666   0.21771   0.00000  Uiso   1.00
Zn32   Zn    0.16667   0.16667   0.11563   0.00000  Uiso   1.00
C33    C     0.32165   0.19120   0.09942   0.00000  Uiso   1.00
H34    H     0.01722   0.20454   0.07927   0.00000  Uiso   1.00
H35    H     0.30490   0.16253   0.08149   0.00000  Uiso   1.00
H36    H     0.29162   0.21574   0.09908   0.00000  Uiso   1.00
C37    C     0.01213   0.18995   0.23479   0.00000  Uiso   1.00
H38    H     0.31692   0.20363   0.25510   0.00000  Uiso   1.00
H39    H     0.02734   0.16066   0.25183   0.00000  Uiso   1.00
H40    H     0.04347   0.21381   0.23644   0.00000  Uiso   1.00
C41    C     0.25440   0.04659   0.14037   0.00000  Uiso   1.00
H42    H     0.26596   0.07606   0.15728   0.00000  Uiso   1.00
O43    O     0.27727   0.03492   0.10939   0.00000  Uiso   1.00
C44    C     0.07829   0.28741   0.19171   0.00000  Uiso   1.00
H45    H     0.06577   0.25902   0.17311   0.00000  Uiso   1.00
O46    O     0.05594   0.29817   0.22337   0.00000  Uiso   1.00
C47    C     0.25979   0.28881   0.14738   0.00000  Uiso   1.00
H48    H     0.26125   0.25649   0.16038   0.00000  Uiso   1.00
H49    H     0.26233   0.28800   0.11018   0.00000  Uiso   1.00
H50    H     0.29500   0.30443   0.16623   0.00000  Uiso   1.00
C51    C     0.07394   0.04523   0.18736   0.00000  Uiso   1.00
H52    H     0.07281   0.07819   0.17611   0.00000  Uiso   1.00
H53    H     0.03848   0.03045   0.16788   0.00000  Uiso   1.00
H54    H     0.07136   0.04477   0.22455   0.00000  Uiso   1.00
C55    C     0.49982   0.08687   0.16652   0.00000  Uiso   1.00
C56    C     0.50007   0.24658   0.16681   0.00000  Uiso   1.00
C57    C     0.40075   0.17111   0.15486   0.00000  Uiso   1.00
C58    C     0.59934   0.17103   0.17857   0.00000  Uiso   1.00
C59    C     0.34643   0.18117   0.14843   0.00000  Uiso   1.00
C60    C     0.65384   0.18102   0.18535   0.00000  Uiso   1.00
C61    C     0.54309   0.02213   0.15358   0.00000  Uiso   1.00
C62    C     0.45675   0.31166   0.17957   0.00000  Uiso   1.00
C63    C     0.54418   0.31199   0.15525   0.00000  Uiso   1.00
C64    C     0.45586   0.02181   0.17844   0.00000  Uiso   1.00
C65    C     0.50038   0.29086   0.16716   0.00000  Uiso   1.00
C66    C     0.49953   0.04279   0.16619   0.00000  Uiso   1.00
C67    C     0.52478   0.19763   0.02742   0.00000  Uiso   1.00
C68    C     0.47475   0.13593   0.30582   0.00000  Uiso   1.00
C69    C     0.52498   0.19751   0.31282   0.00000  Uiso   1.00
C70    C     0.47484   0.13590   0.02047   0.00000  Uiso   1.00
H71    H     0.54424   0.22257   0.04823   0.00000  Uiso   1.00
H72    H     0.45447   0.11140   0.28481   0.00000  Uiso   1.00
H73    H     0.54502   0.22215   0.29745   0.00000  Uiso   1.00
H74    H     0.45468   0.11133   0.03583   0.00000  Uiso   1.00
N75    N     0.49999   0.16666   0.28573   0.00000  Uiso   1.00
N76    N     0.50001   0.16668   0.04760   0.00000  Uiso   1.00
O77    O     0.50000   0.10558   0.20487   0.00000  Uiso   1.00
O78    O     0.50000   0.22775   0.12846   0.00000  Uiso   1.00
O79    O     0.50000   0.10559   0.12843   0.00000  Uiso   1.00
O80    O     0.50000   0.22774   0.20490   0.00000  Uiso   1.00
O81    O     0.42392   0.16666   0.19595   0.00000  Uiso   1.00
O82    O     0.57608   0.16667   0.13739   0.00000  Uiso   1.00
O83    O     0.42392   0.16667   0.11950   0.00000  Uiso   1.00
O84    O     0.57608   0.16666   0.21383   0.00000  Uiso   1.00
Zn85   Zn    0.50000   0.16666   0.21771   0.00000  Uiso   1.00
Zn86   Zn    0.50000   0.16667   0.11563   0.00000  Uiso   1.00
C87    C     0.65498   0.19120   0.09942   0.00000  Uiso   1.00
H88    H     0.35055   0.20454   0.07927   0.00000  Uiso   1.00
H89    H     0.63823   0.16253   0.08149   0.00000  Uiso   1.00
H90    H     0.62496   0.21574   0.09908   0.00000  Uiso   1.00
C91    C     0.34547   0.18995   0.23479   0.00000  Uiso   1.00
H92    H     0.65025   0.20363   0.25510   0.00000  Uiso   1.00
H93    H     0.36067   0.16066   0.25183   0.00000  Uiso   1.00
H94    H     0.37681   0.21381   0.23644   0.00000  Uiso   1.00
C95    C     0.58773   0.04659   0.14037   0.00000  Uiso   1.00
H96    H     0.59930   0.07606   0.15728   0.00000  Uiso   1.00
O97    O     0.61061   0.03492   0.10939   0.00000  Uiso   1.00
C98    C     0.41163   0.28741   0.19171   0.00000  Uiso   1.00
H99    H     0.39911   0.25902   0.17311   0.00000  Uiso   1.00
O100   O     0.38927   0.29817   0.22337   0.00000  Uiso   1.00
C101   C     0.59313   0.28881   0.14738   0.00000  Uiso   1.00
H102   H     0.59459   0.25649   0.16038   0.00000  Uiso   1.00
H103   H     0.59567   0.28800   0.11018   0.00000  Uiso   1.00
H104   H     0.62833   0.30443   0.16623   0.00000  Uiso   1.00
C105   C     0.40727   0.04523   0.18736   0.00000  Uiso   1.00
H106   H     0.40614   0.07819   0.17611   0.00000  Uiso   1.00
H107   H     0.37181   0.03045   0.16788   0.00000  Uiso   1.00
H108   H     0.40470   0.04477   0.22455   0.00000  Uiso   1.00
C109   C     0.83316   0.08687   0.16652   0.00000  Uiso   1.00
C110   C     0.83340   0.24658   0.16681   0.00000  Uiso   1.00
C111   C     0.73408   0.17111   0.15486   0.00000  Uiso   1.00
C112   C     0.93268   0.17103   0.17857   0.00000  Uiso   1.00
C113   C     0.67976   0.18117   0.14843   0.00000  Uiso   1.00
C114   C     0.98718   0.18102   0.18535   0.00000  Uiso   1.00
C115   C     0.87642   0.02213   0.15358   0.00000  Uiso   1.00
C116   C     0.79009   0.31166   0.17957   0.00000  Uiso   1.00
C117   C     0.87751   0.31199   0.15525   0.00000  Uiso   1.00
C118   C     0.78920   0.02181   0.17844   0.00000  Uiso   1.00
C119   C     0.83371   0.29086   0.16716   0.00000  Uiso   1.00
C120   C     0.83286   0.04279   0.16619   0.00000  Uiso   1.00
C121   C     0.85811   0.19763   0.02742   0.00000  Uiso   1.00
C122   C     0.80809   0.13593   0.30582   0.00000  Uiso   1.00
C123   C     0.85832   0.19751   0.31282   0.00000  Uiso   1.00
C124   C     0.80818   0.13590   0.02047   0.00000  Uiso   1.00
H125   H     0.87758   0.22257   0.04823   0.00000  Uiso   1.00
H126   H     0.78781   0.11140   0.28481   0.00000  Uiso   1.00
H127   H     0.87835   0.22215   0.29745   0.00000  Uiso   1.00
H128   H     0.78801   0.11133   0.03583   0.00000  Uiso   1.00
N129   N     0.83332   0.16666   0.28573   0.00000  Uiso   1.00
N130   N     0.83335   0.16668   0.04760   0.00000  Uiso   1.00
O131   O     0.83333   0.10558   0.20487   0.00000  Uiso   1.00
O132   O     0.83334   0.22775   0.12846   0.00000  Uiso   1.00
O133   O     0.83333   0.10559   0.12843   0.00000  Uiso   1.00
O134   O     0.83334   0.22774   0.20490   0.00000  Uiso   1.00
O135   O     0.75725   0.16666   0.19595   0.00000  Uiso   1.00
O136   O     0.90942   0.16667   0.13739   0.00000  Uiso   1.00
O137   O     0.75725   0.16667   0.11950   0.00000  Uiso   1.00
O138   O     0.90942   0.16666   0.21383   0.00000  Uiso   1.00
Zn139  Zn    0.83333   0.16666   0.21771   0.00000  Uiso   1.00
Zn140  Zn    0.83333   0.16667   0.11563   0.00000  Uiso   1.00
C141   C     0.98831   0.19120   0.09942   0.00000  Uiso   1.00
H142   H     0.68389   0.20454   0.07927   0.00000  Uiso   1.00
H143   H     0.97157   0.16253   0.08149   0.00000  Uiso   1.00
H144   H     0.95829   0.21574   0.09908   0.00000  Uiso   1.00
C145   C     0.67880   0.18995   0.23479   0.00000  Uiso   1.00
H146   H     0.98359   0.20363   0.25510   0.00000  Uiso   1.00
H147   H     0.69401   0.16066   0.25183   0.00000  Uiso   1.00
H148   H     0.71014   0.21381   0.23644   0.00000  Uiso   1.00
C149   C     0.92107   0.04659   0.14037   0.00000  Uiso   1.00
H150   H     0.93263   0.07606   0.15728   0.00000  Uiso   1.00
O151   O     0.94394   0.03492   0.10939   0.00000  Uiso   1.00
C152   C     0.74496   0.28741   0.19171   0.00000  Uiso   1.00
H153   H     0.73244   0.25902   0.17311   0.00000  Uiso   1.00
O154   O     0.72260   0.29817   0.22337   0.00000  Uiso   1.00
C155   C     0.92646   0.28881   0.14738   0.00000  Uiso   1.00
H156   H     0.92792   0.25649   0.16038   0.00000  Uiso   1.00
H157   H     0.92900   0.28800   0.11018   0.00000  Uiso   1.00
H158   H     0.96166   0.30443   0.16623   0.00000  Uiso   1.00
C159   C     0.74060   0.04523   0.18736   0.00000  Uiso   1.00
H160   H     0.73947   0.07819   0.17611   0.00000  Uiso   1.00
H161   H     0.70515   0.03045   0.16788   0.00000  Uiso   1.00
H162   H     0.73803   0.04477   0.22455   0.00000  Uiso   1.00
C163   C     0.16649   0.42021   0.16652   0.00000  Uiso   1.00
C164   C     0.16673   0.57991   0.16681   0.00000  Uiso   1.00
C165   C     0.06741   0.50445   0.15486   0.00000  Uiso   1.00
C166   C     0.26601   0.50437   0.17857   0.00000  Uiso   1.00
C167   C     0.01309   0.51450   0.14843   0.00000  Uiso   1.00
C168   C     0.32051   0.51435   0.18535   0.00000  Uiso   1.00
C169   C     0.20975   0.35546   0.15358   0.00000  Uiso   1.00
C170   C     0.12342   0.64499   0.17957   0.00000  Uiso   1.00
C171   C     0.21085   0.64533   0.15525   0.00000  Uiso   1.00
C172   C     0.12253   0.35515   0.17844   0.00000  Uiso   1.00
C173   C     0.16705   0.62420   0.16716   0.00000  Uiso   1.00
C174   C     0.16620   0.37613   0.16619   0.00000  Uiso   1.00
C175   C     0.19144   0.53096   0.02742   0.00000  Uiso   1.00
C176   C     0.14142   0.46926   0.30582   0.00000  Uiso   1.00
C177   C     0.19165   0.53085   0.31282   0.00000  Uiso   1.00
C178   C     0.14151   0.46923   0.02047   0.00000  Uiso   1.00
H179   H     0.21091   0.55590   0.04823   0.00000  Uiso   1.00
H180   H     0.12114   0.44474   0.28481   0.00000  Uiso   1.00
H181   H     0.21168   0.55548   0.29745   0.00000  Uiso   1.00
H182   H     0.12135   0.44467   0.03583   0.00000  Uiso   1.00
N183   N     0.16665   0.49999   0.28573   0.00000  Uiso   1.00
N184   N     0.16668   0.50001   0.04760   0.00000  Uiso   1.00
O185   O     0.16666   0.43892   0.20487   0.00000  Uiso   1.00
O186   O     0.16667   0.56108   0.12846   0.00000  Uiso   1.00
O187   O     0.16666   0.43893   0.12843   0.00000  Uiso   1.00
O188   O     0.16667   0.56107   0.20490   0.00000  Uiso   1.00
O189   O     0.09058   0.50000   0.19595   0.00000  Uiso   1.00
O190   O     0.24275   0.50000   0.13739   0.00000  Uiso   1.00
O191   O     0.09058   0.50000   0.11950   0.00000  Uiso   1.00
O192   O     0.24275   0.50000   0.21383   0.00000  Uiso   1.00
Zn193  Zn    0.16667   0.49999   0.21771   0.00000  Uiso   1.00
Zn194  Zn    0.16667   0.50001   0.11563   0.00000  Uiso   1.00
C195   C     0.32165   0.52453   0.09942   0.00000  Uiso   1.00
H196   H     0.01722   0.53787   0.07927   0.00000  Uiso   1.00
H197   H     0.30490   0.49586   0.08149   0.00000  Uiso   1.00
H198   H     0.29162   0.54908   0.09908   0.00000  Uiso   1.00
C199   C     0.01213   0.52328   0.23479   0.00000  Uiso   1.00
H200   H     0.31692   0.53696   0.25510   0.00000  Uiso   1.00
H201   H     0.02734   0.49399   0.25183   0.00000  Uiso   1.00
H202   H     0.04347   0.54714   0.23644   0.00000  Uiso   1.00
C203   C     0.25440   0.37992   0.14037   0.00000  Uiso   1.00
H204   H     0.26596   0.40939   0.15728   0.00000  Uiso   1.00
O205   O     0.27727   0.36825   0.10939   0.00000  Uiso   1.00
C206   C     0.07829   0.62074   0.19171   0.00000  Uiso   1.00
H207   H     0.06577   0.59235   0.17311   0.00000  Uiso   1.00
O208   O     0.05594   0.63150   0.22337   0.00000  Uiso   1.00
C209   C     0.25979   0.62215   0.14738   0.00000  Uiso   1.00
H210   H     0.26125   0.58982   0.16038   0.00000  Uiso   1.00
H211   H     0.26233   0.62134   0.11018   0.00000  Uiso   1.00
H212   H     0.29500   0.63777   0.16623   0.00000  Uiso   1.00
C213   C     0.07394   0.37856   0.18736   0.00000  Uiso   1.00
H214   H     0.07281   0.41153   0.17611   0.00000  Uiso   1.00
H215   H     0.03848   0.36379   0.16788   0.00000  Uiso   1.00
H216   H     0.07136   0.37811   0.22455   0.00000  Uiso   1.00
C217   C     0.49982   0.42021   0.16652   0.00000  Uiso   1.00
C218   C     0.50007   0.57991   0.16681   0.00000  Uiso   1.00
C219   C     0.40075   0.50445   0.15486   0.00000  Uiso   1.00
C220   C     0.59934   0.50437   0.17857   0.00000  Uiso   1.00
C221   C     0.34643   0.51450   0.14843   0.00000  Uiso   1.00
C222   C     0.65384   0.51435   0.18535   0.00000  Uiso   1.00
C223   C     0.54309   0.35546   0.15358   0.00000  Uiso   1.00
C224   C     0.45675   0.64499   0.17957   0.00000  Uiso   1.00
C225   C     0.54418   0.64533   0.15525   0.00000  Uiso   1.00
C226   C     0.45586   0.35515   0.17844   0.00000  Uiso   1.00
C227   C     0.50038   0.62420   0.16716   0.00000  Uiso   1.00
C228   C     0.49953   0.37613   0.16619   0.00000  Uiso   1.00
C229   C     0.52478   0.53096   0.02742   0.00000  Uiso   1.00
C230   C     0.47475   0.46926   0.30582   0.00000  Uiso   1.00
C231   C     0.52498   0.53085   0.31282   0.00000  Uiso   1.00
C232   C     0.47484   0.46923   0.02047   0.00000  Uiso   1.00
H233   H     0.54424   0.55590   0.04823   0.00000  Uiso   1.00
H234   H     0.45447   0.44474   0.28481   0.00000  Uiso   1.00
H235   H     0.54502   0.55548   0.29745   0.00000  Uiso   1.00
H236   H     0.45468   0.44467   0.03583   0.00000  Uiso   1.00
N237   N     0.49999   0.49999   0.28573   0.00000  Uiso   1.00
N238   N     0.50001   0.50001   0.04760   0.00000  Uiso   1.00
O239   O     0.50000   0.43892   0.20487   0.00000  Uiso   1.00
O240   O     0.50000   0.56108   0.12846   0.00000  Uiso   1.00
O241   O     0.50000   0.43893   0.12843   0.00000  Uiso   1.00
O242   O     0.50000   0.56107   0.20490   0.00000  Uiso   1.00
O243   O     0.42392   0.50000   0.19595   0.00000  Uiso   1.00
O244   O     0.57608   0.50000   0.13739   0.00000  Uiso   1.00
O245   O     0.42392   0.50000   0.11950   0.00000  Uiso   1.00
O246   O     0.57608   0.50000   0.21383   0.00000  Uiso   1.00
Zn247  Zn    0.50000   0.49999   0.21771   0.00000  Uiso   1.00
Zn248  Zn    0.50000   0.50001   0.11563   0.00000  Uiso   1.00
C249   C     0.65498   0.52453   0.09942   0.00000  Uiso   1.00
H250   H     0.35055   0.53787   0.07927   0.00000  Uiso   1.00
H251   H     0.63823   0.49586   0.08149   0.00000  Uiso   1.00
H252   H     0.62496   0.54908   0.09908   0.00000  Uiso   1.00
C253   C     0.34547   0.52328   0.23479   0.00000  Uiso   1.00
H254   H     0.65025   0.53696   0.25510   0.00000  Uiso   1.00
H255   H     0.36067   0.49399   0.25183   0.00000  Uiso   1.00
H256   H     0.37681   0.54714   0.23644   0.00000  Uiso   1.00
C257   C     0.58773   0.37992   0.14037   0.00000  Uiso   1.00
H258   H     0.59930   0.40939   0.15728   0.00000  Uiso   1.00
O259   O     0.61061   0.36825   0.10939   0.00000  Uiso   1.00
C260   C     0.41163   0.62074   0.19171   0.00000  Uiso   1.00
H261   H     0.39911   0.59235   0.17311   0.00000  Uiso   1.00
O262   O     0.38927   0.63150   0.22337   0.00000  Uiso   1.00
C263   C     0.59313   0.62215   0.14738   0.00000  Uiso   1.00
H264   H     0.59459   0.58982   0.16038   0.00000  Uiso   1.00
H265   H     0.59567   0.62134   0.11018   0.00000  Uiso   1.00
H266   H     0.62833   0.63777   0.16623   0.00000  Uiso   1.00
C267   C     0.40727   0.37856   0.18736   0.00000  Uiso   1.00
H268   H     0.40614   0.41153   0.17611   0.00000  Uiso   1.00
H269   H     0.37181   0.36379   0.16788   0.00000  Uiso   1.00
H270   H     0.40470   0.37811   0.22455   0.00000  Uiso   1.00
C271   C     0.83316   0.42021   0.16652   0.00000  Uiso   1.00
C272   C     0.83340   0.57991   0.16681   0.00000  Uiso   1.00
C273   C     0.73408   0.50445   0.15486   0.00000  Uiso   1.00
C274   C     0.93268   0.50437   0.17857   0.00000  Uiso   1.00
C275   C     0.67976   0.51450   0.14843   0.00000  Uiso   1.00
C276   C     0.98718   0.51435   0.18535   0.00000  Uiso   1.00
C277   C     0.87642   0.35546   0.15358   0.00000  Uiso   1.00
C278   C     0.79009   0.64499   0.17957   0.00000  Uiso   1.00
C279   C     0.87751   0.64533   0.15525   0.00000  Uiso   1.00
C280   C     0.78920   0.35515   0.17844   0.00000  Uiso   1.00
C281   C     0.83371   0.62420   0.16716   0.00000  Uiso   1.00
C282   C     0.83286   0.37613   0.16619   0.00000  Uiso   1.00
C283   C     0.85811   0.53096   0.02742   0.00000  Uiso   1.00
C284   C     0.80809   0.46926   0.30582   0.00000  Uiso   1.00
C285   C     0.85832   0.53085   0.31282   0.00000  Uiso   1.00
C286   C     0.80818   0.46923   0.02047   0.00000  Uiso   1.00
H287   H     0.87758   0.55590   0.04823   0.00000  Uiso   1.00
H288   H     0.78781   0.44474   0.28481   0.00000  Uiso   1.00
H289   H     0.87835   0.55548   0.29745   0.00000  Uiso   1.00
H290   H     0.78801   0.44467   0.03583   0.00000  Uiso   1.00
N291   N     0.83332   0.49999   0.28573   0.00000  Uiso   1.00
N292   N     0.83335   0.50001   0.04760   0.00000  Uiso   1.00
O293   O     0.83333   0.43892   0.20487   0.00000  Uiso   1.00
O294   O     0.83334   0.56108   0.12846   0.00000  Uiso   1.00
O295   O     0.83333   0.43893   0.12843   0.00000  Uiso   1.00
O296   O     0.83334   0.56107   0.20490   0.00000  Uiso   1.00
O297   O     0.75725   0.50000   0.19595   0.00000  Uiso   1.00
O298   O     0.90942   0.50000   0.13739   0.00000  Uiso   1.00
O299   O     0.75725   0.50000   0.11950   0.00000  Uiso   1.00
O300   O     0.90942   0.50000   0.21383   0.00000  Uiso   1.00
Zn301  Zn    0.83333   0.49999   0.21771   0.00000  Uiso   1.00
Zn302  Zn    0.83333   0.50001   0.11563   0.00000  Uiso   1.00
C303   C     0.98831   0.52453   0.09942   0.00000  Uiso   1.00
H304   H     0.68389   0.53787   0.07927   0.00000  Uiso   1.00
H305   H     0.97157   0.49586   0.08149   0.00000  Uiso   1.00
H306   H     0.95829   0.54908   0.09908   0.00000  Uiso   1.00
C307   C     0.67880   0.52328   0.23479   0.00000  Uiso   1.00
H308   H     0.98359   0.53696   0.25510   0.00000  Uiso   1.00
H309   H     0.69401   0.49399   0.25183   0.00000  Uiso   1.00
H310   H     0.71014   0.54714   0.23644   0.00000  Uiso   1.00
C311   C     0.92107   0.37992   0.14037   0.00000  Uiso   1.00
H312   H     0.93263   0.40939   0.15728   0.00000  Uiso   1.00
O313   O     0.94394   0.36825   0.10939   0.00000  Uiso   1.00
C314   C     0.74496   0.62074   0.19171   0.00000  Uiso   1.00
H315   H     0.73244   0.59235   0.17311   0.00000  Uiso   1.00
O316   O     0.72260   0.63150   0.22337   0.00000  Uiso   1.00
C317   C     0.92646   0.62215   0.14738   0.00000  Uiso   1.00
H318   H     0.92792   0.58982   0.16038   0.00000  Uiso   1.00
H319   H     0.92900   0.62134   0.11018   0.00000  Uiso   1.00
H320   H     0.96166   0.63777   0.16623   0.00000  Uiso   1.00
C321   C     0.74060   0.37856   0.18736   0.00000  Uiso   1.00
H322   H     0.73947   0.41153   0.17611   0.00000  Uiso   1.00
H323   H     0.70515   0.36379   0.16788   0.00000  Uiso   1.00
H324   H     0.73803   0.37811   0.22455   0.00000  Uiso   1.00
C325   C     0.16649   0.75354   0.16652   0.00000  Uiso   1.00
C326   C     0.16673   0.91324   0.16681   0.00000  Uiso   1.00
C327   C     0.06741   0.83778   0.15486   0.00000  Uiso   1.00
C328   C     0.26601   0.83770   0.17857   0.00000  Uiso   1.00
C329   C     0.01309   0.84784   0.14843   0.00000  Uiso   1.00
C330   C     0.32051   0.84769   0.18535   0.00000  Uiso   1.00
C331   C     0.20975   0.68880   0.15358   0.00000  Uiso   1.00
C332   C     0.12342   0.97833   0.17957   0.00000  Uiso   1.00
C333   C     0.21085   0.97866   0.15525   0.00000  Uiso   1.00
C334   C     0.12253   0.68848   0.17844   0.00000  Uiso   1.00
C335   C     0.16705   0.95753   0.16716   0.00000  Uiso   1.00
C336   C     0.16620   0.70946   0.16619   0.00000  Uiso   1.00
C337   C     0.19144   0.86430   0.02742   0.00000  Uiso   1.00
C338   C     0.14142   0.80259   0.30582   0.00000  Uiso   1.00
C339   C     0.19165   0.86418   0.31282   0.00000  Uiso   1.00
C340   C     0.14151   0.80257   0.02047   0.00000  Uiso   1.00
H341   H     0.21091   0.88924   0.04823   0.00000  Uiso   1.00
H342   H     0.12114   0.77807   0.28481   0.00000  Uiso   1.00
H343   H     0.21168   0.88882   0.29745   0.00000  Uiso   1.00
H344   H     0.12135   0.77800   0.03583   0.00000  Uiso   1.00
N345   N     0.16665   0.83332   0.28573   0.00000  Uiso   1.00
N346   N     0.16668   0.83334   0.04760   0.00000  Uiso   1.00
O347   O     0.16666   0.77225   0.20487   0.00000  Uiso   1.00
O348   O     0.16667   0.89442   0.12846   0.00000  Uiso   1.00
O349   O     0.16666   0.77226   0.12843   0.00000  Uiso   1.00
O350   O     0.16667   0.89441   0.20490   0.00000  Uiso   1.00
O351   O     0.09058   0.83333   0.19595   0.00000  Uiso   1.00
O352   O     0.24275   0.83334   0.13739   0.00000  Uiso   1.00
O353   O     0.09058   0.83334   0.11950   0.00000  Uiso   1.00
O354   O     0.24275   0.83333   0.21383   0.00000  Uiso   1.00
Zn355  Zn    0.16667   0.83333   0.21771   0.00000  Uiso   1.00
Zn356  Zn    0.16667   0.83334   0.11563   0.00000  Uiso   1.00
C357   C     0.32165   0.85786   0.09942   0.00000  Uiso   1.00
H358   H     0.01722   0.87120   0.07927   0.00000  Uiso   1.00
H359   H     0.30490   0.82919   0.08149   0.00000  Uiso   1.00
H360   H     0.29162   0.88241   0.09908   0.00000  Uiso   1.00
C361   C     0.01213   0.85662   0.23479   0.00000  Uiso   1.00
H362   H     0.31692   0.87030   0.25510   0.00000  Uiso   1.00
H363   H     0.02734   0.82733   0.25183   0.00000  Uiso   1.00
H364   H     0.04347   0.88047   0.23644   0.00000  Uiso   1.00
C365   C     0.25440   0.71326   0.14037   0.00000  Uiso   1.00
H366   H     0.26596   0.74272   0.15728   0.00000  Uiso   1.00
O367   O     0.27727   0.70159   0.10939   0.00000  Uiso   1.00
C368   C     0.07829   0.95407   0.19171   0.00000  Uiso   1.00
H369   H     0.06577   0.92569   0.17311   0.00000  Uiso   1.00
O370   O     0.05594   0.96484   0.22337   0.00000  Uiso   1.00
C371   C     0.25979   0.95548   0.14738   0.00000  Uiso   1.00
H372   H     0.26125   0.92316   0.16038   0.00000  Uiso   1.00
H373   H     0.26233   0.95467   0.11018   0.00000  Uiso   1.00
H374   H     0.29500   0.97110   0.16623   0.00000  Uiso   1.00
C375   C     0.07394   0.71189   0.18736   0.00000  Uiso   1.00
H376   H     0.07281   0.74486   0.17611   0.00000  Uiso   1.00
H377   H     0.03848   0.69712   0.16788   0.00000  Uiso   1.00
H378   H     0.07136   0.71144   0.22455   0.00000  Uiso   1.00
C379   C     0.49982   0.75354   0.16652   0.00000  Uiso   1.00
C380   C     0.50007   0.91324   0.16681   0.00000  Uiso   1.00
C381   C     0.40075   0.83778   0.15486   0.00000  Uiso   1.00
C382   C     0.59934   0.83770   0.17857   0.00000  Uiso   1.00
C383   C     0.34643   0.84784   0.14843   0.00000  Uiso   1.00
C384   C     0.65384   0.84769   0.18535   0.00000  Uiso   1.00
C385   C     0.54309   0.68880   0.15358   0.00000  Uiso   1.00
C386   C     0.45675   0.97833   0.17957   0.00000  Uiso   1.00
C387   C     0.54418   0.97866   0.15525   0.00000  Uiso   1.00
C388   C     0.45586   0.68848   0.17844   0.00000  Uiso   1.00
C389   C     0.50038   0.95753   0.16716   0.00000  Uiso   1.00
C390   C     0.49953   0.70946   0.16619   0.00000  Uiso   1.00
C391   C     0.52478   0.86430   0.02742   0.00000  Uiso   1.00
C392   C     0.47475   0.80259   0.30582   0.00000  Uiso   1.00
C393   C     0.52498   0.86418   0.31282   0.00000  Uiso   1.00
C394   C     0.47484   0.80257   0.02047   0.00000  Uiso   1.00
H395   H     0.54424   0.88924   0.04823   0.00000  Uiso   1.00
H396   H     0.45447   0.77807   0.28481   0.00000  Uiso   1.00
H397   H     0.54502   0.88882   0.29745   0.00000  Uiso   1.00
H398   H     0.45468   0.77800   0.03583   0.00000  Uiso   1.00
N399   N     0.49999   0.83332   0.28573   0.00000  Uiso   1.00
N400   N     0.50001   0.83334   0.04760   0.00000  Uiso   1.00
O401   O     0.50000   0.77225   0.20487   0.00000  Uiso   1.00
O402   O     0.50000   0.89442   0.12846   0.00000  Uiso   1.00
O403   O     0.50000   0.77226   0.12843   0.00000  Uiso   1.00
O404   O     0.50000   0.89441   0.20490   0.00000  Uiso   1.00
O405   O     0.42392   0.83333   0.19595   0.00000  Uiso   1.00
O406   O     0.57608   0.83334   0.13739   0.00000  Uiso   1.00
O407   O     0.42392   0.83334   0.11950   0.00000  Uiso   1.00
O408   O     0.57608   0.83333   0.21383   0.00000  Uiso   1.00
Zn409  Zn    0.50000   0.83333   0.21771   0.00000  Uiso   1.00
Zn410  Zn    0.50000   0.83334   0.11563   0.00000  Uiso   1.00
C411   C     0.65498   0.85786   0.09942   0.00000  Uiso   1.00
H412   H     0.35055   0.87120   0.07927   0.00000  Uiso   1.00
H413   H     0.63823   0.82919   0.08149   0.00000  Uiso   1.00
H414   H     0.62496   0.88241   0.09908   0.00000  Uiso   1.00
C415   C     0.34547   0.85662   0.23479   0.00000  Uiso   1.00
H416   H     0.65025   0.87030   0.25510   0.00000  Uiso   1.00
H417   H     0.36067   0.82733   0.25183   0.00000  Uiso   1.00
H418   H     0.37681   0.88047   0.23644   0.00000  Uiso   1.00
C419   C     0.58773   0.71326   0.14037   0.00000  Uiso   1.00
H420   H     0.59930   0.74272   0.15728   0.00000  Uiso   1.00
O421   O     0.61061   0.70159   0.10939   0.00000  Uiso   1.00
C422   C     0.41163   0.95407   0.19171   0.00000  Uiso   1.00
H423   H     0.39911   0.92569   0.17311   0.00000  Uiso   1.00
O424   O     0.38927   0.96484   0.22337   0.00000  Uiso   1.00
C425   C     0.59313   0.95548   0.14738   0.00000  Uiso   1.00
H426   H     0.59459   0.92316   0.16038   0.00000  Uiso   1.00
H427   H     0.59567   0.95467   0.11018   0.00000  Uiso   1.00
H428   H     0.62833   0.97110   0.16623   0.00000  Uiso   1.00
C429   C     0.40727   0.71189   0.18736   0.00000  Uiso   1.00
H430   H     0.40614   0.74486   0.17611   0.00000  Uiso   1.00
H431   H     0.37181   0.69712   0.16788   0.00000  Uiso   1.00
H432   H     0.40470   0.71144   0.22455   0.00000  Uiso   1.00
C433   C     0.83316   0.75354   0.16652   0.00000  Uiso   1.00
C434   C     0.83340   0.91324   0.16681   0.00000  Uiso   1.00
C435   C     0.73408   0.83778   0.15486   0.00000  Uiso   1.00
C436   C     0.93268   0.83770   0.17857   0.00000  Uiso   1.00
C437   C     0.67976   0.84784   0.14843   0.00000  Uiso   1.00
C438   C     0.98718   0.84769   0.18535   0.00000  Uiso   1.00
C439   C     0.87642   0.68880   0.15358   0.00000  Uiso   1.00
C440   C     0.79009   0.97833   0.17957   0.00000  Uiso   1.00
C441   C     0.87751   0.97866   0.15525   0.00000  Uiso   1.00
C442   C     0.78920   0.68848   0.17844   0.00000  Uiso   1.00
C443   C     0.83371   0.95753   0.16716   0.00000  Uiso   1.00
C444   C     0.83286   0.70946   0.16619   0.00000  Uiso   1.00
C445   C     0.85811   0.86430   0.02742   0.00000  Uiso   1.00
C446   C     0.80809   0.80259   0.30582   0.00000  Uiso   1.00
C447   C     0.85832   0.86418   0.31282   0.00000  Uiso   1.00
C448   C     0.80818   0.80257   0.02047   0.00000  Uiso   1.00
H449   H     0.87758   0.88924   0.04823   0.00000  Uiso   1.00
H450   H     0.78781   0.77807   0.28481   0.00000  Uiso   1.00
H451   H     0.87835   0.88882   0.29745   0.00000  Uiso   1.00
H452   H     0.78801   0.77800   0.03583   0.00000  Uiso   1.00
N453   N     0.83332   0.83332   0.28573   0.00000  Uiso   1.00
N454   N     0.83335   0.83334   0.04760   0.00000  Uiso   1.00
O455   O     0.83333   0.77225   0.20487   0.00000  Uiso   1.00
O456   O     0.83334   0.89442   0.12846   0.00000  Uiso   1.00
O457   O     0.83333   0.77226   0.12843   0.00000  Uiso   1.00
O458   O     0.83334   0.89441   0.20490   0.00000  Uiso   1.00
O459   O     0.75725   0.83333   0.19595   0.00000  Uiso   1.00
O460   O     0.90942   0.83334   0.13739   0.00000  Uiso   1.00
O461   O     0.75725   0.83334   0.11950   0.00000  Uiso   1.00
O462   O     0.90942   0.83333   0.21383   0.00000  Uiso   1.00
Zn463  Zn    0.83333   0.83333   0.21771   0.00000  Uiso   1.00
Zn464  Zn    0.83333   0.83334   0.11563   0.00000  Uiso   1.00
C465   C     0.98831   0.85786   0.09942   0.00000  Uiso   1.00
H466   H     0.68389   0.87120   0.07927   0.00000  Uiso   1.00
H467   H     0.97157   0.82919   0.08149   0.00000  Uiso   1.00
H468   H     0.95829   0.88241   0.09908   0.00000  Uiso   1.00
C469   C     0.67880   0.85662   0.23479   0.00000  Uiso   1.00
H470   H     0.98359   0.87030   0.25510   0.00000  Uiso   1.00
H471   H     0.69401   0.82733   0.25183   0.00000  Uiso   1.00
H472   H     0.71014   0.88047   0.23644   0.00000  Uiso   1.00
C473   C     0.92107   0.71326   0.14037   0.00000  Uiso   1.00
H474   H     0.93263   0.74272   0.15728   0.00000  Uiso   1.00
O475   O     0.94394   0.70159   0.10939   0.00000  Uiso   1.00
C476   C     0.74496   0.95407   0.19171   0.00000  Uiso   1.00
H477   H     0.73244   0.92569   0.17311   0.00000  Uiso   1.00
O478   O     0.72260   0.96484   0.22337   0.00000  Uiso   1.00
C479   C     0.92646   0.95548   0.14738   0.00000  Uiso   1.00
H480   H     0.92792   0.92316   0.16038   0.00000  Uiso   1.00
H481   H     0.92900   0.95467   0.11018   0.00000  Uiso   1.00
H482   H     0.96166   0.97110   0.16623   0.00000  Uiso   1.00
C483   C     0.74060   0.71189   0.18736   0.00000  Uiso   1.00
H484   H     0.73947   0.74486   0.17611   0.00000  Uiso   1.00
H485   H     0.70515   0.69712   0.16788   0.00000  Uiso   1.00
H486   H     0.73803   0.71144   0.22455   0.00000  Uiso   1.00
C487   C     0.16649   0.08687   0.49985   0.00000  Uiso   1.00
C488   C     0.16673   0.24658   0.50014   0.00000  Uiso   1.00
C489   C     0.06741   0.17111   0.48819   0.00000  Uiso   1.00
C490   C     0.26601   0.17103   0.51191   0.00000  Uiso   1.00
C491   C     0.01309   0.18117   0.48176   0.00000  Uiso   1.00
C492   C     0.32051   0.18102   0.51868   0.00000  Uiso   1.00
C493   C     0.20975   0.02213   0.48691   0.00000  Uiso   1.00
C494   C     0.12342   0.31166   0.51290   0.00000  Uiso   1.00
C495   C     0.21085   0.31199   0.48858   0.00000  Uiso   1.00
C496   C     0.12253   0.02181   0.51177   0.00000  Uiso   1.00
C497   C     0.16705   0.29086   0.50050   0.00000  Uiso   1.00
C498   C     0.16620   0.04279   0.49953   0.00000  Uiso   1.00
C499   C     0.19144   0.19763   0.36075   0.00000  Uiso   1.00
C500   C     0.14142   0.13593   0.63915   0.00000  Uiso   1.00
C501   C     0.19165   0.19751   0.64616   0.00000  Uiso   1.00
C502   C     0.14151   0.13590   0.35380   0.00000  Uiso   1.00
H503   H     0.21091   0.22257   0.38157   0.00000  Uiso   1.00
H504   H     0.12114   0.11140   0.61814   0.00000  Uiso   1.00
H505   H     0.21168   0.22215   0.63078   0.00000  Uiso   1.00
H506   H     0.12135   0.11133   0.36916   0.00000  Uiso   1.00
N507   N     0.16665   0.16666   0.61907   0.00000  Uiso   1.00
N508   N     0.16668   0.16668   0.38093   0.00000  Uiso   1.00
O509   O     0.16666   0.10558   0.53821   0.00000  Uiso   1.00
O510   O     0.16667   0.22775   0.46179   0.00000  Uiso   1.00
O511   O     0.16666   0.10559   0.46176   0.00000  Uiso   1.00
O512   O     0.16667   0.22774   0.53824   0.00000  Uiso   1.00
O513   O     0.09058   0.16666   0.52928   0.00000  Uiso   1.00
O514   O     0.24275   0.16667   0.47072   0.00000  Uiso   1.00
O515   O     0.09058   0.16667   0.45284   0.00000  Uiso   1.00
O516   O     0.24275   0.16666   0.54716   0.00000  Uiso   1.00
Zn517  Zn    0.16667   0.16666   0.55104   0.00000  Uiso   1.00
Zn518  Zn    0.16667   0.16667   0.44896   0.00000  Uiso   1.00
C519   C     0.32165   0.19120   0.43275   0.00000  Uiso   1.00
H520   H     0.01722   0.20454   0.41260   0.00000  Uiso   1.00
H521   H     0.30490   0.16253   0.41482   0.00000  Uiso   1.00
H522   H     0.29162   0.21574   0.43241   0.00000  Uiso   1.00
C523   C     0.01213   0.18995   0.56813   0.00000  Uiso   1.00
H524   H     0.31692   0.20363   0.58843   0.00000  Uiso   1.00
H525   H     0.02734   0.16066   0.58517   0.00000  Uiso   1.00
H526   H     0.04347   0.21381   0.56977   0.00000  Uiso   1.00
C527   C     0.25440   0.04659   0.47370   0.00000  Uiso   1.00
H528   H     0.26596   0.07606   0.49061   0.00000  Uiso   1.00
O529   O     0.27727   0.03492   0.44272   0.00000  Uiso   1.00
C530   C     0.07829   0.28741   0.52505   0.00000  Uiso   1.00
H531   H     0.06577   0.25902   0.50644   0.00000  Uiso   1.00
O532   O     0.05594   0.29817   0.55670   0.00000  Uiso   1.00
C533   C     0.25979   0.28881   0.48071   0.00000  Uiso   1.00
H534   H     0.26125   0.25649   0.49371   0.00000  Uiso   1.00
H535   H     0.26233   0.28800   0.44351   0.00000  Uiso   1.00
H536   H     0.29500   0.30443   0.49956   0.00000  Uiso   1.00
C537   C     0.07394   0.04523   0.52069   0.00000  Uiso   1.00
H538   H     0.07281   0.07819   0.50944   0.00000  Uiso   1.00
H539   H     0.03848   0.03045   0.50121   0.00000  Uiso   1.00
H540   H     0.07136   0.04477   0.55789   0.00000  Uiso   1.00
C541   C     0.49982   0.08687   0.49985   0.00000  Uiso   1.00
C542   C     0.50007   0.24658   0.50014   0.00000  Uiso   1.00
C543   C     0.40075   0.17111   0.48819   0.00000  Uiso   1.00
C544   C     0.59934   0.17103   0.51191   0.00000  Uiso   1.00
C545   C     0.34643   0.18117   0.48176   0.00000  Uiso   1.00
C546   C     0.65384   0.18102   0.51868   0.00000  Uiso   1.00
C547   C     0.54309   0.02213   0.48691   0.00000  Uiso   1.00
C548   C     0.45675   0.31166   0.51290   0.00000  Uiso   1.00
C549   C     0.54418   0.31199   0.48858   0.00000  Uiso   1.00
C550   C     0.45586   0.02181   0.51177   0.00000  Uiso   1.00
C551   C     0.50038   0.29086   0.50050   0.00000  Uiso   1.00
C552   C     0.49953   0.04279   0.49953   0.00000  Uiso   1.00
C553   C     0.52478   0.19763   0.36075   0.00000  Uiso   1.00
C554   C     0.47475   0.13593   0.63915   0.00000  Uiso   1.00
C555   C     0.52498   0.19751   0.64616   0.00000  Uiso   1.00
C556   C     0.47484   0.13590   0.35380   0.00000  Uiso   1.00
H557   H     0.54424   0.22257   0.38157   0.00000  Uiso   1.00
H558   H     0.45447   0.11140   0.61814   0.00000  Uiso   1.00
H559   H     0.54502   0.22215   0.63078   0.00000  Uiso   1.00
H560   H     0.45468   0.11133   0.36916   0.00000  Uiso   1.00
N561   N     0.49999   0.16666   0.61907   0.00000  Uiso   1.00
N562   N     0.50001   0.16668   0.38093   0.00000  Uiso   1.00
O563   O     0.50000   0.10558   0.53821   0.00000  Uiso   1.00
O564   O     0.50000   0.22775   0.46179   0.00000  Uiso   1.00
O565   O     0.50000   0.10559   0.46176   0.00000  Uiso   1.00
O566   O     0.50000   0.22774   0.53824   0.00000  Uiso   1.00
O567   O     0.42392   0.16666   0.52928   0.00000  Uiso   1.00
O568   O     0.57608   0.16667   0.47072   0.00000  Uiso   1.00
O569   O     0.42392   0.16667   0.45284   0.00000  Uiso   1.00
O570   O     0.57608   0.16666   0.54716   0.00000  Uiso   1.00
Zn571  Zn    0.50000   0.16666   0.55104   0.00000  Uiso   1.00
Zn572  Zn    0.50000   0.16667   0.44896   0.00000  Uiso   1.00
C573   C     0.65498   0.19120   0.43275   0.00000  Uiso   1.00
H574   H     0.35055   0.20454   0.41260   0.00000  Uiso   1.00
H575   H     0.63823   0.16253   0.41482   0.00000  Uiso   1.00
H576   H     0.62496   0.21574   0.43241   0.00000  Uiso   1.00
C577   C     0.34547   0.18995   0.56813   0.00000  Uiso   1.00
H578   H     0.65025   0.20363   0.58843   0.00000  Uiso   1.00
H579   H     0.36067   0.16066   0.58517   0.00000  Uiso   1.00
H580   H     0.37681   0.21381   0.56977   0.00000  Uiso   1.00
C581   C     0.58773   0.04659   0.47370   0.00000  Uiso   1.00
H582   H     0.59930   0.07606   0.49061   0.00000  Uiso   1.00
O583   O     0.61061   0.03492   0.44272   0.00000  Uiso   1.00
C584   C     0.41163   0.28741   0.52505   0.00000  Uiso   1.00
H585   H     0.39911   0.25902   0.50644   0.00000  Uiso   1.00
O586   O     0.38927   0.29817   0.55670   0.00000  Uiso   1.00
C587   C     0.59313   0.28881   0.48071   0.00000  Uiso   1.00
H588   H     0.59459   0.25649   0.49371   0.00000  Uiso   1.00
H589   H     0.59567   0.28800   0.44351   0.00000  Uiso   1.00
H590   H     0.62833   0.30443   0.49956   0.00000  Uiso   1.00
C591   C     0.40727   0.04523   0.52069   0.00000  Uiso   1.00
H592   H     0.40614   0.07819   0.50944   0.00000  Uiso   1.00
H593   H     0.37181   0.03045   0.50121   0.00000  Uiso   1.00
H594   H     0.40470   0.04477   0.55789   0.00000  Uiso   1.00
C595   C     0.83316   0.08687   0.49985   0.00000  Uiso   1.00
C596   C     0.83340   0.24658   0.50014   0.00000  Uiso   1.00
C597   C     0.73408   0.17111   0.48819   0.00000  Uiso   1.00
C598   C     0.93268   0.17103   0.51191   0.00000  Uiso   1.00
C599   C     0.67976   0.18117   0.48176   0.00000  Uiso   1.00
C600   C     0.98718   0.18102   0.51868   0.00000  Uiso   1.00
C601   C     0.87642   0.02213   0.48691   0.00000  Uiso   1.00
C602   C     0.79009   0.31166   0.51290   0.00000  Uiso   1.00
C603   C     0.87751   0.31199   0.48858   0.00000  Uiso   1.00
C604   C     0.78920   0.02181   0.51177   0.00000  Uiso   1.00
C605   C     0.83371   0.29086   0.50050   0.00000  Uiso   1.00
C606   C     0.83286   0.04279   0.49953   0.00000  Uiso   1.00
C607   C     0.85811   0.19763   0.36075   0.00000  Uiso   1.00
C608   C     0.80809   0.13593   0.63915   0.00000  Uiso   1.00
C609   C     0.85832   0.19751   0.64616   0.00000  Uiso   1.00
C610   C     0.80818   0.13590   0.35380   0.00000  Uiso   1.00
H611   H     0.87758   0.22257   0.38157   0.00000  Uiso   1.00
H612   H     0.78781   0.11140   0.61814   0.00000  Uiso   1.00
H613   H     0.87835   0.22215   0.63078   0.00000  Uiso   1.00
H614   H     0.78801   0.11133   0.36916   0.00000  Uiso   1.00
N615   N     0.83332   0.16666   0.61907   0.00000  Uiso   1.00
N616   N     0.83335   0.16668   0.38093   0.00000  Uiso   1.00
O617   O     0.83333   0.10558   0.53821   0.00000  Uiso   1.00
O618   O     0.83334   0.22775   0.46179   0.00000  Uiso   1.00
O619   O     0.83333   0.10559   0.46176   0.00000  Uiso   1.00
O620   O     0.83334   0.22774   0.53824   0.00000  Uiso   1.00
O621   O     0.75725   0.16666   0.52928   0.00000  Uiso   1.00
O622   O     0.90942   0.16667   0.47072   0.00000  Uiso   1.00
O623   O     0.75725   0.16667   0.45284   0.00000  Uiso   1.00
O624   O     0.90942   0.16666   0.54716   0.00000  Uiso   1.00
Zn625  Zn    0.83333   0.16666   0.55104   0.00000  Uiso   1.00
Zn626  Zn    0.83333   0.16667   0.44896   0.00000  Uiso   1.00
C627   C     0.98831   0.19120   0.43275   0.00000  Uiso   1.00
H628   H     0.68389   0.20454   0.41260   0.00000  Uiso   1.00
H629   H     0.97157   0.16253   0.41482   0.00000  Uiso   1.00
H630   H     0.95829   0.21574   0.43241   0.00000  Uiso   1.00
C631   C     0.67880   0.18995   0.56813   0.00000  Uiso   1.00
H632   H     0.98359   0.20363   0.58843   0.00000  Uiso   1.00
H633   H     0.69401   0.16066   0.58517   0.00000  Uiso   1.00
H634   H     0.71014   0.21381   0.56977   0.00000  Uiso   1.00
C635   C     0.92107   0.04659   0.47370   0.00000  Uiso   1.00
H636   H     0.93263   0.07606   0.49061   0.00000  Uiso   1.00
O637   O     0.94394   0.03492   0.44272   0.00000  Uiso   1.00
C638   C     0.74496   0.28741   0.52505   0.00000  Uiso   1.00
H639   H     0.73244   0.25902   0.50644   0.00000  Uiso   1.00
O640   O     0.72260   0.29817   0.55670   0.00000  Uiso   1.00
C641   C     0.92646   0.28881   0.48071   0.00000  Uiso   1.00
H642   H     0.92792   0.25649   0.49371   0.00000  Uiso   1.00
H643   H     0.92900   0.28800   0.44351   0.00000  Uiso   1.00
H644   H     0.96166   0.30443   0.49956   0.00000  Uiso   1.00
C645   C     0.74060   0.04523   0.52069   0.00000  Uiso   1.00
H646   H     0.73947   0.07819   0.50944   0.00000  Uiso   1.00
H647   H     0.70515   0.03045   0.50121   0.00000  Uiso   1.00
H648   H     0.73803   0.04477   0.55789   0.00000  Uiso   1.00
C649   C     0.16649   0.42021   0.49985   0.00000  Uiso   1.00
C650   C     0.16673   0.57991   0.50014   0.00000  Uiso   1.00
C651   C     0.06741   0.50445   0.48819   0.00000  Uiso   1.00
C652   C     0.26601   0.50437   0.51191   0.00000  Uiso   1.00
C653   C     0.01309   0.51450   0.48176   0.00000  Uiso   1.00
C654   C     0.32051   0.51435   0.51868   0.00000  Uiso   1.00
C655   C     0.20975   0.35546   0.48691   0.00000  Uiso   1.00
C656   C     0.12342   0.64499   0.51290   0.00000  Uiso   1.00
C657   C     0.21085   0.64533   0.48858   0.00000  Uiso   1.00
C658   C     0.12253   0.35515   0.51177   0.00000  Uiso   1.00
C659   C     0.16705   0.62420   0.50050   0.00000  Uiso   1.00
C660   C     0.16620   0.37613   0.49953   0.00000  Uiso   1.00
C661   C     0.19144   0.53096   0.36075   0.00000  Uiso   1.00
C662   C     0.14142   0.46926   0.63915   0.00000  Uiso   1.00
C663   C     0.19165   0.53085   0.64616   0.00000  Uiso   1.00
C664   C     0.14151   0.46923   0.35380   0.00000  Uiso   1.00
H665   H     0.21091   0.55590   0.38157   0.00000  Uiso   1.00
H666   H     0.12114   0.44474   0.61814   0.00000  Uiso   1.00
H667   H     0.21168   0.55548   0.63078   0.00000  Uiso   1.00
H668   H     0.12135   0.44467   0.36916   0.00000  Uiso   1.00
N669   N     0.16665   0.49999   0.61907   0.00000  Uiso   1.00
N670   N     0.16668   0.50001   0.38093   0.00000  Uiso   1.00
O671   O     0.16666   0.43892   0.53821   0.00000  Uiso   1.00
O672   O     0.16667   0.56108   0.46179   0.00000  Uiso   1.00
O673   O     0.16666   0.43893   0.46176   0.00000  Uiso   1.00
O674   O     0.16667   0.56107   0.53824   0.00000  Uiso   1.00
O675   O     0.09058   0.50000   0.52928   0.00000  Uiso   1.00
O676   O     0.24275   0.50000   0.47072   0.00000  Uiso   1.00
O677   O     0.09058   0.50000   0.45284   0.00000  Uiso   1.00
O678   O     0.24275   0.50000   0.54716   0.00000  Uiso   1.00
Zn679  Zn    0.16667   0.49999   0.55104   0.00000  Uiso   1.00
Zn680  Zn    0.16667   0.50001   0.44896   0.00000  Uiso   1.00
C681   C     0.32165   0.52453   0.43275   0.00000  Uiso   1.00
H682   H     0.01722   0.53787   0.41260   0.00000  Uiso   1.00
H683   H     0.30490   0.49586   0.41482   0.00000  Uiso   1.00
H684   H     0.29162   0.54908   0.43241   0.00000  Uiso   1.00
C685   C     0.01213   0.52328   0.56813   0.00000  Uiso   1.00
H686   H     0.31692   0.53696   0.58843   0.00000  Uiso   1.00
H687   H     0.02734   0.49399   0.58517   0.00000  Uiso   1.00
H688   H     0.04347   0.54714   0.56977   0.00000  Uiso   1.00
C689   C     0.25440   0.37992   0.47370   0.00000  Uiso   1.00
H690   H     0.26596   0.40939   0.49061   0.00000  Uiso   1.00
O691   O     0.27727   0.36825   0.44272   0.00000  Uiso   1.00
C692   C     0.07829   0.62074   0.52505   0.00000  Uiso   1.00
H693   H     0.06577   0.59235   0.50644   0.00000  Uiso   1.00
O694   O     0.05594   0.63150   0.55670   0.00000  Uiso   1.00
C695   C     0.25979   0.62215   0.48071   0.00000  Uiso   1.00
H696   H     0.26125   0.58982   0.49371   0.00000  Uiso   1.00
H697   H     0.26233   0.62134   0.44351   0.00000  Uiso   1.00
H698   H     0.29500   0.63777   0.49956   0.00000  Uiso   1.00
C699   C     0.07394   0.37856   0.52069   0.00000  Uiso   1.00
H700   H     0.07281   0.41153   0.50944   0.00000  Uiso   1.00
H701   H     0.03848   0.36379   0.50121   0.00000  Uiso   1.00
H702   H     0.07136   0.37811   0.55789   0.00000  Uiso   1.00
C703   C     0.49982   0.42021   0.49985   0.00000  Uiso   1.00
C704   C     0.50007   0.57991   0.50014   0.00000  Uiso   1.00
C705   C     0.40075   0.50445   0.48819   0.00000  Uiso   1.00
C706   C     0.59934   0.50437   0.51191   0.00000  Uiso   1.00
C707   C     0.34643   0.51450   0.48176   0.00000  Uiso   1.00
C708   C     0.65384   0.51435   0.51868   0.00000  Uiso   1.00
C709   C     0.54309   0.35546   0.48691   0.00000  Uiso   1.00
C710   C     0.45675   0.64499   0.51290   0.00000  Uiso   1.00
C711   C     0.54418   0.64533   0.48858   0.00000  Uiso   1.00
C712   C     0.45586   0.35515   0.51177   0.00000  Uiso   1.00
C713   C     0.50038   0.62420   0.50050   0.00000  Uiso   1.00
C714   C     0.49953   0.37613   0.49953   0.00000  Uiso   1.00
C715   C     0.52478   0.53096   0.36075   0.00000  Uiso   1.00
C716   C     0.47475   0.46926   0.63915   0.00000  Uiso   1.00
C717   C     0.52498   0.53085   0.64616   0.00000  Uiso   1.00
C718   C     0.47484   0.46923   0.35380   0.00000  Uiso   1.00
H719   H     0.54424   0.55590   0.38157   0.00000  Uiso   1.00
H720   H     0.45447   0.44474   0.61814   0.00000  Uiso   1.00
H721   H     0.54502   0.55548   0.63078   0.00000  Uiso   1.00
H722   H     0.45468   0.44467   0.36916   0.00000  Uiso   1.00
N723   N     0.49999   0.49999   0.61907   0.00000  Uiso   1.00
N724   N     0.50001   0.50001   0.38093   0.00000  Uiso   1.00
O725   O     0.50000   0.43892   0.53821   0.00000  Uiso   1.00
O726   O     0.50000   0.56108   0.46179   0.00000  Uiso   1.00
O727   O     0.50000   0.43893   0.46176   0.00000  Uiso   1.00
O728   O     0.50000   0.56107   0.53824   0.00000  Uiso   1.00
O729   O     0.42392   0.50000   0.52928   0.00000  Uiso   1.00
O730   O     0.57608   0.50000   0.47072   0.00000  Uiso   1.00
O731   O     0.42392   0.50000   0.45284   0.00000  Uiso   1.00
O732   O     0.57608   0.50000   0.54716   0.00000  Uiso   1.00
Zn733  Zn    0.50000   0.49999   0.55104   0.00000  Uiso   1.00
Zn734  Zn    0.50000   0.50001   0.44896   0.00000  Uiso   1.00
C735   C     0.65498   0.52453   0.43275   0.00000  Uiso   1.00
H736   H     0.35055   0.53787   0.41260   0.00000  Uiso   1.00
H737   H     0.63823   0.49586   0.41482   0.00000  Uiso   1.00
H738   H     0.62496   0.54908   0.43241   0.00000  Uiso   1.00
C739   C     0.34547   0.52328   0.56813   0.00000  Uiso   1.00
H740   H     0.65025   0.53696   0.58843   0.00000  Uiso   1.00
H741   H     0.36067   0.49399   0.58517   0.00000  Uiso   1.00
H742   H     0.37681   0.54714   0.56977   0.00000  Uiso   1.00
C743   C     0.58773   0.37992   0.47370   0.00000  Uiso   1.00
H744   H     0.59930   0.40939   0.49061   0.00000  Uiso   1.00
O745   O     0.61061   0.36825   0.44272   0.00000  Uiso   1.00
C746   C     0.41163   0.62074   0.52505   0.00000  Uiso   1.00
H747   H     0.39911   0.59235   0.50644   0.00000  Uiso   1.00
O748   O     0.38927   0.63150   0.55670   0.00000  Uiso   1.00
C749   C     0.59313   0.62215   0.48071   0.00000  Uiso   1.00
H750   H     0.59459   0.58982   0.49371   0.00000  Uiso   1.00
H751   H     0.59567   0.62134   0.44351   0.00000  Uiso   1.00
H752   H     0.62833   0.63777   0.49956   0.00000  Uiso   1.00
C753   C     0.40727   0.37856   0.52069   0.00000  Uiso   1.00
H754   H     0.40614   0.41153   0.50944   0.00000  Uiso   1.00
H755   H     0.37181   0.36379   0.50121   0.00000  Uiso   1.00
H756   H     0.40470   0.37811   0.55789   0.00000  Uiso   1.00
C757   C     0.83316   0.42021   0.49985   0.00000  Uiso   1.00
C758   C     0.83340   0.57991   0.50014   0.00000  Uiso   1.00
C759   C     0.73408   0.50445   0.48819   0.00000  Uiso   1.00
C760   C     0.93268   0.50437   0.51191   0.00000  Uiso   1.00
C761   C     0.67976   0.51450   0.48176   0.00000  Uiso   1.00
C762   C     0.98718   0.51435   0.51868   0.00000  Uiso   1.00
C763   C     0.87642   0.35546   0.48691   0.00000  Uiso   1.00
C764   C     0.79009   0.64499   0.51290   0.00000  Uiso   1.00
C765   C     0.87751   0.64533   0.48858   0.00000  Uiso   1.00
C766   C     0.78920   0.35515   0.51177   0.00000  Uiso   1.00
C767   C     0.83371   0.62420   0.50050   0.00000  Uiso   1.00
C768   C     0.83286   0.37613   0.49953   0.00000  Uiso   1.00
C769   C     0.85811   0.53096   0.36075   0.00000  Uiso   1.00
C770   C     0.80809   0.46926   0.63915   0.00000  Uiso   1.00
C771   C     0.85832   0.53085   0.64616   0.00000  Uiso   1.00
C772   C     0.80818   0.46923   0.35380   0.00000  Uiso   1.00
H773   H     0.87758   0.55590   0.38157   0.00000  Uiso   1.00
H774   H     0.78781   0.44474   0.61814   0.00000  Uiso   1.00
H775   H     0.87835   0.55548   0.63078   0.00000  Uiso   1.00
H776   H     0.78801   0.44467   0.36916   0.00000  Uiso   1.00
N777   N     0.83332   0.49999   0.61907   0.00000  Uiso   1.00
N778   N     0.83335   0.50001   0.38093   0.00000  Uiso   1.00
O779   O     0.83333   0.43892   0.53821   0.00000  Uiso   1.00
O780   O     0.83334   0.56108   0.46179   0.00000  Uiso   1.00
O781   O     0.83333   0.43893   0.46176   0.00000  Uiso   1.00
O782   O     0.83334   0.56107   0.53824   0.00000  Uiso   1.00
O783   O     0.75725   0.50000   0.52928   0.00000  Uiso   1.00
O784   O     0.90942   0.50000   0.47072   0.00000  Uiso   1.00
O785   O     0.75725   0.50000   0.45284   0.00000  Uiso   1.00
O786   O     0.90942   0.50000   0.54716   0.00000  Uiso   1.00
Zn787  Zn    0.83333   0.49999   0.55104   0.00000  Uiso   1.00
Zn788  Zn    0.83333   0.50001   0.44896   0.00000  Uiso   1.00
C789   C     0.98831   0.52453   0.43275   0.00000  Uiso   1.00
H790   H     0.68389   0.53787   0.41260   0.00000  Uiso   1.00
H791   H     0.97157   0.49586   0.41482   0.00000  Uiso   1.00
H792   H     0.95829   0.54908   0.43241   0.00000  Uiso   1.00
C793   C     0.67880   0.52328   0.56813   0.00000  Uiso   1.00
H794   H     0.98359   0.53696   0.58843   0.00000  Uiso   1.00
H795   H     0.69401   0.49399   0.58517   0.00000  Uiso   1.00
H796   H     0.71014   0.54714   0.56977   0.00000  Uiso   1.00
C797   C     0.92107   0.37992   0.47370   0.00000  Uiso   1.00
H798   H     0.93263   0.40939   0.49061   0.00000  Uiso   1.00
O799   O     0.94394   0.36825   0.44272   0.00000  Uiso   1.00
C800   C     0.74496   0.62074   0.52505   0.00000  Uiso   1.00
H801   H     0.73244   0.59235   0.50644   0.00000  Uiso   1.00
O802   O     0.72260   0.63150   0.55670   0.00000  Uiso   1.00
C803   C     0.92646   0.62215   0.48071   0.00000  Uiso   1.00
H804   H     0.92792   0.58982   0.49371   0.00000  Uiso   1.00
H805   H     0.92900   0.62134   0.44351   0.00000  Uiso   1.00
H806   H     0.96166   0.63777   0.49956   0.00000  Uiso   1.00
C807   C     0.74060   0.37856   0.52069   0.00000  Uiso   1.00
H808   H     0.73947   0.41153   0.50944   0.00000  Uiso   1.00
H809   H     0.70515   0.36379   0.50121   0.00000  Uiso   1.00
H810   H     0.73803   0.37811   0.55789   0.00000  Uiso   1.00
C811   C     0.16649   0.75354   0.49985   0.00000  Uiso   1.00
C812   C     0.16673   0.91324   0.50014   0.00000  Uiso   1.00
C813   C     0.06741   0.83778   0.48819   0.00000  Uiso   1.00
C814   C     0.26601   0.83770   0.51191   0.00000  Uiso   1.00
C815   C     0.01309   0.84784   0.48176   0.00000  Uiso   1.00
C816   C     0.32051   0.84769   0.51868   0.00000  Uiso   1.00
C817   C     0.20975   0.68880   0.48691   0.00000  Uiso   1.00
C818   C     0.12342   0.97833   0.51290   0.00000  Uiso   1.00
C819   C     0.21085   0.97866   0.48858   0.00000  Uiso   1.00
C820   C     0.12253   0.68848   0.51177   0.00000  Uiso   1.00
C821   C     0.16705   0.95753   0.50050   0.00000  Uiso   1.00
C822   C     0.16620   0.70946   0.49953   0.00000  Uiso   1.00
C823   C     0.19144   0.86430   0.36075   0.00000  Uiso   1.00
C824   C     0.14142   0.80259   0.63915   0.00000  Uiso   1.00
C825   C     0.19165   0.86418   0.64616   0.00000  Uiso   1.00
C826   C     0.14151   0.80257   0.35380   0.00000  Uiso   1.00
H827   H     0.21091   0.88924   0.38157   0.00000  Uiso   1.00
H828   H     0.12114   0.77807   0.61814   0.00000  Uiso   1.00
H829   H     0.21168   0.88882   0.63078   0.00000  Uiso   1.00
H830   H     0.12135   0.77800   0.36916   0.00000  Uiso   1.00
N831   N     0.16665   0.83332   0.61907   0.00000  Uiso   1.00
N832   N     0.16668   0.83334   0.38093   0.00000  Uiso   1.00
O833   O     0.16666   0.77225   0.53821   0.00000  Uiso   1.00
O834   O     0.16667   0.89442   0.46179   0.00000  Uiso   1.00
O835   O     0.16666   0.77226   0.46176   0.00000  Uiso   1.00
O836   O     0.16667   0.89441   0.53824   0.00000  Uiso   1.00
O837   O     0.09058   0.83333   0.52928   0.00000  Uiso   1.00
O838   O     0.24275   0.83334   0.47072   0.00000  Uiso   1.00
O839   O     0.09058   0.83334   0.45284   0.00000  Uiso   1.00
O840   O     0.24275   0.83333   0.54716   0.00000  Uiso   1.00
Zn841  Zn    0.16667   0.83333   0.55104   0.00000  Uiso   1.00
Zn842  Zn    0.16667   0.83334   0.44896   0.00000  Uiso   1.00
C843   C     0.32165   0.85786   0.43275   0.00000  Uiso   1.00
H844   H     0.01722   0.87120   0.41260   0.00000  Uiso   1.00
H845   H     0.30490   0.82919   0.41482   0.00000  Uiso   1.00
H846   H     0.29162   0.88241   0.43241   0.00000  Uiso   1.00
C847   C     0.01213   0.85662   0.56813   0.00000  Uiso   1.00
H848   H     0.31692   0.87030   0.58843   0.00000  Uiso   1.00
H849   H     0.02734   0.82733   0.58517   0.00000  Uiso   1.00
H850   H     0.04347   0.88047   0.56977   0.00000  Uiso   1.00
C851   C     0.25440   0.71326   0.47370   0.00000  Uiso   1.00
H852   H     0.26596   0.74272   0.49061   0.00000  Uiso   1.00
O853   O     0.27727   0.70159   0.44272   0.00000  Uiso   1.00
C854   C     0.07829   0.95407   0.52505   0.00000  Uiso   1.00
H855   H     0.06577   0.92569   0.50644   0.00000  Uiso   1.00
O856   O     0.05594   0.96484   0.55670   0.00000  Uiso   1.00
C857   C     0.25979   0.95548   0.48071   0.00000  Uiso   1.00
H858   H     0.26125   0.92316   0.49371   0.00000  Uiso   1.00
H859   H     0.26233   0.95467   0.44351   0.00000  Uiso   1.00
H860   H     0.29500   0.97110   0.49956   0.00000  Uiso   1.00
C861   C     0.07394   0.71189   0.52069   0.00000  Uiso   1.00
H862   H     0.07281   0.74486   0.50944   0.00000  Uiso   1.00
H863   H     0.03848   0.69712   0.50121   0.00000  Uiso   1.00
H864   H     0.07136   0.71144   0.55789   0.00000  Uiso   1.00
C865   C     0.49982   0.75354   0.49985   0.00000  Uiso   1.00
C866   C     0.50007   0.91324   0.50014   0.00000  Uiso   1.00
C867   C     0.40075   0.83778   0.48819   0.00000  Uiso   1.00
C868   C     0.59934   0.83770   0.51191   0.00000  Uiso   1.00
C869   C     0.34643   0.84784   0.48176   0.00000  Uiso   1.00
C870   C     0.65384   0.84769   0.51868   0.00000  Uiso   1.00
C871   C     0.54309   0.68880   0.48691   0.00000  Uiso   1.00
C872   C     0.45675   0.97833   0.51290   0.00000  Uiso   1.00
C873   C     0.54418   0.97866   0.48858   0.00000  Uiso   1.00
C874   C     0.45586   0.68848   0.51177   0.00000  Uiso   1.00
C875   C     0.50038   0.95753   0.50050   0.00000  Uiso   1.00
C876   C     0.49953   0.70946   0.49953   0.00000  Uiso   1.00
C877   C     0.52478   0.86430   0.36075   0.00000  Uiso   1.00
C878   C     0.47475   0.80259   0.63915   0.00000  Uiso   1.00
C879   C     0.52498   0.86418   0.64616   0.00000  Uiso   1.00
C880   C     0.47484   0.80257   0.35380   0.00000  Uiso   1.00
H881   H     0.54424   0.88924   0.38157   0.00000  Uiso   1.00
H882   H     0.45447   0.77807   0.61814   0.00000  Uiso   1.00
H883   H     0.54502   0.88882   0.63078   0.00000  Uiso   1.00
H884   H     0.45468   0.77800   0.36916   0.00000  Uiso   1.00
N885   N     0.49999   0.83332   0.61907   0.00000  Uiso   1.00
N886   N     0.50001   0.83334   0.38093   0.00000  Uiso   1.00
O887   O     0.50000   0.77225   0.53821   0.00000  Uiso   1.00
O888   O     0.50000   0.89442   0.46179   0.00000  Uiso   1.00
O889   O     0.50000   0.77226   0.46176   0.00000  Uiso   1.00
O890   O     0.50000   0.89441   0.53824   0.00000  Uiso   1.00
O891   O     0.42392   0.83333   0.52928   0.00000  Uiso   1.00
O892   O     0.57608   0.83334   0.47072   0.00000  Uiso   1.00
O893   O     0.42392   0.83334   0.45284   0.00000  Uiso   1.00
O894   O     0.57608   0.83333   0.54716   0.00000  Uiso   1.00
Zn895  Zn    0.50000   0.83333   0.55104   0.00000  Uiso   1.00
Zn896  Zn    0.50000   0.83334   0.44896   0.00000  Uiso   1.00
C897   C     0.65498   0.85786   0.43275   0.00000  Uiso   1.00
H898   H     0.35055   0.87120   0.41260   0.00000  Uiso   1.00
H899   H     0.63823   0.82919   0.41482   0.00000  Uiso   1.00
H900   H     0.62496   0.88241   0.43241   0.00000  Uiso   1.00
C901   C     0.34547   0.85662   0.56813   0.00000  Uiso   1.00
H902   H     0.65025   0.87030   0.58843   0.00000  Uiso   1.00
H903   H     0.36067   0.82733   0.58517   0.00000  Uiso   1.00
H904   H     0.37681   0.88047   0.56977   0.00000  Uiso   1.00
C905   C     0.58773   0.71326   0.47370   0.00000  Uiso   1.00
H906   H     0.59930   0.74272   0.49061   0.00000  Uiso   1.00
O907   O     0.61061   0.70159   0.44272   0.00000  Uiso   1.00
C908   C     0.41163   0.95407   0.52505   0.00000  Uiso   1.00
H909   H     0.39911   0.92569   0.50644   0.00000  Uiso   1.00
O910   O     0.38927   0.96484   0.55670   0.00000  Uiso   1.00
C911   C     0.59313   0.95548   0.48071   0.00000  Uiso   1.00
H912   H     0.59459   0.92316   0.49371   0.00000  Uiso   1.00
H913   H     0.59567   0.95467   0.44351   0.00000  Uiso   1.00
H914   H     0.62833   0.97110   0.49956   0.00000  Uiso   1.00
C915   C     0.40727   0.71189   0.52069   0.00000  Uiso   1.00
H916   H     0.40614   0.74486   0.50944   0.00000  Uiso   1.00
H917   H     0.37181   0.69712   0.50121   0.00000  Uiso   1.00
H918   H     0.40470   0.71144   0.55789   0.00000  Uiso   1.00
C919   C     0.83316   0.75354   0.49985   0.00000  Uiso   1.00
C920   C     0.83340   0.91324   0.50014   0.00000  Uiso   1.00
C921   C     0.73408   0.83778   0.48819   0.00000  Uiso   1.00
C922   C     0.93268   0.83770   0.51191   0.00000  Uiso   1.00
C923   C     0.67976   0.84784   0.48176   0.00000  Uiso   1.00
C924   C     0.98718   0.84769   0.51868   0.00000  Uiso   1.00
C925   C     0.87642   0.68880   0.48691   0.00000  Uiso   1.00
C926   C     0.79009   0.97833   0.51290   0.00000  Uiso   1.00
C927   C     0.87751   0.97866   0.48858   0.00000  Uiso   1.00
C928   C     0.78920   0.68848   0.51177   0.00000  Uiso   1.00
C929   C     0.83371   0.95753   0.50050   0.00000  Uiso   1.00
C930   C     0.83286   0.70946   0.49953   0.00000  Uiso   1.00
C931   C     0.85811   0.86430   0.36075   0.00000  Uiso   1.00
C932   C     0.80809   0.80259   0.63915   0.00000  Uiso   1.00
C933   C     0.85832   0.86418   0.64616   0.00000  Uiso   1.00
C934   C     0.80818   0.80257   0.35380   0.00000  Uiso   1.00
H935   H     0.87758   0.88924   0.38157   0.00000  Uiso   1.00
H936   H     0.78781   0.77807   0.61814   0.00000  Uiso   1.00
H937   H     0.87835   0.88882   0.63078   0.00000  Uiso   1.00
H938   H     0.78801   0.77800   0.36916   0.00000  Uiso   1.00
N939   N     0.83332   0.83332   0.61907   0.00000  Uiso   1.00
N940   N     0.83335   0.83334   0.38093   0.00000  Uiso   1.00
O941   O     0.83333   0.77225   0.53821   0.00000  Uiso   1.00
O942   O     0.83334   0.89442   0.46179   0.00000  Uiso   1.00
O943   O     0.83333   0.77226   0.46176   0.00000  Uiso   1.00
O944   O     0.83334   0.89441   0.53824   0.00000  Uiso   1.00
O945   O     0.75725   0.83333   0.52928   0.00000  Uiso   1.00
O946   O     0.90942   0.83334   0.47072   0.00000  Uiso   1.00
O947   O     0.75725   0.83334   0.45284   0.00000  Uiso   1.00
O948   O     0.90942   0.83333   0.54716   0.00000  Uiso   1.00
Zn949  Zn    0.83333   0.83333   0.55104   0.00000  Uiso   1.00
Zn950  Zn    0.83333   0.83334   0.44896   0.00000  Uiso   1.00
C951   C     0.98831   0.85786   0.43275   0.00000  Uiso   1.00
H952   H     0.68389   0.87120   0.41260   0.00000  Uiso   1.00
H953   H     0.97157   0.82919   0.41482   0.00000  Uiso   1.00
H954   H     0.95829   0.88241   0.43241   0.00000  Uiso   1.00
C955   C     0.67880   0.85662   0.56813   0.00000  Uiso   1.00
H956   H     0.98359   0.87030   0.58843   0.00000  Uiso   1.00
H957   H     0.69401   0.82733   0.58517   0.00000  Uiso   1.00
H958   H     0.71014   0.88047   0.56977   0.00000  Uiso   1.00
C959   C     0.92107   0.71326   0.47370   0.00000  Uiso   1.00
H960   H     0.93263   0.74272   0.49061   0.00000  Uiso   1.00
O961   O     0.94394   0.70159   0.44272   0.00000  Uiso   1.00
C962   C     0.74496   0.95407   0.52505   0.00000  Uiso   1.00
H963   H     0.73244   0.92569   0.50644   0.00000  Uiso   1.00
O964   O     0.72260   0.96484   0.55670   0.00000  Uiso   1.00
C965   C     0.92646   0.95548   0.48071   0.00000  Uiso   1.00
H966   H     0.92792   0.92316   0.49371   0.00000  Uiso   1.00
H967   H     0.92900   0.95467   0.44351   0.00000  Uiso   1.00
H968   H     0.96166   0.97110   0.49956   0.00000  Uiso   1.00
C969   C     0.74060   0.71189   0.52069   0.00000  Uiso   1.00
H970   H     0.73947   0.74486   0.50944   0.00000  Uiso   1.00
H971   H     0.70515   0.69712   0.50121   0.00000  Uiso   1.00
H972   H     0.73803   0.71144   0.55789   0.00000  Uiso   1.00
C973   C     0.16649   0.08687   0.83318   0.00000  Uiso   1.00
C974   C     0.16673   0.24658   0.83347   0.00000  Uiso   1.00
C975   C     0.06741   0.17111   0.82153   0.00000  Uiso   1.00
C976   C     0.26601   0.17103   0.84524   0.00000  Uiso   1.00
C977   C     0.01309   0.18117   0.81509   0.00000  Uiso   1.00
C978   C     0.32051   0.18102   0.85201   0.00000  Uiso   1.00
C979   C     0.20975   0.02213   0.82024   0.00000  Uiso   1.00
C980   C     0.12342   0.31166   0.84624   0.00000  Uiso   1.00
C981   C     0.21085   0.31199   0.82192   0.00000  Uiso   1.00
C982   C     0.12253   0.02181   0.84510   0.00000  Uiso   1.00
C983   C     0.16705   0.29086   0.83383   0.00000  Uiso   1.00
C984   C     0.16620   0.04279   0.83286   0.00000  Uiso   1.00
C985   C     0.19144   0.19763   0.69408   0.00000  Uiso   1.00
C986   C     0.14142   0.13593   0.97248   0.00000  Uiso   1.00
C987   C     0.19165   0.19751   0.97949   0.00000  Uiso   1.00
C988   C     0.14151   0.13590   0.68714   0.00000  Uiso   1.00
H989   H     0.21091   0.22257   0.71490   0.00000  Uiso   1.00
H990   H     0.12114   0.11140   0.95148   0.00000  Uiso   1.00
H991   H     0.21168   0.22215   0.96412   0.00000  Uiso   1.00
H992   H     0.12135   0.11133   0.70249   0.00000  Uiso   1.00
N993   N     0.16665   0.16666   0.95240   0.00000  Uiso   1.00
N994   N     0.16668   0.16668   0.71427   0.00000  Uiso   1.00
O995   O     0.16666   0.10558   0.87154   0.00000  Uiso   1.00
O996   O     0.16667   0.22775   0.79513   0.00000  Uiso   1.00
O997   O     0.16666   0.10559   0.79510   0.00000  Uiso   1.00
O998   O     0.16667   0.22774   0.87157   0.00000  Uiso   1.00
O999   O     0.09058   0.16666   0.86261   0.00000  Uiso   1.00
O1000  O     0.24275   0.16667   0.80405   0.00000  Uiso   1.00
O1001  O     0.09058   0.16667   0.78617   0.00000  Uiso   1.00
O1002  O     0.24275   0.16666   0.88050   0.00000  Uiso   1.00
Zn1003 Zn    0.16667   0.16666   0.88437   0.00000  Uiso   1.00
Zn1004 Zn    0.16667   0.16667   0.78229   0.00000  Uiso   1.00
C1005  C     0.32165   0.19120   0.76608   0.00000  Uiso   1.00
H1006  H     0.01722   0.20454   0.74594   0.00000  Uiso   1.00
H1007  H     0.30490   0.16253   0.74816   0.00000  Uiso   1.00
H1008  H     0.29162   0.21574   0.76574   0.00000  Uiso   1.00
C1009  C     0.01213   0.18995   0.90146   0.00000  Uiso   1.00
H1010  H     0.31692   0.20363   0.92176   0.00000  Uiso   1.00
H1011  H     0.02734   0.16066   0.91850   0.00000  Uiso   1.00
H1012  H     0.04347   0.21381   0.90311   0.00000  Uiso   1.00
C1013  C     0.25440   0.04659   0.80703   0.00000  Uiso   1.00
H1014  H     0.26596   0.07606   0.82394   0.00000  Uiso   1.00
O1015  O     0.27727   0.03492   0.77606   0.00000  Uiso   1.00
C1016  C     0.07829   0.28741   0.85838   0.00000  Uiso   1.00
H1017  H     0.06577   0.25902   0.83978   0.00000  Uiso   1.00
O1018  O     0.05594   0.29817   0.89003   0.00000  Uiso   1.00
C1019  C     0.25979   0.28881   0.81404   0.00000  Uiso   1.00
H1020  H     0.26125   0.25649   0.82705   0.00000  Uiso   1.00
H1021  H     0.26233   0.28800   0.77685   0.00000  Uiso   1.00
H1022  H     0.29500   0.30443   0.83290   0.00000  Uiso   1.00
C1023  C     0.07394   0.04523   0.85402   0.00000  Uiso   1.00
H1024  H     0.07281   0.07819   0.84277   0.00000  Uiso   1.00
H1025  H     0.03848   0.03045   0.83455   0.00000  Uiso   1.00
H1026  H     0.07136   0.04477   0.89122   0.00000  Uiso   1.00
C1027  C     0.49982   0.08687   0.83318   0.00000  Uiso   1.00
C1028  C     0.50007   0.24658   0.83347   0.00000  Uiso   1.00
C1029  C     0.40075   0.17111   0.82153   0.00000  Uiso   1.00
C1030  C     0.59934   0.17103   0.84524   0.00000  Uiso   1.00
C1031  C     0.34643   0.18117   0.81509   0.00000  Uiso   1.00
C1032  C     0.65384   0.18102   0.85201   0.00000  Uiso   1.00
C1033  C     0.54309   0.02213   0.82024   0.00000  Uiso   1.00
C1034  C     0.45675   0.31166   0.84624   0.00000  Uiso   1.00
C1035  C     0.54418   0.31199   0.82192   0.00000  Uiso   1.00
C1036  C     0.45586   0.02181   0.84510   0.00000  Uiso   1.00
C1037  C     0.50038   0.29086   0.83383   0.00000  Uiso   1.00
C1038  C     0.49953   0.04279   0.83286   0.00000  Uiso   1.00
C1039  C     0.52478   0.19763   0.69408   0.00000  Uiso   1.00
C1040  C     0.47475   0.13593   0.97248   0.00000  Uiso   1.00
C1041  C     0.52498   0.19751   0.97949   0.00000  Uiso   1.00
C1042  C     0.47484   0.13590   0.68714   0.00000  Uiso   1.00
H1043  H     0.54424   0.22257   0.71490   0.00000  Uiso   1.00
H1044  H     0.45447   0.11140   0.95148   0.00000  Uiso   1.00
H1045  H     0.54502   0.22215   0.96412   0.00000  Uiso   1.00
H1046  H     0.45468   0.11133   0.70249   0.00000  Uiso   1.00
N1047  N     0.49999   0.16666   0.95240   0.00000  Uiso   1.00
N1048  N     0.50001   0.16668   0.71427   0.00000  Uiso   1.00
O1049  O     0.50000   0.10558   0.87154   0.00000  Uiso   1.00
O1050  O     0.50000   0.22775   0.79513   0.00000  Uiso   1.00
O1051  O     0.50000   0.10559   0.79510   0.00000  Uiso   1.00
O1052  O     0.50000   0.22774   0.87157   0.00000  Uiso   1.00
O1053  O     0.42392   0.16666   0.86261   0.00000  Uiso   1.00
O1054  O     0.57608   0.16667   0.80405   0.00000  Uiso   1.00
O1055  O     0.42392   0.16667   0.78617   0.00000  Uiso   1.00
O1056  O     0.57608   0.16666   0.88050   0.00000  Uiso   1.00
Zn1057 Zn    0.50000   0.16666   0.88437   0.00000  Uiso   1.00
Zn1058 Zn    0.50000   0.16667   0.78229   0.00000  Uiso   1.00
C1059  C     0.65498   0.19120   0.76608   0.00000  Uiso   1.00
H1060  H     0.35055   0.20454   0.74594   0.00000  Uiso   1.00
H1061  H     0.63823   0.16253   0.74816   0.00000  Uiso   1.00
H1062  H     0.62496   0.21574   0.76574   0.00000  Uiso   1.00
C1063  C     0.34547   0.18995   0.90146   0.00000  Uiso   1.00
H1064  H     0.65025   0.20363   0.92176   0.00000  Uiso   1.00
H1065  H     0.36067   0.16066   0.91850   0.00000  Uiso   1.00
H1066  H     0.37681   0.21381   0.90311   0.00000  Uiso   1.00
C1067  C     0.58773   0.04659   0.80703   0.00000  Uiso   1.00
H1068  H     0.59930   0.07606   0.82394   0.00000  Uiso   1.00
O1069  O     0.61061   0.03492   0.77606   0.00000  Uiso   1.00
C1070  C     0.41163   0.28741   0.85838   0.00000  Uiso   1.00
H1071  H     0.39911   0.25902   0.83978   0.00000  Uiso   1.00
O1072  O     0.38927   0.29817   0.89003   0.00000  Uiso   1.00
C1073  C     0.59313   0.28881   0.81404   0.00000  Uiso   1.00
H1074  H     0.59459   0.25649   0.82705   0.00000  Uiso   1.00
H1075  H     0.59567   0.28800   0.77685   0.00000  Uiso   1.00
H1076  H     0.62833   0.30443   0.83290   0.00000  Uiso   1.00
C1077  C     0.40727   0.04523   0.85402   0.00000  Uiso   1.00
H1078  H     0.40614   0.07819   0.84277   0.00000  Uiso   1.00
H1079  H     0.37181   0.03045   0.83455   0.00000  Uiso   1.00
H1080  H     0.40470   0.04477   0.89122   0.00000  Uiso   1.00
C1081  C     0.83316   0.08687   0.83318   0.00000  Uiso   1.00
C1082  C     0.83340   0.24658   0.83347   0.00000  Uiso   1.00
C1083  C     0.73408   0.17111   0.82153   0.00000  Uiso   1.00
C1084  C     0.93268   0.17103   0.84524   0.00000  Uiso   1.00
C1085  C     0.67976   0.18117   0.81509   0.00000  Uiso   1.00
C1086  C     0.98718   0.18102   0.85201   0.00000  Uiso   1.00
C1087  C     0.87642   0.02213   0.82024   0.00000  Uiso   1.00
C1088  C     0.79009   0.31166   0.84624   0.00000  Uiso   1.00
C1089  C     0.87751   0.31199   0.82192   0.00000  Uiso   1.00
C1090  C     0.78920   0.02181   0.84510   0.00000  Uiso   1.00
C1091  C     0.83371   0.29086   0.83383   0.00000  Uiso   1.00
C1092  C     0.83286   0.04279   0.83286   0.00000  Uiso   1.00
C1093  C     0.85811   0.19763   0.69408   0.00000  Uiso   1.00
C1094  C     0.80809   0.13593   0.97248   0.00000  Uiso   1.00
C1095  C     0.85832   0.19751   0.97949   0.00000  Uiso   1.00
C1096  C     0.80818   0.13590   0.68714   0.00000  Uiso   1.00
H1097  H     0.87758   0.22257   0.71490   0.00000  Uiso   1.00
H1098  H     0.78781   0.11140   0.95148   0.00000  Uiso   1.00
H1099  H     0.87835   0.22215   0.96412   0.00000  Uiso   1.00
H1100  H     0.78801   0.11133   0.70249   0.00000  Uiso   1.00
N1101  N     0.83332   0.16666   0.95240   0.00000  Uiso   1.00
N1102  N     0.83335   0.16668   0.71427   0.00000  Uiso   1.00
O1103  O     0.83333   0.10558   0.87154   0.00000  Uiso   1.00
O1104  O     0.83334   0.22775   0.79513   0.00000  Uiso   1.00
O1105  O     0.83333   0.10559   0.79510   0.00000  Uiso   1.00
O1106  O     0.83334   0.22774   0.87157   0.00000  Uiso   1.00
O1107  O     0.75725   0.16666   0.86261   0.00000  Uiso   1.00
O1108  O     0.90942   0.16667   0.80405   0.00000  Uiso   1.00
O1109  O     0.75725   0.16667   0.78617   0.00000  Uiso   1.00
O1110  O     0.90942   0.16666   0.88050   0.00000  Uiso   1.00
Zn1111 Zn    0.83333   0.16666   0.88437   0.00000  Uiso   1.00
Zn1112 Zn    0.83333   0.16667   0.78229   0.00000  Uiso   1.00
C1113  C     0.98831   0.19120   0.76608   0.00000  Uiso   1.00
H1114  H     0.68389   0.20454   0.74594   0.00000  Uiso   1.00
H1115  H     0.97157   0.16253   0.74816   0.00000  Uiso   1.00
H1116  H     0.95829   0.21574   0.76574   0.00000  Uiso   1.00
C1117  C     0.67880   0.18995   0.90146   0.00000  Uiso   1.00
H1118  H     0.98359   0.20363   0.92176   0.00000  Uiso   1.00
H1119  H     0.69401   0.16066   0.91850   0.00000  Uiso   1.00
H1120  H     0.71014   0.21381   0.90311   0.00000  Uiso   1.00
C1121  C     0.92107   0.04659   0.80703   0.00000  Uiso   1.00
H1122  H     0.93263   0.07606   0.82394   0.00000  Uiso   1.00
O1123  O     0.94394   0.03492   0.77606   0.00000  Uiso   1.00
C1124  C     0.74496   0.28741   0.85838   0.00000  Uiso   1.00
H1125  H     0.73244   0.25902   0.83978   0.00000  Uiso   1.00
O1126  O     0.72260   0.29817   0.89003   0.00000  Uiso   1.00
C1127  C     0.92646   0.28881   0.81404   0.00000  Uiso   1.00
H1128  H     0.92792   0.25649   0.82705   0.00000  Uiso   1.00
H1129  H     0.92900   0.28800   0.77685   0.00000  Uiso   1.00
H1130  H     0.96166   0.30443   0.83290   0.00000  Uiso   1.00
C1131  C     0.74060   0.04523   0.85402   0.00000  Uiso   1.00
H1132  H     0.73947   0.07819   0.84277   0.00000  Uiso   1.00
H1133  H     0.70515   0.03045   0.83455   0.00000  Uiso   1.00
H1134  H     0.73803   0.04477   0.89122   0.00000  Uiso   1.00
C1135  C     0.16649   0.42021   0.83318   0.00000  Uiso   1.00
C1136  C     0.16673   0.57991   0.83347   0.00000  Uiso   1.00
C1137  C     0.06741   0.50445   0.82153   0.00000  Uiso   1.00
C1138  C     0.26601   0.50437   0.84524   0.00000  Uiso   1.00
C1139  C     0.01309   0.51450   0.81509   0.00000  Uiso   1.00
C1140  C     0.32051   0.51435   0.85201   0.00000  Uiso   1.00
C1141  C     0.20975   0.35546   0.82024   0.00000  Uiso   1.00
C1142  C     0.12342   0.64499   0.84624   0.00000  Uiso   1.00
C1143  C     0.21085   0.64533   0.82192   0.00000  Uiso   1.00
C1144  C     0.12253   0.35515   0.84510   0.00000  Uiso   1.00
C1145  C     0.16705   0.62420   0.83383   0.00000  Uiso   1.00
C1146  C     0.16620   0.37613   0.83286   0.00000  Uiso   1.00
C1147  C     0.19144   0.53096   0.69408   0.00000  Uiso   1.00
C1148  C     0.14142   0.46926   0.97248   0.00000  Uiso   1.00
C1149  C     0.19165   0.53085   0.97949   0.00000  Uiso   1.00
C1150  C     0.14151   0.46923   0.68714   0.00000  Uiso   1.00
H1151  H     0.21091   0.55590   0.71490   0.00000  Uiso   1.00
H1152  H     0.12114   0.44474   0.95148   0.00000  Uiso   1.00
H1153  H     0.21168   0.55548   0.96412   0.00000  Uiso   1.00
H1154  H     0.12135   0.44467   0.70249   0.00000  Uiso   1.00
N1155  N     0.16665   0.49999   0.95240   0.00000  Uiso   1.00
N1156  N     0.16668   0.50001   0.71427   0.00000  Uiso   1.00
O1157  O     0.16666   0.43892   0.87154   0.00000  Uiso   1.00
O1158  O     0.16667   0.56108   0.79513   0.00000  Uiso   1.00
O1159  O     0.16666   0.43893   0.79510   0.00000  Uiso   1.00
O1160  O     0.16667   0.56107   0.87157   0.00000  Uiso   1.00
O1161  O     0.09058   0.50000   0.86261   0.00000  Uiso   1.00
O1162  O     0.24275   0.50000   0.80405   0.00000  Uiso   1.00
O1163  O     0.09058   0.50000   0.78617   0.00000  Uiso   1.00
O1164  O     0.24275   0.50000   0.88050   0.00000  Uiso   1.00
Zn1165 Zn    0.16667   0.49999   0.88437   0.00000  Uiso   1.00
Zn1166 Zn    0.16667   0.50001   0.78229   0.00000  Uiso   1.00
C1167  C     0.32165   0.52453   0.76608   0.00000  Uiso   1.00
H1168  H     0.01722   0.53787   0.74594   0.00000  Uiso   1.00
H1169  H     0.30490   0.49586   0.74816   0.00000  Uiso   1.00
H1170  H     0.29162   0.54908   0.76574   0.00000  Uiso   1.00
C1171  C     0.01213   0.52328   0.90146   0.00000  Uiso   1.00
H1172  H     0.31692   0.53696   0.92176   0.00000  Uiso   1.00
H1173  H     0.02734   0.49399   0.91850   0.00000  Uiso   1.00
H1174  H     0.04347   0.54714   0.90311   0.00000  Uiso   1.00
C1175  C     0.25440   0.37992   0.80703   0.00000  Uiso   1.00
H1176  H     0.26596   0.40939   0.82394   0.00000  Uiso   1.00
O1177  O     0.27727   0.36825   0.77606   0.00000  Uiso   1.00
C1178  C     0.07829   0.62074   0.85838   0.00000  Uiso   1.00
H1179  H     0.06577   0.59235   0.83978   0.00000  Uiso   1.00
O1180  O     0.05594   0.63150   0.89003   0.00000  Uiso   1.00
C1181  C     0.25979   0.62215   0.81404   0.00000  Uiso   1.00
H1182  H     0.26125   0.58982   0.82705   0.00000  Uiso   1.00
H1183  H     0.26233   0.62134   0.77685   0.00000  Uiso   1.00
H1184  H     0.29500   0.63777   0.83290   0.00000  Uiso   1.00
C1185  C     0.07394   0.37856   0.85402   0.00000  Uiso   1.00
H1186  H     0.07281   0.41153   0.84277   0.00000  Uiso   1.00
H1187  H     0.03848   0.36379   0.83455   0.00000  Uiso   1.00
H1188  H     0.07136   0.37811   0.89122   0.00000  Uiso   1.00
C1189  C     0.49982   0.42021   0.83318   0.00000  Uiso   1.00
C1190  C     0.50007   0.57991   0.83347   0.00000  Uiso   1.00
C1191  C     0.40075   0.50445   0.82153   0.00000  Uiso   1.00
C1192  C     0.59934   0.50437   0.84524   0.00000  Uiso   1.00
C1193  C     0.34643   0.51450   0.81509   0.00000  Uiso   1.00
C1194  C     0.65384   0.51435   0.85201   0.00000  Uiso   1.00
C1195  C     0.54309   0.35546   0.82024   0.00000  Uiso   1.00
C1196  C     0.45675   0.64499   0.84624   0.00000  Uiso   1.00
C1197  C     0.54418   0.64533   0.82192   0.00000  Uiso   1.00
C1198  C     0.45586   0.35515   0.84510   0.00000  Uiso   1.00
C1199  C     0.50038   0.62420   0.83383   0.00000  Uiso   1.00
C1200  C     0.49953   0.37613   0.83286   0.00000  Uiso   1.00
C1201  C     0.52478   0.53096   0.69408   0.00000  Uiso   1.00
C1202  C     0.47475   0.46926   0.97248   0.00000  Uiso   1.00
C1203  C     0.52498   0.53085   0.97949   0.00000  Uiso   1.00
C1204  C     0.47484   0.46923   0.68714   0.00000  Uiso   1.00
H1205  H     0.54424   0.55590   0.71490   0.00000  Uiso   1.00
H1206  H     0.45447   0.44474   0.95148   0.00000  Uiso   1.00
H1207  H     0.54502   0.55548   0.96412   0.00000  Uiso   1.00
H1208  H     0.45468   0.44467   0.70249   0.00000  Uiso   1.00
N1209  N     0.49999   0.49999   0.95240   0.00000  Uiso   1.00
N1210  N     0.50001   0.50001   0.71427   0.00000  Uiso   1.00
O1211  O     0.50000   0.43892   0.87154   0.00000  Uiso   1.00
O1212  O     0.50000   0.56108   0.79513   0.00000  Uiso   1.00
O1213  O     0.50000   0.43893   0.79510   0.00000  Uiso   1.00
O1214  O     0.50000   0.56107   0.87157   0.00000  Uiso   1.00
O1215  O     0.42392   0.50000   0.86261   0.00000  Uiso   1.00
O1216  O     0.57608   0.50000   0.80405   0.00000  Uiso   1.00
O1217  O     0.42392   0.50000   0.78617   0.00000  Uiso   1.00
O1218  O     0.57608   0.50000   0.88050   0.00000  Uiso   1.00
Zn1219 Zn    0.50000   0.49999   0.88437   0.00000  Uiso   1.00
Zn1220 Zn    0.50000   0.50001   0.78229   0.00000  Uiso   1.00
C1221  C     0.65498   0.52453   0.76608   0.00000  Uiso   1.00
H1222  H     0.35055   0.53787   0.74594   0.00000  Uiso   1.00
H1223  H     0.63823   0.49586   0.74816   0.00000  Uiso   1.00
H1224  H     0.62496   0.54908   0.76574   0.00000  Uiso   1.00
C1225  C     0.34547   0.52328   0.90146   0.00000  Uiso   1.00
H1226  H     0.65025   0.53696   0.92176   0.00000  Uiso   1.00
H1227  H     0.36067   0.49399   0.91850   0.00000  Uiso   1.00
H1228  H     0.37681   0.54714   0.90311   0.00000  Uiso   1.00
C1229  C     0.58773   0.37992   0.80703   0.00000  Uiso   1.00
H1230  H     0.59930   0.40939   0.82394   0.00000  Uiso   1.00
O1231  O     0.61061   0.36825   0.77606   0.00000  Uiso   1.00
C1232  C     0.41163   0.62074   0.85838   0.00000  Uiso   1.00
H1233  H     0.39911   0.59235   0.83978   0.00000  Uiso   1.00
O1234  O     0.38927   0.63150   0.89003   0.00000  Uiso   1.00
C1235  C     0.59313   0.62215   0.81404   0.00000  Uiso   1.00
H1236  H     0.59459   0.58982   0.82705   0.00000  Uiso   1.00
H1237  H     0.59567   0.62134   0.77685   0.00000  Uiso   1.00
H1238  H     0.62833   0.63777   0.83290   0.00000  Uiso   1.00
C1239  C     0.40727   0.37856   0.85402   0.00000  Uiso   1.00
H1240  H     0.40614   0.41153   0.84277   0.00000  Uiso   1.00
H1241  H     0.37181   0.36379   0.83455   0.00000  Uiso   1.00
H1242  H     0.40470   0.37811   0.89122   0.00000  Uiso   1.00
C1243  C     0.83316   0.42021   0.83318   0.00000  Uiso   1.00
C1244  C     0.83340   0.57991   0.83347   0.00000  Uiso   1.00
C1245  C     0.73408   0.50445   0.82153   0.00000  Uiso   1.00
C1246  C     0.93268   0.50437   0.84524   0.00000  Uiso   1.00
C1247  C     0.67976   0.51450   0.81509   0.00000  Uiso   1.00
C1248  C     0.98718   0.51435   0.85201   0.00000  Uiso   1.00
C1249  C     0.87642   0.35546   0.82024   0.00000  Uiso   1.00
C1250  C     0.79009   0.64499   0.84624   0.00000  Uiso   1.00
C1251  C     0.87751   0.64533   0.82192   0.00000  Uiso   1.00
C1252  C     0.78920   0.35515   0.84510   0.00000  Uiso   1.00
C1253  C     0.83371   0.62420   0.83383   0.00000  Uiso   1.00
C1254  C     0.83286   0.37613   0.83286   0.00000  Uiso   1.00
C1255  C     0.85811   0.53096   0.69408   0.00000  Uiso   1.00
C1256  C     0.80809   0.46926   0.97248   0.00000  Uiso   1.00
C1257  C     0.85832   0.53085   0.97949   0.00000  Uiso   1.00
C1258  C     0.80818   0.46923   0.68714   0.00000  Uiso   1.00
H1259  H     0.87758   0.55590   0.71490   0.00000  Uiso   1.00
H1260  H     0.78781   0.44474   0.95148   0.00000  Uiso   1.00
H1261  H     0.87835   0.55548   0.96412   0.00000  Uiso   1.00
H1262  H     0.78801   0.44467   0.70249   0.00000  Uiso   1.00
N1263  N     0.83332   0.49999   0.95240   0.00000  Uiso   1.00
N1264  N     0.83335   0.50001   0.71427   0.00000  Uiso   1.00
O1265  O     0.83333   0.43892   0.87154   0.00000  Uiso   1.00
O1266  O     0.83334   0.56108   0.79513   0.00000  Uiso   1.00
O1267  O     0.83333   0.43893   0.79510   0.00000  Uiso   1.00
O1268  O     0.83334   0.56107   0.87157   0.00000  Uiso   1.00
O1269  O     0.75725   0.50000   0.86261   0.00000  Uiso   1.00
O1270  O     0.90942   0.50000   0.80405   0.00000  Uiso   1.00
O1271  O     0.75725   0.50000   0.78617   0.00000  Uiso   1.00
O1272  O     0.90942   0.50000   0.88050   0.00000  Uiso   1.00
Zn1273 Zn    0.83333   0.49999   0.88437   0.00000  Uiso   1.00
Zn1274 Zn    0.83333   0.50001   0.78229   0.00000  Uiso   1.00
C1275  C     0.98831   0.52453   0.76608   0.00000  Uiso   1.00
H1276  H     0.68389   0.53787   0.74594   0.00000  Uiso   1.00
H1277  H     0.97157   0.49586   0.74816   0.00000  Uiso   1.00
H1278  H     0.95829   0.54908   0.76574   0.00000  Uiso   1.00
C1279  C     0.67880   0.52328   0.90146   0.00000  Uiso   1.00
H1280  H     0.98359   0.53696   0.92176   0.00000  Uiso   1.00
H1281  H     0.69401   0.49399   0.91850   0.00000  Uiso   1.00
H1282  H     0.71014   0.54714   0.90311   0.00000  Uiso   1.00
C1283  C     0.92107   0.37992   0.80703   0.00000  Uiso   1.00
H1284  H     0.93263   0.40939   0.82394   0.00000  Uiso   1.00
O1285  O     0.94394   0.36825   0.77606   0.00000  Uiso   1.00
C1286  C     0.74496   0.62074   0.85838   0.00000  Uiso   1.00
H1287  H     0.73244   0.59235   0.83978   0.00000  Uiso   1.00
O1288  O     0.72260   0.63150   0.89003   0.00000  Uiso   1.00
C1289  C     0.92646   0.62215   0.81404   0.00000  Uiso   1.00
H1290  H     0.92792   0.58982   0.82705   0.00000  Uiso   1.00
H1291  H     0.92900   0.62134   0.77685   0.00000  Uiso   1.00
H1292  H     0.96166   0.63777   0.83290   0.00000  Uiso   1.00
C1293  C     0.74060   0.37856   0.85402   0.00000  Uiso   1.00
H1294  H     0.73947   0.41153   0.84277   0.00000  Uiso   1.00
H1295  H     0.70515   0.36379   0.83455   0.00000  Uiso   1.00
H1296  H     0.73803   0.37811   0.89122   0.00000  Uiso   1.00
C1297  C     0.16649   0.75354   0.83318   0.00000  Uiso   1.00
C1298  C     0.16673   0.91324   0.83347   0.00000  Uiso   1.00
C1299  C     0.06741   0.83778   0.82153   0.00000  Uiso   1.00
C1300  C     0.26601   0.83770   0.84524   0.00000  Uiso   1.00
C1301  C     0.01309   0.84784   0.81509   0.00000  Uiso   1.00
C1302  C     0.32051   0.84769   0.85201   0.00000  Uiso   1.00
C1303  C     0.20975   0.68880   0.82024   0.00000  Uiso   1.00
C1304  C     0.12342   0.97833   0.84624   0.00000  Uiso   1.00
C1305  C     0.21085   0.97866   0.82192   0.00000  Uiso   1.00
C1306  C     0.12253   0.68848   0.84510   0.00000  Uiso   1.00
C1307  C     0.16705   0.95753   0.83383   0.00000  Uiso   1.00
C1308  C     0.16620   0.70946   0.83286   0.00000  Uiso   1.00
C1309  C     0.19144   0.86430   0.69408   0.00000  Uiso   1.00
C1310  C     0.14142   0.80259   0.97248   0.00000  Uiso   1.00
C1311  C     0.19165   0.86418   0.97949   0.00000  Uiso   1.00
C1312  C     0.14151   0.80257   0.68714   0.00000  Uiso   1.00
H1313  H     0.21091   0.88924   0.71490   0.00000  Uiso   1.00
H1314  H     0.12114   0.77807   0.95148   0.00000  Uiso   1.00
H1315  H     0.21168   0.88882   0.96412   0.00000  Uiso   1.00
H1316  H     0.12135   0.77800   0.70249   0.00000  Uiso   1.00
N1317  N     0.16665   0.83332   0.95240   0.00000  Uiso   1.00
N1318  N     0.16668   0.83334   0.71427   0.00000  Uiso   1.00
O1319  O     0.16666   0.77225   0.87154   0.00000  Uiso   1.00
O1320  O     0.16667   0.89442   0.79513   0.00000  Uiso   1.00
O1321  O     0.16666   0.77226   0.79510   0.00000  Uiso   1.00
O1322  O     0.16667   0.89441   0.87157   0.00000  Uiso   1.00
O1323  O     0.09058   0.83333   0.86261   0.00000  Uiso   1.00
O1324  O     0.24275   0.83334   0.80405   0.00000  Uiso   1.00
O1325  O     0.09058   0.83334   0.78617   0.00000  Uiso   1.00
O1326  O     0.24275   0.83333   0.88050   0.00000  Uiso   1.00
Zn1327 Zn    0.16667   0.83333   0.88437   0.00000  Uiso   1.00
Zn1328 Zn    0.16667   0.83334   0.78229   0.00000  Uiso   1.00
C1329  C     0.32165   0.85786   0.76608   0.00000  Uiso   1.00
H1330  H     0.01722   0.87120   0.74594   0.00000  Uiso   1.00
H1331  H     0.30490   0.82919   0.74816   0.00000  Uiso   1.00
H1332  H     0.29162   0.88241   0.76574   0.00000  Uiso   1.00
C1333  C     0.01213   0.85662   0.90146   0.00000  Uiso   1.00
H1334  H     0.31692   0.87030   0.92176   0.00000  Uiso   1.00
H1335  H     0.02734   0.82733   0.91850   0.00000  Uiso   1.00
H1336  H     0.04347   0.88047   0.90311   0.00000  Uiso   1.00
C1337  C     0.25440   0.71326   0.80703   0.00000  Uiso   1.00
H1338  H     0.26596   0.74272   0.82394   0.00000  Uiso   1.00
O1339  O     0.27727   0.70159   0.77606   0.00000  Uiso   1.00
C1340  C     0.07829   0.95407   0.85838   0.00000  Uiso   1.00
H1341  H     0.06577   0.92569   0.83978   0.00000  Uiso   1.00
O1342  O     0.05594   0.96484   0.89003   0.00000  Uiso   1.00
C1343  C     0.25979   0.95548   0.81404   0.00000  Uiso   1.00
H1344  H     0.26125   0.92316   0.82705   0.00000  Uiso   1.00
H1345  H     0.26233   0.95467   0.77685   0.00000  Uiso   1.00
H1346  H     0.29500   0.97110   0.83290   0.00000  Uiso   1.00
C1347  C     0.07394   0.71189   0.85402   0.00000  Uiso   1.00
H1348  H     0.07281   0.74486   0.84277   0.00000  Uiso   1.00
H1349  H     0.03848   0.69712   0.83455   0.00000  Uiso   1.00
H1350  H     0.07136   0.71144   0.89122   0.00000  Uiso   1.00
C1351  C     0.49982   0.75354   0.83318   0.00000  Uiso   1.00
C1352  C     0.50007   0.91324   0.83347   0.00000  Uiso   1.00
C1353  C     0.40075   0.83778   0.82153   0.00000  Uiso   1.00
C1354  C     0.59934   0.83770   0.84524   0.00000  Uiso   1.00
C1355  C     0.34643   0.84784   0.81509   0.00000  Uiso   1.00
C1356  C     0.65384   0.84769   0.85201   0.00000  Uiso   1.00
C1357  C     0.54309   0.68880   0.82024   0.00000  Uiso   1.00
C1358  C     0.45675   0.97833   0.84624   0.00000  Uiso   1.00
C1359  C     0.54418   0.97866   0.82192   0.00000  Uiso   1.00
C1360  C     0.45586   0.68848   0.84510   0.00000  Uiso   1.00
C1361  C     0.50038   0.95753   0.83383   0.00000  Uiso   1.00
C1362  C     0.49953   0.70946   0.83286   0.00000  Uiso   1.00
C1363  C     0.52478   0.86430   0.69408   0.00000  Uiso   1.00
C1364  C     0.47475   0.80259   0.97248   0.00000  Uiso   1.00
C1365  C     0.52498   0.86418   0.97949   0.00000  Uiso   1.00
C1366  C     0.47484   0.80257   0.68714   0.00000  Uiso   1.00
H1367  H     0.54424   0.88924   0.71490   0.00000  Uiso   1.00
H1368  H     0.45447   0.77807   0.95148   0.00000  Uiso   1.00
H1369  H     0.54502   0.88882   0.96412   0.00000  Uiso   1.00
H1370  H     0.45468   0.77800   0.70249   0.00000  Uiso   1.00
N1371  N     0.49999   0.83332   0.95240   0.00000  Uiso   1.00
N1372  N     0.50001   0.83334   0.71427   0.00000  Uiso   1.00
O1373  O     0.50000   0.77225   0.87154   0.00000  Uiso   1.00
O1374  O     0.50000   0.89442   0.79513   0.00000  Uiso   1.00
O1375  O     0.50000   0.77226   0.79510   0.00000  Uiso   1.00
O1376  O     0.50000   0.89441   0.87157   0.00000  Uiso   1.00
O1377  O     0.42392   0.83333   0.86261   0.00000  Uiso   1.00
O1378  O     0.57608   0.83334   0.80405   0.00000  Uiso   1.00
O1379  O     0.42392   0.83334   0.78617   0.00000  Uiso   1.00
O1380  O     0.57608   0.83333   0.88050   0.00000  Uiso   1.00
Zn1381 Zn    0.50000   0.83333   0.88437   0.00000  Uiso   1.00
Zn1382 Zn    0.50000   0.83334   0.78229   0.00000  Uiso   1.00
C1383  C     0.65498   0.85786   0.76608   0.00000  Uiso   1.00
H1384  H     0.35055   0.87120   0.74594   0.00000  Uiso   1.00
H1385  H     0.63823   0.82919   0.74816   0.00000  Uiso   1.00
H1386  H     0.62496   0.88241   0.76574   0.00000  Uiso   1.00
C1387  C     0.34547   0.85662   0.90146   0.00000  Uiso   1.00
H1388  H     0.65025   0.87030   0.92176   0.00000  Uiso   1.00
H1389  H     0.36067   0.82733   0.91850   0.00000  Uiso   1.00
H1390  H     0.37681   0.88047   0.90311   0.00000  Uiso   1.00
C1391  C     0.58773   0.71326   0.80703   0.00000  Uiso   1.00
H1392  H     0.59930   0.74272   0.82394   0.00000  Uiso   1.00
O1393  O     0.61061   0.70159   0.77606   0.00000  Uiso   1.00
C1394  C     0.41163   0.95407   0.85838   0.00000  Uiso   1.00
H1395  H     0.39911   0.92569   0.83978   0.00000  Uiso   1.00
O1396  O     0.38927   0.96484   0.89003   0.00000  Uiso   1.00
C1397  C     0.59313   0.95548   0.81404   0.00000  Uiso   1.00
H1398  H     0.59459   0.92316   0.82705   0.00000  Uiso   1.00
H1399  H     0.59567   0.95467   0.77685   0.00000  Uiso   1.00
H1400  H     0.62833   0.97110   0.83290   0.00000  Uiso   1.00
C1401  C     0.40727   0.71189   0.85402   0.00000  Uiso   1.00
H1402  H     0.40614   0.74486   0.84277   0.00000  Uiso   1.00
H1403  H     0.37181   0.69712   0.83455   0.00000  Uiso   1.00
H1404  H     0.40470   0.71144   0.89122   0.00000  Uiso   1.00
C1405  C     0.83316   0.75354   0.83318   0.00000  Uiso   1.00
C1406  C     0.83340   0.91324   0.83347   0.00000  Uiso   1.00
C1407  C     0.73408   0.83778   0.82153   0.00000  Uiso   1.00
C1408  C     0.93268   0.83770   0.84524   0.00000  Uiso   1.00
C1409  C     0.67976   0.84784   0.81509   0.00000  Uiso   1.00
C1410  C     0.98718   0.84769   0.85201   0.00000  Uiso   1.00
C1411  C     0.87642   0.68880   0.82024   0.00000  Uiso   1.00
C1412  C     0.79009   0.97833   0.84624   0.00000  Uiso   1.00
C1413  C     0.87751   0.97866   0.82192   0.00000  Uiso   1.00
C1414  C     0.78920   0.68848   0.84510   0.00000  Uiso   1.00
C1415  C     0.83371   0.95753   0.83383   0.00000  Uiso   1.00
C1416  C     0.83286   0.70946   0.83286   0.00000  Uiso   1.00
C1417  C     0.85811   0.86430   0.69408   0.00000  Uiso   1.00
C1418  C     0.80809   0.80259   0.97248   0.00000  Uiso   1.00
C1419  C     0.85832   0.86418   0.97949   0.00000  Uiso   1.00
C1420  C     0.80818   0.80257   0.68714   0.00000  Uiso   1.00
H1421  H     0.87758   0.88924   0.71490   0.00000  Uiso   1.00
H1422  H     0.78781   0.77807   0.95148   0.00000  Uiso   1.00
H1423  H     0.87835   0.88882   0.96412   0.00000  Uiso   1.00
H1424  H     0.78801   0.77800   0.70249   0.00000  Uiso   1.00
N1425  N     0.83332   0.83332   0.95240   0.00000  Uiso   1.00
N1426  N     0.83335   0.83334   0.71427   0.00000  Uiso   1.00
O1427  O     0.83333   0.77225   0.87154   0.00000  Uiso   1.00
O1428  O     0.83334   0.89442   0.79513   0.00000  Uiso   1.00
O1429  O     0.83333   0.77226   0.79510   0.00000  Uiso   1.00
O1430  O     0.83334   0.89441   0.87157   0.00000  Uiso   1.00
O1431  O     0.75725   0.83333   0.86261   0.00000  Uiso   1.00
O1432  O     0.90942   0.83334   0.80405   0.00000  Uiso   1.00
O1433  O     0.75725   0.83334   0.78617   0.00000  Uiso   1.00
O1434  O     0.90942   0.83333   0.88050   0.00000  Uiso   1.00
Zn1435 Zn    0.83333   0.83333   0.88437   0.00000  Uiso   1.00
Zn1436 Zn    0.83333   0.83334   0.78229   0.00000  Uiso   1.00
C1437  C     0.98831   0.85786   0.76608   0.00000  Uiso   1.00
H1438  H     0.68389   0.87120   0.74594   0.00000  Uiso   1.00
H1439  H     0.97157   0.82919   0.74816   0.00000  Uiso   1.00
H1440  H     0.95829   0.88241   0.76574   0.00000  Uiso   1.00
C1441  C     0.67880   0.85662   0.90146   0.00000  Uiso   1.00
H1442  H     0.98359   0.87030   0.92176   0.00000  Uiso   1.00
H1443  H     0.69401   0.82733   0.91850   0.00000  Uiso   1.00
H1444  H     0.71014   0.88047   0.90311   0.00000  Uiso   1.00
C1445  C     0.92107   0.71326   0.80703   0.00000  Uiso   1.00
H1446  H     0.93263   0.74272   0.82394   0.00000  Uiso   1.00
O1447  O     0.94394   0.70159   0.77606   0.00000  Uiso   1.00
C1448  C     0.74496   0.95407   0.85838   0.00000  Uiso   1.00
H1449  H     0.73244   0.92569   0.83978   0.00000  Uiso   1.00
O1450  O     0.72260   0.96484   0.89003   0.00000  Uiso   1.00
C1451  C     0.92646   0.95548   0.81404   0.00000  Uiso   1.00
H1452  H     0.92792   0.92316   0.82705   0.00000  Uiso   1.00
H1453  H     0.92900   0.95467   0.77685   0.00000  Uiso   1.00
H1454  H     0.96166   0.97110   0.83290   0.00000  Uiso   1.00
C1455  C     0.74060   0.71189   0.85402   0.00000  Uiso   1.00
H1456  H     0.73947   0.74486   0.84277   0.00000  Uiso   1.00
H1457  H     0.70515   0.69712   0.83455   0.00000  Uiso   1.00
H1458  H     0.73803   0.71144   0.89122   0.00000  Uiso   1.00
loop_
_geom_bond_atom_site_label_1
_geom_bond_atom_site_label_2
_geom_bond_distance
_geom_bond_site_symmetry_2
_ccdc_geom_bond_type
C1     O25     1.277   .     A
C1     C12     1.412   .     S
C1     O23     1.278   .     A
C2     O26     1.278   .     A
C2     O24     1.279   .     A
C2     C11     1.418   .     S
C3     C5      1.429   .     S
C3     O27     1.276   .     A
C3     O29     1.288   .     A
C4     C6      1.430   .     S
C4     O28     1.278   .     A
C4     O30     1.287   .     A
C5     C114    1.364   1_455 S
C5     C141    1.526   1_455 S
C6     C59     1.364   .     S
C6     C91     1.528   .     S
C7     C12     1.408   .     A
C7     C41     1.496   .     S
C7     C333    1.393   1_545 S
C8     C11     1.409   .     A
C8     C44     1.491   .     S
C8     C172    1.393   .     S
C9     C47     1.519   .     S
C9     C11     1.410   .     A
C9     C169    1.393   .     S
C10    C51     1.524   .     S
C10    C12     1.408   .     A
C10    C332    1.393   1_545 S
C13    H17     1.081   .     S
C13    N22     1.366   .     A
C13    C987    1.415   1_554 S
C14    H18     1.082   .     S
C14    N21     1.366   .     A
C14    C502    1.415   .     S
C15    H19     1.082   .     S
C15    N21     1.366   .     A
C15    C499    1.415   .     S
C16    H20     1.082   .     S
C16    N22     1.366   .     A
C16    C986    1.415   1_554 S
N21    Zn31    2.007   .     S
N22    Zn32    2.007   .     S
O23    Zn31    1.991   .     S
O24    Zn32    1.991   .     S
O25    Zn32    1.994   .     S
O26    Zn31    1.994   .     S
O27    Zn31    1.977   .     S
O28    Zn32    1.977   .     S
O29    Zn32    1.992   .     S
O30    Zn31    1.992   .     S
C33    H35     1.111   .     S
C33    H36     1.107   .     S
C33    C59     1.526   .     S
C33    H88     1.110   .     S
H34    C141    1.110   1_455 S
C37    H40     1.108   .     S
C37    H39     1.111   .     S
C37    C114    1.528   1_455 S
C37    H146    1.111   1_455 S
H38    C91     1.111   .     S
C41    H42     1.085   .     S
C41    O43     1.221   .     D
C44    O46     1.221   .     D
C44    H45     1.083   .     S
C47    H50     1.109   .     S
C47    H48     1.104   .     S
C47    H49     1.110   .     S
C51    H54     1.110   .     S
C51    H52     1.107   .     S
C51    H53     1.109   .     S
C55    O79     1.277   .     A
C55    C66     1.412   .     S
C55    O77     1.278   .     A
C56    O80     1.278   .     A
C56    O78     1.279   .     A
C56    C65     1.418   .     S
C57    C59     1.429   .     S
C57    O81     1.276   .     A
C57    O83     1.288   .     A
C58    C60     1.430   .     S
C58    O82     1.278   .     A
C58    O84     1.287   .     A
C60    C113    1.364   .     S
C60    C145    1.528   .     S
C61    C66     1.408   .     A
C61    C95     1.496   .     S
C61    C387    1.393   1_545 S
C62    C65     1.409   .     A
C62    C98     1.491   .     S
C62    C226    1.393   .     S
C63    C101    1.519   .     S
C63    C65     1.410   .     A
C63    C223    1.393   .     S
C64    C105    1.524   .     S
C64    C66     1.408   .     A
C64    C386    1.393   1_545 S
C67    H71     1.081   .     S
C67    N76     1.366   .     A
C67    C1041   1.415   1_554 S
C68    H72     1.082   .     S
C68    N75     1.366   .     A
C68    C556    1.415   .     S
C69    H73     1.082   .     S
C69    N75     1.366   .     A
C69    C553    1.415   .     S
C70    H74     1.082   .     S
C70    N76     1.366   .     A
C70    C1040   1.415   1_554 S
N75    Zn85    2.007   .     S
N76    Zn86    2.007   .     S
O77    Zn85    1.991   .     S
O78    Zn86    1.991   .     S
O79    Zn86    1.994   .     S
O80    Zn85    1.994   .     S
O81    Zn85    1.977   .     S
O82    Zn86    1.977   .     S
O83    Zn86    1.992   .     S
O84    Zn85    1.992   .     S
C87    H89     1.111   .     S
C87    H90     1.107   .     S
C87    C113    1.526   .     S
C87    H142    1.110   .     S
C91    H94     1.108   .     S
C91    H93     1.111   .     S
H92    C145    1.111   .     S
C95    H96     1.085   .     S
C95    O97     1.221   .     D
C98    O100    1.221   .     D
C98    H99     1.083   .     S
C101   H104    1.109   .     S
C101   H102    1.104   .     S
C101   H103    1.110   .     S
C105   H108    1.110   .     S
C105   H106    1.107   .     S
C105   H107    1.109   .     S
C109   O133    1.277   .     A
C109   C120    1.412   .     S
C109   O131    1.278   .     A
C110   O134    1.278   .     A
C110   O132    1.279   .     A
C110   C119    1.418   .     S
C111   C113    1.429   .     S
C111   O135    1.276   .     A
C111   O137    1.288   .     A
C112   C114    1.430   .     S
C112   O136    1.278   .     A
C112   O138    1.287   .     A
C114   C5      1.364   1_655 S
C114   C37     1.528   1_655 S
C115   C120    1.408   .     A
C115   C149    1.496   .     S
C115   C441    1.393   1_545 S
C116   C119    1.409   .     A
C116   C152    1.491   .     S
C116   C280    1.393   .     S
C117   C155    1.519   .     S
C117   C119    1.410   .     A
C117   C277    1.393   .     S
C118   C159    1.524   .     S
C118   C120    1.408   .     A
C118   C440    1.393   1_545 S
C121   H125    1.081   .     S
C121   N130    1.366   .     A
C121   C1095   1.415   1_554 S
C122   H126    1.082   .     S
C122   N129    1.366   .     A
C122   C610    1.415   .     S
C123   H127    1.082   .     S
C123   N129    1.366   .     A
C123   C607    1.415   .     S
C124   H128    1.082   .     S
C124   N130    1.366   .     A
C124   C1094   1.415   1_554 S
N129   Zn139   2.007   .     S
N130   Zn140   2.007   .     S
O131   Zn139   1.991   .     S
O132   Zn140   1.991   .     S
O133   Zn140   1.994   .     S
O134   Zn139   1.994   .     S
O135   Zn139   1.977   .     S
O136   Zn140   1.977   .     S
O137   Zn140   1.992   .     S
O138   Zn139   1.992   .     S
C141   H143    1.111   .     S
C141   H144    1.107   .     S
C141   C5      1.526   1_655 S
C141   H34     1.110   1_655 S
C145   H148    1.108   .     S
C145   H147    1.111   .     S
H146   C37     1.111   1_655 S
C149   H150    1.085   .     S
C149   O151    1.221   .     D
C152   O154    1.221   .     D
C152   H153    1.083   .     S
C155   H158    1.109   .     S
C155   H156    1.104   .     S
C155   H157    1.110   .     S
C159   H162    1.110   .     S
C159   H160    1.107   .     S
C159   H161    1.109   .     S
C163   O187    1.277   .     A
C163   C174    1.412   .     S
C163   O185    1.278   .     A
C164   O188    1.278   .     A
C164   O186    1.279   .     A
C164   C173    1.418   .     S
C165   C167    1.429   .     S
C165   O189    1.276   .     A
C165   O191    1.288   .     A
C166   C168    1.430   .     S
C166   O190    1.278   .     A
C166   O192    1.287   .     A
C167   C276    1.364   1_455 S
C167   C303    1.526   1_455 S
C168   C221    1.364   .     S
C168   C253    1.528   .     S
C169   C174    1.408   .     A
C169   C203    1.496   .     S
C170   C173    1.409   .     A
C170   C206    1.491   .     S
C170   C334    1.393   .     S
C171   C209    1.519   .     S
C171   C173    1.410   .     A
C171   C331    1.393   .     S
C172   C213    1.524   .     S
C172   C174    1.408   .     A
C175   H179    1.081   .     S
C175   N184    1.366   .     A
C175   C1149   1.415   1_554 S
C176   H180    1.082   .     S
C176   N183    1.366   .     A
C176   C664    1.415   .     S
C177   H181    1.082   .     S
C177   N183    1.366   .     A
C177   C661    1.415   .     S
C178   H182    1.082   .     S
C178   N184    1.366   .     A
C178   C1148   1.415   1_554 S
N183   Zn193   2.007   .     S
N184   Zn194   2.007   .     S
O185   Zn193   1.991   .     S
O186   Zn194   1.991   .     S
O187   Zn194   1.994   .     S
O188   Zn193   1.994   .     S
O189   Zn193   1.977   .     S
O190   Zn194   1.977   .     S
O191   Zn194   1.992   .     S
O192   Zn193   1.992   .     S
C195   H197    1.111   .     S
C195   H198    1.107   .     S
C195   C221    1.526   .     S
C195   H250    1.110   .     S
H196   C303    1.110   1_455 S
C199   H202    1.108   .     S
C199   H201    1.111   .     S
C199   C276    1.528   1_455 S
C199   H308    1.111   1_455 S
H200   C253    1.111   .     S
C203   H204    1.085   .     S
C203   O205    1.221   .     D
C206   O208    1.221   .     D
C206   H207    1.083   .     S
C209   H212    1.109   .     S
C209   H210    1.104   .     S
C209   H211    1.110   .     S
C213   H216    1.110   .     S
C213   H214    1.107   .     S
C213   H215    1.109   .     S
C217   O241    1.277   .     A
C217   C228    1.412   .     S
C217   O239    1.278   .     A
C218   O242    1.278   .     A
C218   O240    1.279   .     A
C218   C227    1.418   .     S
C219   C221    1.429   .     S
C219   O243    1.276   .     A
C219   O245    1.288   .     A
C220   C222    1.430   .     S
C220   O244    1.278   .     A
C220   O246    1.287   .     A
C222   C275    1.364   .     S
C222   C307    1.528   .     S
C223   C228    1.408   .     A
C223   C257    1.496   .     S
C224   C227    1.409   .     A
C224   C260    1.491   .     S
C224   C388    1.393   .     S
C225   C263    1.519   .     S
C225   C227    1.410   .     A
C225   C385    1.393   .     S
C226   C267    1.524   .     S
C226   C228    1.408   .     A
C229   H233    1.081   .     S
C229   N238    1.366   .     A
C229   C1203   1.415   1_554 S
C230   H234    1.082   .     S
C230   N237    1.366   .     A
C230   C718    1.415   .     S
C231   H235    1.082   .     S
C231   N237    1.366   .     A
C231   C715    1.415   .     S
C232   H236    1.082   .     S
C232   N238    1.366   .     A
C232   C1202   1.415   1_554 S
N237   Zn247   2.007   .     S
N238   Zn248   2.007   .     S
O239   Zn247   1.991   .     S
O240   Zn248   1.991   .     S
O241   Zn248   1.994   .     S
O242   Zn247   1.994   .     S
O243   Zn247   1.977   .     S
O244   Zn248   1.977   .     S
O245   Zn248   1.992   .     S
O246   Zn247   1.992   .     S
C249   H251    1.111   .     S
C249   H252    1.107   .     S
C249   C275    1.526   .     S
C249   H304    1.110   .     S
C253   H256    1.108   .     S
C253   H255    1.111   .     S
H254   C307    1.111   .     S
C257   H258    1.085   .     S
C257   O259    1.221   .     D
C260   O262    1.221   .     D
C260   H261    1.083   .     S
C263   H266    1.109   .     S
C263   H264    1.104   .     S
C263   H265    1.110   .     S
C267   H270    1.110   .     S
C267   H268    1.107   .     S
C267   H269    1.109   .     S
C271   O295    1.277   .     A
C271   C282    1.412   .     S
C271   O293    1.278   .     A
C272   O296    1.278   .     A
C272   O294    1.279   .     A
C272   C281    1.418   .     S
C273   C275    1.429   .     S
C273   O297    1.276   .     A
C273   O299    1.288   .     A
C274   C276    1.430   .     S
C274   O298    1.278   .     A
C274   O300    1.287   .     A
C276   C167    1.364   1_655 S
C276   C199    1.528   1_655 S
C277   C282    1.408   .     A
C277   C311    1.496   .     S
C278   C281    1.409   .     A
C278   C314    1.491   .     S
C278   C442    1.393   .     S
C279   C317    1.519   .     S
C279   C281    1.410   .     A
C279   C439    1.393   .     S
C280   C321    1.524   .     S
C280   C282    1.408   .     A
C283   H287    1.081   .     S
C283   N292    1.366   .     A
C283   C1257   1.415   1_554 S
C284   H288    1.082   .     S
C284   N291    1.366   .     A
C284   C772    1.415   .     S
C285   H289    1.082   .     S
C285   N291    1.366   .     A
C285   C769    1.415   .     S
C286   H290    1.082   .     S
C286   N292    1.366   .     A
C286   C1256   1.415   1_554 S
N291   Zn301   2.007   .     S
N292   Zn302   2.007   .     S
O293   Zn301   1.991   .     S
O294   Zn302   1.991   .     S
O295   Zn302   1.994   .     S
O296   Zn301   1.994   .     S
O297   Zn301   1.977   .     S
O298   Zn302   1.977   .     S
O299   Zn302   1.992   .     S
O300   Zn301   1.992   .     S
C303   H305    1.111   .     S
C303   H306    1.107   .     S
C303   C167    1.526   1_655 S
C303   H196    1.110   1_655 S
C307   H310    1.108   .     S
C307   H309    1.111   .     S
H308   C199    1.111   1_655 S
C311   H312    1.085   .     S
C311   O313    1.221   .     D
C314   O316    1.221   .     D
C314   H315    1.083   .     S
C317   H320    1.109   .     S
C317   H318    1.104   .     S
C317   H319    1.110   .     S
C321   H324    1.110   .     S
C321   H322    1.107   .     S
C321   H323    1.109   .     S
C325   O349    1.277   .     A
C325   C336    1.412   .     S
C325   O347    1.278   .     A
C326   O350    1.278   .     A
C326   O348    1.279   .     A
C326   C335    1.418   .     S
C327   C329    1.429   .     S
C327   O351    1.276   .     A
C327   O353    1.288   .     A
C328   C330    1.430   .     S
C328   O352    1.278   .     A
C328   O354    1.287   .     A
C329   C438    1.364   1_455 S
C329   C465    1.526   1_455 S
C330   C383    1.364   .     S
C330   C415    1.528   .     S
C331   C336    1.408   .     A
C331   C365    1.496   .     S
C332   C335    1.409   .     A
C332   C368    1.491   .     S
C332   C10     1.393   1_565 S
C333   C371    1.519   .     S
C333   C335    1.410   .     A
C333   C7      1.393   1_565 S
C334   C375    1.524   .     S
C334   C336    1.408   .     A
C337   H341    1.081   .     S
C337   N346    1.366   .     A
C337   C1311   1.415   1_554 S
C338   H342    1.082   .     S
C338   N345    1.366   .     A
C338   C826    1.415   .     S
C339   H343    1.082   .     S
C339   N345    1.366   .     A
C339   C823    1.415   .     S
C340   H344    1.082   .     S
C340   N346    1.366   .     A
C340   C1310   1.415   1_554 S
N345   Zn355   2.007   .     S
N346   Zn356   2.007   .     S
O347   Zn355   1.991   .     S
O348   Zn356   1.991   .     S
O349   Zn356   1.994   .     S
O350   Zn355   1.994   .     S
O351   Zn355   1.977   .     S
O352   Zn356   1.977   .     S
O353   Zn356   1.992   .     S
O354   Zn355   1.992   .     S
C357   H359    1.111   .     S
C357   H360    1.107   .     S
C357   C383    1.526   .     S
C357   H412    1.110   .     S
H358   C465    1.110   1_455 S
C361   H364    1.108   .     S
C361   H363    1.111   .     S
C361   C438    1.528   1_455 S
C361   H470    1.111   1_455 S
H362   C415    1.111   .     S
C365   H366    1.085   .     S
C365   O367    1.221   .     D
C368   O370    1.221   .     D
C368   H369    1.083   .     S
C371   H374    1.109   .     S
C371   H372    1.104   .     S
C371   H373    1.110   .     S
C375   H378    1.110   .     S
C375   H376    1.107   .     S
C375   H377    1.109   .     S
C379   O403    1.277   .     A
C379   C390    1.412   .     S
C379   O401    1.278   .     A
C380   O404    1.278   .     A
C380   O402    1.279   .     A
C380   C389    1.418   .     S
C381   C383    1.429   .     S
C381   O405    1.276   .     A
C381   O407    1.288   .     A
C382   C384    1.430   .     S
C382   O406    1.278   .     A
C382   O408    1.287   .     A
C384   C437    1.364   .     S
C384   C469    1.528   .     S
C385   C390    1.408   .     A
C385   C419    1.496   .     S
C386   C389    1.409   .     A
C386   C422    1.491   .     S
C386   C64     1.393   1_565 S
C387   C425    1.519   .     S
C387   C389    1.410   .     A
C387   C61     1.393   1_565 S
C388   C429    1.524   .     S
C388   C390    1.408   .     A
C391   H395    1.081   .     S
C391   N400    1.366   .     A
C391   C1365   1.415   1_554 S
C392   H396    1.082   .     S
C392   N399    1.366   .     A
C392   C880    1.415   .     S
C393   H397    1.082   .     S
C393   N399    1.366   .     A
C393   C877    1.415   .     S
C394   H398    1.082   .     S
C394   N400    1.366   .     A
C394   C1364   1.415   1_554 S
N399   Zn409   2.007   .     S
N400   Zn410   2.007   .     S
O401   Zn409   1.991   .     S
O402   Zn410   1.991   .     S
O403   Zn410   1.994   .     S
O404   Zn409   1.994   .     S
O405   Zn409   1.977   .     S
O406   Zn410   1.977   .     S
O407   Zn410   1.992   .     S
O408   Zn409   1.992   .     S
C411   H413    1.111   .     S
C411   H414    1.107   .     S
C411   C437    1.526   .     S
C411   H466    1.110   .     S
C415   H418    1.108   .     S
C415   H417    1.111   .     S
H416   C469    1.111   .     S
C419   H420    1.085   .     S
C419   O421    1.221   .     D
C422   O424    1.221   .     D
C422   H423    1.083   .     S
C425   H428    1.109   .     S
C425   H426    1.104   .     S
C425   H427    1.110   .     S
C429   H432    1.110   .     S
C429   H430    1.107   .     S
C429   H431    1.109   .     S
C433   O457    1.277   .     A
C433   C444    1.412   .     S
C433   O455    1.278   .     A
C434   O458    1.278   .     A
C434   O456    1.279   .     A
C434   C443    1.418   .     S
C435   C437    1.429   .     S
C435   O459    1.276   .     A
C435   O461    1.288   .     A
C436   C438    1.430   .     S
C436   O460    1.278   .     A
C436   O462    1.287   .     A
C438   C329    1.364   1_655 S
C438   C361    1.528   1_655 S
C439   C444    1.408   .     A
C439   C473    1.496   .     S
C440   C443    1.409   .     A
C440   C476    1.491   .     S
C440   C118    1.393   1_565 S
C441   C479    1.519   .     S
C441   C443    1.410   .     A
C441   C115    1.393   1_565 S
C442   C483    1.524   .     S
C442   C444    1.408   .     A
C445   H449    1.081   .     S
C445   N454    1.366   .     A
C445   C1419   1.415   1_554 S
C446   H450    1.082   .     S
C446   N453    1.366   .     A
C446   C934    1.415   .     S
C447   H451    1.082   .     S
C447   N453    1.366   .     A
C447   C931    1.415   .     S
C448   H452    1.082   .     S
C448   N454    1.366   .     A
C448   C1418   1.415   1_554 S
N453   Zn463   2.007   .     S
N454   Zn464   2.007   .     S
O455   Zn463   1.991   .     S
O456   Zn464   1.991   .     S
O457   Zn464   1.994   .     S
O458   Zn463   1.994   .     S
O459   Zn463   1.977   .     S
O460   Zn464   1.977   .     S
O461   Zn464   1.992   .     S
O462   Zn463   1.992   .     S
C465   H467    1.111   .     S
C465   H468    1.107   .     S
C465   C329    1.526   1_655 S
C465   H358    1.110   1_655 S
C469   H472    1.108   .     S
C469   H471    1.111   .     S
H470   C361    1.111   1_655 S
C473   H474    1.085   .     S
C473   O475    1.221   .     D
C476   O478    1.221   .     D
C476   H477    1.083   .     S
C479   H482    1.109   .     S
C479   H480    1.104   .     S
C479   H481    1.110   .     S
C483   H486    1.110   .     S
C483   H484    1.107   .     S
C483   H485    1.109   .     S
C487   O511    1.277   .     A
C487   C498    1.412   .     S
C487   O509    1.278   .     A
C488   O512    1.278   .     A
C488   O510    1.279   .     A
C488   C497    1.418   .     S
C489   C491    1.429   .     S
C489   O513    1.276   .     A
C489   O515    1.288   .     A
C490   C492    1.430   .     S
C490   O514    1.278   .     A
C490   O516    1.287   .     A
C491   C600    1.364   1_455 S
C491   C627    1.526   1_455 S
C492   C545    1.364   .     S
C492   C577    1.528   .     S
C493   C498    1.408   .     A
C493   C527    1.496   .     S
C493   C819    1.393   1_545 S
C494   C497    1.409   .     A
C494   C530    1.491   .     S
C494   C658    1.393   .     S
C495   C533    1.519   .     S
C495   C497    1.410   .     A
C495   C655    1.393   .     S
C496   C537    1.524   .     S
C496   C498    1.408   .     A
C496   C818    1.393   1_545 S
C499   H503    1.081   .     S
C499   N508    1.366   .     A
C500   H504    1.082   .     S
C500   N507    1.366   .     A
C500   C988    1.415   .     S
C501   H505    1.082   .     S
C501   N507    1.366   .     A
C501   C985    1.415   .     S
C502   H506    1.082   .     S
C502   N508    1.366   .     A
N507   Zn517   2.007   .     S
N508   Zn518   2.007   .     S
O509   Zn517   1.991   .     S
O510   Zn518   1.991   .     S
O511   Zn518   1.994   .     S
O512   Zn517   1.994   .     S
O513   Zn517   1.977   .     S
O514   Zn518   1.977   .     S
O515   Zn518   1.992   .     S
O516   Zn517   1.992   .     S
C519   H521    1.111   .     S
C519   H522    1.107   .     S
C519   C545    1.526   .     S
C519   H574    1.110   .     S
H520   C627    1.110   1_455 S
C523   H526    1.108   .     S
C523   H525    1.111   .     S
C523   C600    1.528   1_455 S
C523   H632    1.111   1_455 S
H524   C577    1.111   .     S
C527   H528    1.085   .     S
C527   O529    1.221   .     D
C530   O532    1.221   .     D
C530   H531    1.083   .     S
C533   H536    1.109   .     S
C533   H534    1.104   .     S
C533   H535    1.110   .     S
C537   H540    1.110   .     S
C537   H538    1.107   .     S
C537   H539    1.109   .     S
C541   O565    1.277   .     A
C541   C552    1.412   .     S
C541   O563    1.278   .     A
C542   O566    1.278   .     A
C542   O564    1.279   .     A
C542   C551    1.418   .     S
C543   C545    1.429   .     S
C543   O567    1.276   .     A
C543   O569    1.288   .     A
C544   C546    1.430   .     S
C544   O568    1.278   .     A
C544   O570    1.287   .     A
C546   C599    1.364   .     S
C546   C631    1.528   .     S
C547   C552    1.408   .     A
C547   C581    1.496   .     S
C547   C873    1.393   1_545 S
C548   C551    1.409   .     A
C548   C584    1.491   .     S
C548   C712    1.393   .     S
C549   C587    1.519   .     S
C549   C551    1.410   .     A
C549   C709    1.393   .     S
C550   C591    1.524   .     S
C550   C552    1.408   .     A
C550   C872    1.393   1_545 S
C553   H557    1.081   .     S
C553   N562    1.366   .     A
C554   H558    1.082   .     S
C554   N561    1.366   .     A
C554   C1042   1.415   .     S
C555   H559    1.082   .     S
C555   N561    1.366   .     A
C555   C1039   1.415   .     S
C556   H560    1.082   .     S
C556   N562    1.366   .     A
N561   Zn571   2.007   .     S
N562   Zn572   2.007   .     S
O563   Zn571   1.991   .     S
O564   Zn572   1.991   .     S
O565   Zn572   1.994   .     S
O566   Zn571   1.994   .     S
O567   Zn571   1.977   .     S
O568   Zn572   1.977   .     S
O569   Zn572   1.992   .     S
O570   Zn571   1.992   .     S
C573   H575    1.111   .     S
C573   H576    1.107   .     S
C573   C599    1.526   .     S
C573   H628    1.110   .     S
C577   H580    1.108   .     S
C577   H579    1.111   .     S
H578   C631    1.111   .     S
C581   H582    1.085   .     S
C581   O583    1.221   .     D
C584   O586    1.221   .     D
C584   H585    1.083   .     S
C587   H590    1.109   .     S
C587   H588    1.104   .     S
C587   H589    1.110   .     S
C591   H594    1.110   .     S
C591   H592    1.107   .     S
C591   H593    1.109   .     S
C595   O619    1.277   .     A
C595   C606    1.412   .     S
C595   O617    1.278   .     A
C596   O620    1.278   .     A
C596   O618    1.279   .     A
C596   C605    1.418   .     S
C597   C599    1.429   .     S
C597   O621    1.276   .     A
C597   O623    1.288   .     A
C598   C600    1.430   .     S
C598   O622    1.278   .     A
C598   O624    1.287   .     A
C600   C491    1.364   1_655 S
C600   C523    1.528   1_655 S
C601   C606    1.408   .     A
C601   C635    1.496   .     S
C601   C927    1.393   1_545 S
C602   C605    1.409   .     A
C602   C638    1.491   .     S
C602   C766    1.393   .     S
C603   C641    1.519   .     S
C603   C605    1.410   .     A
C603   C763    1.393   .     S
C604   C645    1.524   .     S
C604   C606    1.408   .     A
C604   C926    1.393   1_545 S
C607   H611    1.081   .     S
C607   N616    1.366   .     A
C608   H612    1.082   .     S
C608   N615    1.366   .     A
C608   C1096   1.415   .     S
C609   H613    1.082   .     S
C609   N615    1.366   .     A
C609   C1093   1.415   .     S
C610   H614    1.082   .     S
C610   N616    1.366   .     A
N615   Zn625   2.007   .     S
N616   Zn626   2.007   .     S
O617   Zn625   1.991   .     S
O618   Zn626   1.991   .     S
O619   Zn626   1.994   .     S
O620   Zn625   1.994   .     S
O621   Zn625   1.977   .     S
O622   Zn626   1.977   .     S
O623   Zn626   1.992   .     S
O624   Zn625   1.992   .     S
C627   H629    1.111   .     S
C627   H630    1.107   .     S
C627   C491    1.526   1_655 S
C627   H520    1.110   1_655 S
C631   H634    1.108   .     S
C631   H633    1.111   .     S
H632   C523    1.111   1_655 S
C635   H636    1.085   .     S
C635   O637    1.221   .     D
C638   O640    1.221   .     D
C638   H639    1.083   .     S
C641   H644    1.109   .     S
C641   H642    1.104   .     S
C641   H643    1.110   .     S
C645   H648    1.110   .     S
C645   H646    1.107   .     S
C645   H647    1.109   .     S
C649   O673    1.277   .     A
C649   C660    1.412   .     S
C649   O671    1.278   .     A
C650   O674    1.278   .     A
C650   O672    1.279   .     A
C650   C659    1.418   .     S
C651   C653    1.429   .     S
C651   O675    1.276   .     A
C651   O677    1.288   .     A
C652   C654    1.430   .     S
C652   O676    1.278   .     A
C652   O678    1.287   .     A
C653   C762    1.364   1_455 S
C653   C789    1.526   1_455 S
C654   C707    1.364   .     S
C654   C739    1.528   .     S
C655   C660    1.408   .     A
C655   C689    1.496   .     S
C656   C659    1.409   .     A
C656   C692    1.491   .     S
C656   C820    1.393   .     S
C657   C695    1.519   .     S
C657   C659    1.410   .     A
C657   C817    1.393   .     S
C658   C699    1.524   .     S
C658   C660    1.408   .     A
C661   H665    1.081   .     S
C661   N670    1.366   .     A
C662   H666    1.082   .     S
C662   N669    1.366   .     A
C662   C1150   1.415   .     S
C663   H667    1.082   .     S
C663   N669    1.366   .     A
C663   C1147   1.415   .     S
C664   H668    1.082   .     S
C664   N670    1.366   .     A
N669   Zn679   2.007   .     S
N670   Zn680   2.007   .     S
O671   Zn679   1.991   .     S
O672   Zn680   1.991   .     S
O673   Zn680   1.994   .     S
O674   Zn679   1.994   .     S
O675   Zn679   1.977   .     S
O676   Zn680   1.977   .     S
O677   Zn680   1.992   .     S
O678   Zn679   1.992   .     S
C681   H683    1.111   .     S
C681   H684    1.107   .     S
C681   C707    1.526   .     S
C681   H736    1.110   .     S
H682   C789    1.110   1_455 S
C685   H688    1.108   .     S
C685   H687    1.111   .     S
C685   C762    1.528   1_455 S
C685   H794    1.111   1_455 S
H686   C739    1.111   .     S
C689   H690    1.085   .     S
C689   O691    1.221   .     D
C692   O694    1.221   .     D
C692   H693    1.083   .     S
C695   H698    1.109   .     S
C695   H696    1.104   .     S
C695   H697    1.110   .     S
C699   H702    1.110   .     S
C699   H700    1.107   .     S
C699   H701    1.109   .     S
C703   O727    1.277   .     A
C703   C714    1.412   .     S
C703   O725    1.278   .     A
C704   O728    1.278   .     A
C704   O726    1.279   .     A
C704   C713    1.418   .     S
C705   C707    1.429   .     S
C705   O729    1.276   .     A
C705   O731    1.288   .     A
C706   C708    1.430   .     S
C706   O730    1.278   .     A
C706   O732    1.287   .     A
C708   C761    1.364   .     S
C708   C793    1.528   .     S
C709   C714    1.408   .     A
C709   C743    1.496   .     S
C710   C713    1.409   .     A
C710   C746    1.491   .     S
C710   C874    1.393   .     S
C711   C749    1.519   .     S
C711   C713    1.410   .     A
C711   C871    1.393   .     S
C712   C753    1.524   .     S
C712   C714    1.408   .     A
C715   H719    1.081   .     S
C715   N724    1.366   .     A
C716   H720    1.082   .     S
C716   N723    1.366   .     A
C716   C1204   1.415   .     S
C717   H721    1.082   .     S
C717   N723    1.366   .     A
C717   C1201   1.415   .     S
C718   H722    1.082   .     S
C718   N724    1.366   .     A
N723   Zn733   2.007   .     S
N724   Zn734   2.007   .     S
O725   Zn733   1.991   .     S
O726   Zn734   1.991   .     S
O727   Zn734   1.994   .     S
O728   Zn733   1.994   .     S
O729   Zn733   1.977   .     S
O730   Zn734   1.977   .     S
O731   Zn734   1.992   .     S
O732   Zn733   1.992   .     S
C735   H737    1.111   .     S
C735   H738    1.107   .     S
C735   C761    1.526   .     S
C735   H790    1.110   .     S
C739   H742    1.108   .     S
C739   H741    1.111   .     S
H740   C793    1.111   .     S
C743   H744    1.085   .     S
C743   O745    1.221   .     D
C746   O748    1.221   .     D
C746   H747    1.083   .     S
C749   H752    1.109   .     S
C749   H750    1.104   .     S
C749   H751    1.110   .     S
C753   H756    1.110   .     S
C753   H754    1.107   .     S
C753   H755    1.109   .     S
C757   O781    1.277   .     A
C757   C768    1.412   .     S
C757   O779    1.278   .     A
C758   O782    1.278   .     A
C758   O780    1.279   .     A
C758   C767    1.418   .     S
C759   C761    1.429   .     S
C759   O783    1.276   .     A
C759   O785    1.288   .     A
C760   C762    1.430   .     S
C760   O784    1.278   .     A
C760   O786    1.287   .     A
C762   C653    1.364   1_655 S
C762   C685    1.528   1_655 S
C763   C768    1.408   .     A
C763   C797    1.496   .     S
C764   C767    1.409   .     A
C764   C800    1.491   .     S
C764   C928    1.393   .     S
C765   C803    1.519   .     S
C765   C767    1.410   .     A
C765   C925    1.393   .     S
C766   C807    1.524   .     S
C766   C768    1.408   .     A
C769   H773    1.081   .     S
C769   N778    1.366   .     A
C770   H774    1.082   .     S
C770   N777    1.366   .     A
C770   C1258   1.415   .     S
C771   H775    1.082   .     S
C771   N777    1.366   .     A
C771   C1255   1.415   .     S
C772   H776    1.082   .     S
C772   N778    1.366   .     A
N777   Zn787   2.007   .     S
N778   Zn788   2.007   .     S
O779   Zn787   1.991   .     S
O780   Zn788   1.991   .     S
O781   Zn788   1.994   .     S
O782   Zn787   1.994   .     S
O783   Zn787   1.977   .     S
O784   Zn788   1.977   .     S
O785   Zn788   1.992   .     S
O786   Zn787   1.992   .     S
C789   H791    1.111   .     S
C789   H792    1.107   .     S
C789   C653    1.526   1_655 S
C789   H682    1.110   1_655 S
C793   H796    1.108   .     S
C793   H795    1.111   .     S
H794   C685    1.111   1_655 S
C797   H798    1.085   .     S
C797   O799    1.221   .     D
C800   O802    1.221   .     D
C800   H801    1.083   .     S
C803   H806    1.109   .     S
C803   H804    1.104   .     S
C803   H805    1.110   .     S
C807   H810    1.110   .     S
C807   H808    1.107   .     S
C807   H809    1.109   .     S
C811   O835    1.277   .     A
C811   C822    1.412   .     S
C811   O833    1.278   .     A
C812   O836    1.278   .     A
C812   O834    1.279   .     A
C812   C821    1.418   .     S
C813   C815    1.429   .     S
C813   O837    1.276   .     A
C813   O839    1.288   .     A
C814   C816    1.430   .     S
C814   O838    1.278   .     A
C814   O840    1.287   .     A
C815   C924    1.364   1_455 S
C815   C951    1.526   1_455 S
C816   C869    1.364   .     S
C816   C901    1.528   .     S
C817   C822    1.408   .     A
C817   C851    1.496   .     S
C818   C821    1.409   .     A
C818   C854    1.491   .     S
C818   C496    1.393   1_565 S
C819   C857    1.519   .     S
C819   C821    1.410   .     A
C819   C493    1.393   1_565 S
C820   C861    1.524   .     S
C820   C822    1.408   .     A
C823   H827    1.081   .     S
C823   N832    1.366   .     A
C824   H828    1.082   .     S
C824   N831    1.366   .     A
C824   C1312   1.415   .     S
C825   H829    1.082   .     S
C825   N831    1.366   .     A
C825   C1309   1.415   .     S
C826   H830    1.082   .     S
C826   N832    1.366   .     A
N831   Zn841   2.007   .     S
N832   Zn842   2.007   .     S
O833   Zn841   1.991   .     S
O834   Zn842   1.991   .     S
O835   Zn842   1.994   .     S
O836   Zn841   1.994   .     S
O837   Zn841   1.977   .     S
O838   Zn842   1.977   .     S
O839   Zn842   1.992   .     S
O840   Zn841   1.992   .     S
C843   H845    1.111   .     S
C843   H846    1.107   .     S
C843   C869    1.526   .     S
C843   H898    1.110   .     S
H844   C951    1.110   1_455 S
C847   H850    1.108   .     S
C847   H849    1.111   .     S
C847   C924    1.528   1_455 S
C847   H956    1.111   1_455 S
H848   C901    1.111   .     S
C851   H852    1.085   .     S
C851   O853    1.221   .     D
C854   O856    1.221   .     D
C854   H855    1.083   .     S
C857   H860    1.109   .     S
C857   H858    1.104   .     S
C857   H859    1.110   .     S
C861   H864    1.110   .     S
C861   H862    1.107   .     S
C861   H863    1.109   .     S
C865   O889    1.277   .     A
C865   C876    1.412   .     S
C865   O887    1.278   .     A
C866   O890    1.278   .     A
C866   O888    1.279   .     A
C866   C875    1.418   .     S
C867   C869    1.429   .     S
C867   O891    1.276   .     A
C867   O893    1.288   .     A
C868   C870    1.430   .     S
C868   O892    1.278   .     A
C868   O894    1.287   .     A
C870   C923    1.364   .     S
C870   C955    1.528   .     S
C871   C876    1.408   .     A
C871   C905    1.496   .     S
C872   C875    1.409   .     A
C872   C908    1.491   .     S
C872   C550    1.393   1_565 S
C873   C911    1.519   .     S
C873   C875    1.410   .     A
C873   C547    1.393   1_565 S
C874   C915    1.524   .     S
C874   C876    1.408   .     A
C877   H881    1.081   .     S
C877   N886    1.366   .     A
C878   H882    1.082   .     S
C878   N885    1.366   .     A
C878   C1366   1.415   .     S
C879   H883    1.082   .     S
C879   N885    1.366   .     A
C879   C1363   1.415   .     S
C880   H884    1.082   .     S
C880   N886    1.366   .     A
N885   Zn895   2.007   .     S
N886   Zn896   2.007   .     S
O887   Zn895   1.991   .     S
O888   Zn896   1.991   .     S
O889   Zn896   1.994   .     S
O890   Zn895   1.994   .     S
O891   Zn895   1.977   .     S
O892   Zn896   1.977   .     S
O893   Zn896   1.992   .     S
O894   Zn895   1.992   .     S
C897   H899    1.111   .     S
C897   H900    1.107   .     S
C897   C923    1.526   .     S
C897   H952    1.110   .     S
C901   H904    1.108   .     S
C901   H903    1.111   .     S
H902   C955    1.111   .     S
C905   H906    1.085   .     S
C905   O907    1.221   .     D
C908   O910    1.221   .     D
C908   H909    1.083   .     S
C911   H914    1.109   .     S
C911   H912    1.104   .     S
C911   H913    1.110   .     S
C915   H918    1.110   .     S
C915   H916    1.107   .     S
C915   H917    1.109   .     S
C919   O943    1.277   .     A
C919   C930    1.412   .     S
C919   O941    1.278   .     A
C920   O944    1.278   .     A
C920   O942    1.279   .     A
C920   C929    1.418   .     S
C921   C923    1.429   .     S
C921   O945    1.276   .     A
C921   O947    1.288   .     A
C922   C924    1.430   .     S
C922   O946    1.278   .     A
C922   O948    1.287   .     A
C924   C815    1.364   1_655 S
C924   C847    1.528   1_655 S
C925   C930    1.408   .     A
C925   C959    1.496   .     S
C926   C929    1.409   .     A
C926   C962    1.491   .     S
C926   C604    1.393   1_565 S
C927   C965    1.519   .     S
C927   C929    1.410   .     A
C927   C601    1.393   1_565 S
C928   C969    1.524   .     S
C928   C930    1.408   .     A
C931   H935    1.081   .     S
C931   N940    1.366   .     A
C932   H936    1.082   .     S
C932   N939    1.366   .     A
C932   C1420   1.415   .     S
C933   H937    1.082   .     S
C933   N939    1.366   .     A
C933   C1417   1.415   .     S
C934   H938    1.082   .     S
C934   N940    1.366   .     A
N939   Zn949   2.007   .     S
N940   Zn950   2.007   .     S
O941   Zn949   1.991   .     S
O942   Zn950   1.991   .     S
O943   Zn950   1.994   .     S
O944   Zn949   1.994   .     S
O945   Zn949   1.977   .     S
O946   Zn950   1.977   .     S
O947   Zn950   1.992   .     S
O948   Zn949   1.992   .     S
C951   H953    1.111   .     S
C951   H954    1.107   .     S
C951   C815    1.526   1_655 S
C951   H844    1.110   1_655 S
C955   H958    1.108   .     S
C955   H957    1.111   .     S
H956   C847    1.111   1_655 S
C959   H960    1.085   .     S
C959   O961    1.221   .     D
C962   O964    1.221   .     D
C962   H963    1.083   .     S
C965   H968    1.109   .     S
C965   H966    1.104   .     S
C965   H967    1.110   .     S
C969   H972    1.110   .     S
C969   H970    1.107   .     S
C969   H971    1.109   .     S
C973   O997    1.277   .     A
C973   C984    1.412   .     S
C973   O995    1.278   .     A
C974   O998    1.278   .     A
C974   O996    1.279   .     A
C974   C983    1.418   .     S
C975   C977    1.429   .     S
C975   O999    1.276   .     A
C975   O1001   1.288   .     A
C976   C978    1.430   .     S
C976   O1000   1.278   .     A
C976   O1002   1.287   .     A
C977   C1086   1.364   1_455 S
C977   C1113   1.526   1_455 S
C978   C1031   1.364   .     S
C978   C1063   1.528   .     S
C979   C984    1.408   .     A
C979   C1013   1.496   .     S
C979   C1305   1.393   1_545 S
C980   C983    1.409   .     A
C980   C1016   1.491   .     S
C980   C1144   1.393   .     S
C981   C1019   1.519   .     S
C981   C983    1.410   .     A
C981   C1141   1.393   .     S
C982   C1023   1.524   .     S
C982   C984    1.408   .     A
C982   C1304   1.393   1_545 S
C985   H989    1.081   .     S
C985   N994    1.366   .     A
C986   H990    1.082   .     S
C986   N993    1.366   .     A
C986   C16     1.415   1_556 S
C987   H991    1.082   .     S
C987   N993    1.366   .     A
C987   C13     1.415   1_556 S
C988   H992    1.082   .     S
C988   N994    1.366   .     A
N993   Zn1003  2.007   .     S
N994   Zn1004  2.007   .     S
O995   Zn1003  1.991   .     S
O996   Zn1004  1.991   .     S
O997   Zn1004  1.994   .     S
O998   Zn1003  1.994   .     S
O999   Zn1003  1.977   .     S
O1000  Zn1004  1.977   .     S
O1001  Zn1004  1.992   .     S
O1002  Zn1003  1.992   .     S
C1005  H1007   1.111   .     S
C1005  H1008   1.107   .     S
C1005  C1031   1.526   .     S
C1005  H1060   1.110   .     S
H1006  C1113   1.110   1_455 S
C1009  H1012   1.108   .     S
C1009  H1011   1.111   .     S
C1009  C1086   1.528   1_455 S
C1009  H1118   1.111   1_455 S
H1010  C1063   1.111   .     S
C1013  H1014   1.085   .     S
C1013  O1015   1.221   .     D
C1016  O1018   1.221   .     D
C1016  H1017   1.083   .     S
C1019  H1022   1.109   .     S
C1019  H1020   1.104   .     S
C1019  H1021   1.110   .     S
C1023  H1026   1.110   .     S
C1023  H1024   1.107   .     S
C1023  H1025   1.109   .     S
C1027  O1051   1.277   .     A
C1027  C1038   1.412   .     S
C1027  O1049   1.278   .     A
C1028  O1052   1.278   .     A
C1028  O1050   1.279   .     A
C1028  C1037   1.418   .     S
C1029  C1031   1.429   .     S
C1029  O1053   1.276   .     A
C1029  O1055   1.288   .     A
C1030  C1032   1.430   .     S
C1030  O1054   1.278   .     A
C1030  O1056   1.287   .     A
C1032  C1085   1.364   .     S
C1032  C1117   1.528   .     S
C1033  C1038   1.408   .     A
C1033  C1067   1.496   .     S
C1033  C1359   1.393   1_545 S
C1034  C1037   1.409   .     A
C1034  C1070   1.491   .     S
C1034  C1198   1.393   .     S
C1035  C1073   1.519   .     S
C1035  C1037   1.410   .     A
C1035  C1195   1.393   .     S
C1036  C1077   1.524   .     S
C1036  C1038   1.408   .     A
C1036  C1358   1.393   1_545 S
C1039  H1043   1.081   .     S
C1039  N1048   1.366   .     A
C1040  H1044   1.082   .     S
C1040  N1047   1.366   .     A
C1040  C70     1.415   1_556 S
C1041  H1045   1.082   .     S
C1041  N1047   1.366   .     A
C1041  C67     1.415   1_556 S
C1042  H1046   1.082   .     S
C1042  N1048   1.366   .     A
N1047  Zn1057  2.007   .     S
N1048  Zn1058  2.007   .     S
O1049  Zn1057  1.991   .     S
O1050  Zn1058  1.991   .     S
O1051  Zn1058  1.994   .     S
O1052  Zn1057  1.994   .     S
O1053  Zn1057  1.977   .     S
O1054  Zn1058  1.977   .     S
O1055  Zn1058  1.992   .     S
O1056  Zn1057  1.992   .     S
C1059  H1061   1.111   .     S
C1059  H1062   1.107   .     S
C1059  C1085   1.526   .     S
C1059  H1114   1.110   .     S
C1063  H1066   1.108   .     S
C1063  H1065   1.111   .     S
H1064  C1117   1.111   .     S
C1067  H1068   1.085   .     S
C1067  O1069   1.221   .     D
C1070  O1072   1.221   .     D
C1070  H1071   1.083   .     S
C1073  H1076   1.109   .     S
C1073  H1074   1.104   .     S
C1073  H1075   1.110   .     S
C1077  H1080   1.110   .     S
C1077  H1078   1.107   .     S
C1077  H1079   1.109   .     S
C1081  O1105   1.277   .     A
C1081  C1092   1.412   .     S
C1081  O1103   1.278   .     A
C1082  O1106   1.278   .     A
C1082  O1104   1.279   .     A
C1082  C1091   1.418   .     S
C1083  C1085   1.429   .     S
C1083  O1107   1.276   .     A
C1083  O1109   1.288   .     A
C1084  C1086   1.430   .     S
C1084  O1108   1.278   .     A
C1084  O1110   1.287   .     A
C1086  C977    1.364   1_655 S
C1086  C1009   1.528   1_655 S
C1087  C1092   1.408   .     A
C1087  C1121   1.496   .     S
C1087  C1413   1.393   1_545 S
C1088  C1091   1.409   .     A
C1088  C1124   1.491   .     S
C1088  C1252   1.393   .     S
C1089  C1127   1.519   .     S
C1089  C1091   1.410   .     A
C1089  C1249   1.393   .     S
C1090  C1131   1.524   .     S
C1090  C1092   1.408   .     A
C1090  C1412   1.393   1_545 S
C1093  H1097   1.081   .     S
C1093  N1102   1.366   .     A
C1094  H1098   1.082   .     S
C1094  N1101   1.366   .     A
C1094  C124    1.415   1_556 S
C1095  H1099   1.082   .     S
C1095  N1101   1.366   .     A
C1095  C121    1.415   1_556 S
C1096  H1100   1.082   .     S
C1096  N1102   1.366   .     A
N1101  Zn1111  2.007   .     S
N1102  Zn1112  2.007   .     S
O1103  Zn1111  1.991   .     S
O1104  Zn1112  1.991   .     S
O1105  Zn1112  1.994   .     S
O1106  Zn1111  1.994   .     S
O1107  Zn1111  1.977   .     S
O1108  Zn1112  1.977   .     S
O1109  Zn1112  1.992   .     S
O1110  Zn1111  1.992   .     S
C1113  H1115   1.111   .     S
C1113  H1116   1.107   .     S
C1113  C977    1.526   1_655 S
C1113  H1006   1.110   1_655 S
C1117  H1120   1.108   .     S
C1117  H1119   1.111   .     S
H1118  C1009   1.111   1_655 S
C1121  H1122   1.085   .     S
C1121  O1123   1.221   .     D
C1124  O1126   1.221   .     D
C1124  H1125   1.083   .     S
C1127  H1130   1.109   .     S
C1127  H1128   1.104   .     S
C1127  H1129   1.110   .     S
C1131  H1134   1.110   .     S
C1131  H1132   1.107   .     S
C1131  H1133   1.109   .     S
C1135  O1159   1.277   .     A
C1135  C1146   1.412   .     S
C1135  O1157   1.278   .     A
C1136  O1160   1.278   .     A
C1136  O1158   1.279   .     A
C1136  C1145   1.418   .     S
C1137  C1139   1.429   .     S
C1137  O1161   1.276   .     A
C1137  O1163   1.288   .     A
C1138  C1140   1.430   .     S
C1138  O1162   1.278   .     A
C1138  O1164   1.287   .     A
C1139  C1248   1.364   1_455 S
C1139  C1275   1.526   1_455 S
C1140  C1193   1.364   .     S
C1140  C1225   1.528   .     S
C1141  C1146   1.408   .     A
C1141  C1175   1.496   .     S
C1142  C1145   1.409   .     A
C1142  C1178   1.491   .     S
C1142  C1306   1.393   .     S
C1143  C1181   1.519   .     S
C1143  C1145   1.410   .     A
C1143  C1303   1.393   .     S
C1144  C1185   1.524   .     S
C1144  C1146   1.408   .     A
C1147  H1151   1.081   .     S
C1147  N1156   1.366   .     A
C1148  H1152   1.082   .     S
C1148  N1155   1.366   .     A
C1148  C178    1.415   1_556 S
C1149  H1153   1.082   .     S
C1149  N1155   1.366   .     A
C1149  C175    1.415   1_556 S
C1150  H1154   1.082   .     S
C1150  N1156   1.366   .     A
N1155  Zn1165  2.007   .     S
N1156  Zn1166  2.007   .     S
O1157  Zn1165  1.991   .     S
O1158  Zn1166  1.991   .     S
O1159  Zn1166  1.994   .     S
O1160  Zn1165  1.994   .     S
O1161  Zn1165  1.977   .     S
O1162  Zn1166  1.977   .     S
O1163  Zn1166  1.992   .     S
O1164  Zn1165  1.992   .     S
C1167  H1169   1.111   .     S
C1167  H1170   1.107   .     S
C1167  C1193   1.526   .     S
C1167  H1222   1.110   .     S
H1168  C1275   1.110   1_455 S
C1171  H1174   1.108   .     S
C1171  H1173   1.111   .     S
C1171  C1248   1.528   1_455 S
C1171  H1280   1.111   1_455 S
H1172  C1225   1.111   .     S
C1175  H1176   1.085   .     S
C1175  O1177   1.221   .     D
C1178  O1180   1.221   .     D
C1178  H1179   1.083   .     S
C1181  H1184   1.109   .     S
C1181  H1182   1.104   .     S
C1181  H1183   1.110   .     S
C1185  H1188   1.110   .     S
C1185  H1186   1.107   .     S
C1185  H1187   1.109   .     S
C1189  O1213   1.277   .     A
C1189  C1200   1.412   .     S
C1189  O1211   1.278   .     A
C1190  O1214   1.278   .     A
C1190  O1212   1.279   .     A
C1190  C1199   1.418   .     S
C1191  C1193   1.429   .     S
C1191  O1215   1.276   .     A
C1191  O1217   1.288   .     A
C1192  C1194   1.430   .     S
C1192  O1216   1.278   .     A
C1192  O1218   1.287   .     A
C1194  C1247   1.364   .     S
C1194  C1279   1.528   .     S
C1195  C1200   1.408   .     A
C1195  C1229   1.496   .     S
C1196  C1199   1.409   .     A
C1196  C1232   1.491   .     S
C1196  C1360   1.393   .     S
C1197  C1235   1.519   .     S
C1197  C1199   1.410   .     A
C1197  C1357   1.393   .     S
C1198  C1239   1.524   .     S
C1198  C1200   1.408   .     A
C1201  H1205   1.081   .     S
C1201  N1210   1.366   .     A
C1202  H1206   1.082   .     S
C1202  N1209   1.366   .     A
C1202  C232    1.415   1_556 S
C1203  H1207   1.082   .     S
C1203  N1209   1.366   .     A
C1203  C229    1.415   1_556 S
C1204  H1208   1.082   .     S
C1204  N1210   1.366   .     A
N1209  Zn1219  2.007   .     S
N1210  Zn1220  2.007   .     S
O1211  Zn1219  1.991   .     S
O1212  Zn1220  1.991   .     S
O1213  Zn1220  1.994   .     S
O1214  Zn1219  1.994   .     S
O1215  Zn1219  1.977   .     S
O1216  Zn1220  1.977   .     S
O1217  Zn1220  1.992   .     S
O1218  Zn1219  1.992   .     S
C1221  H1223   1.111   .     S
C1221  H1224   1.107   .     S
C1221  C1247   1.526   .     S
C1221  H1276   1.110   .     S
C1225  H1228   1.108   .     S
C1225  H1227   1.111   .     S
H1226  C1279   1.111   .     S
C1229  H1230   1.085   .     S
C1229  O1231   1.221   .     D
C1232  O1234   1.221   .     D
C1232  H1233   1.083   .     S
C1235  H1238   1.109   .     S
C1235  H1236   1.104   .     S
C1235  H1237   1.110   .     S
C1239  H1242   1.110   .     S
C1239  H1240   1.107   .     S
C1239  H1241   1.109   .     S
C1243  O1267   1.277   .     A
C1243  C1254   1.412   .     S
C1243  O1265   1.278   .     A
C1244  O1268   1.278   .     A
C1244  O1266   1.279   .     A
C1244  C1253   1.418   .     S
C1245  C1247   1.429   .     S
C1245  O1269   1.276   .     A
C1245  O1271   1.288   .     A
C1246  C1248   1.430   .     S
C1246  O1270   1.278   .     A
C1246  O1272   1.287   .     A
C1248  C1139   1.364   1_655 S
C1248  C1171   1.528   1_655 S
C1249  C1254   1.408   .     A
C1249  C1283   1.496   .     S
C1250  C1253   1.409   .     A
C1250  C1286   1.491   .     S
C1250  C1414   1.393   .     S
C1251  C1289   1.519   .     S
C1251  C1253   1.410   .     A
C1251  C1411   1.393   .     S
C1252  C1293   1.524   .     S
C1252  C1254   1.408   .     A
C1255  H1259   1.081   .     S
C1255  N1264   1.366   .     A
C1256  H1260   1.082   .     S
C1256  N1263   1.366   .     A
C1256  C286    1.415   1_556 S
C1257  H1261   1.082   .     S
C1257  N1263   1.366   .     A
C1257  C283    1.415   1_556 S
C1258  H1262   1.082   .     S
C1258  N1264   1.366   .     A
N1263  Zn1273  2.007   .     S
N1264  Zn1274  2.007   .     S
O1265  Zn1273  1.991   .     S
O1266  Zn1274  1.991   .     S
O1267  Zn1274  1.994   .     S
O1268  Zn1273  1.994   .     S
O1269  Zn1273  1.977   .     S
O1270  Zn1274  1.977   .     S
O1271  Zn1274  1.992   .     S
O1272  Zn1273  1.992   .     S
C1275  H1277   1.111   .     S
C1275  H1278   1.107   .     S
C1275  C1139   1.526   1_655 S
C1275  H1168   1.110   1_655 S
C1279  H1282   1.108   .     S
C1279  H1281   1.111   .     S
H1280  C1171   1.111   1_655 S
C1283  H1284   1.085   .     S
C1283  O1285   1.221   .     D
C1286  O1288   1.221   .     D
C1286  H1287   1.083   .     S
C1289  H1292   1.109   .     S
C1289  H1290   1.104   .     S
C1289  H1291   1.110   .     S
C1293  H1296   1.110   .     S
C1293  H1294   1.107   .     S
C1293  H1295   1.109   .     S
C1297  O1321   1.277   .     A
C1297  C1308   1.412   .     S
C1297  O1319   1.278   .     A
C1298  O1322   1.278   .     A
C1298  O1320   1.279   .     A
C1298  C1307   1.418   .     S
C1299  C1301   1.429   .     S
C1299  O1323   1.276   .     A
C1299  O1325   1.288   .     A
C1300  C1302   1.430   .     S
C1300  O1324   1.278   .     A
C1300  O1326   1.287   .     A
C1301  C1410   1.364   1_455 S
C1301  C1437   1.526   1_455 S
C1302  C1355   1.364   .     S
C1302  C1387   1.528   .     S
C1303  C1308   1.408   .     A
C1303  C1337   1.496   .     S
C1304  C1307   1.409   .     A
C1304  C1340   1.491   .     S
C1304  C982    1.393   1_565 S
C1305  C1343   1.519   .     S
C1305  C1307   1.410   .     A
C1305  C979    1.393   1_565 S
C1306  C1347   1.524   .     S
C1306  C1308   1.408   .     A
C1309  H1313   1.081   .     S
C1309  N1318   1.366   .     A
C1310  H1314   1.082   .     S
C1310  N1317   1.366   .     A
C1310  C340    1.415   1_556 S
C1311  H1315   1.082   .     S
C1311  N1317   1.366   .     A
C1311  C337    1.415   1_556 S
C1312  H1316   1.082   .     S
C1312  N1318   1.366   .     A
N1317  Zn1327  2.007   .     S
N1318  Zn1328  2.007   .     S
O1319  Zn1327  1.991   .     S
O1320  Zn1328  1.991   .     S
O1321  Zn1328  1.994   .     S
O1322  Zn1327  1.994   .     S
O1323  Zn1327  1.977   .     S
O1324  Zn1328  1.977   .     S
O1325  Zn1328  1.992   .     S
O1326  Zn1327  1.992   .     S
C1329  H1331   1.111   .     S
C1329  H1332   1.107   .     S
C1329  C1355   1.526   .     S
C1329  H1384   1.110   .     S
H1330  C1437   1.110   1_455 S
C1333  H1336   1.108   .     S
C1333  H1335   1.111   .     S
C1333  C1410   1.528   1_455 S
C1333  H1442   1.111   1_455 S
H1334  C1387   1.111   .     S
C1337  H1338   1.085   .     S
C1337  O1339   1.221   .     D
C1340  O1342   1.221   .     D
C1340  H1341   1.083   .     S
C1343  H1346   1.109   .     S
C1343  H1344   1.104   .     S
C1343  H1345   1.110   .     S
C1347  H1350   1.110   .     S
C1347  H1348   1.107   .     S
C1347  H1349   1.109   .     S
C1351  O1375   1.277   .     A
C1351  C1362   1.412   .     S
C1351  O1373   1.278   .     A
C1352  O1376   1.278   .     A
C1352  O1374   1.279   .     A
C1352  C1361   1.418   .     S
C1353  C1355   1.429   .     S
C1353  O1377   1.276   .     A
C1353  O1379   1.288   .     A
C1354  C1356   1.430   .     S
C1354  O1378   1.278   .     A
C1354  O1380   1.287   .     A
C1356  C1409   1.364   .     S
C1356  C1441   1.528   .     S
C1357  C1362   1.408   .     A
C1357  C1391   1.496   .     S
C1358  C1361   1.409   .     A
C1358  C1394   1.491   .     S
C1358  C1036   1.393   1_565 S
C1359  C1397   1.519   .     S
C1359  C1361   1.410   .     A
C1359  C1033   1.393   1_565 S
C1360  C1401   1.524   .     S
C1360  C1362   1.408   .     A
C1363  H1367   1.081   .     S
C1363  N1372   1.366   .     A
C1364  H1368   1.082   .     S
C1364  N1371   1.366   .     A
C1364  C394    1.415   1_556 S
C1365  H1369   1.082   .     S
C1365  N1371   1.366   .     A
C1365  C391    1.415   1_556 S
C1366  H1370   1.082   .     S
C1366  N1372   1.366   .     A
N1371  Zn1381  2.007   .     S
N1372  Zn1382  2.007   .     S
O1373  Zn1381  1.991   .     S
O1374  Zn1382  1.991   .     S
O1375  Zn1382  1.994   .     S
O1376  Zn1381  1.994   .     S
O1377  Zn1381  1.977   .     S
O1378  Zn1382  1.977   .     S
O1379  Zn1382  1.992   .     S
O1380  Zn1381  1.992   .     S
C1383  H1385   1.111   .     S
C1383  H1386   1.107   .     S
C1383  C1409   1.526   .     S
C1383  H1438   1.110   .     S
C1387  H1390   1.108   .     S
C1387  H1389   1.111   .     S
H1388  C1441   1.111   .     S
C1391  H1392   1.085   .     S
C1391  O1393   1.221   .     D
C1394  O1396   1.221   .     D
C1394  H1395   1.083   .     S
C1397  H1400   1.109   .     S
C1397  H1398   1.104   .     S
C1397  H1399   1.110   .     S
C1401  H1404   1.110   .     S
C1401  H1402   1.107   .     S
C1401  H1403   1.109   .     S
C1405  O1429   1.277   .     A
C1405  C1416   1.412   .     S
C1405  O1427   1.278   .     A
C1406  O1430   1.278   .     A
C1406  O1428   1.279   .     A
C1406  C1415   1.418   .     S
C1407  C1409   1.429   .     S
C1407  O1431   1.276   .     A
C1407  O1433   1.288   .     A
C1408  C1410   1.430   .     S
C1408  O1432   1.278   .     A
C1408  O1434   1.287   .     A
C1410  C1301   1.364   1_655 S
C1410  C1333   1.528   1_655 S
C1411  C1416   1.408   .     A
C1411  C1445   1.496   .     S
C1412  C1415   1.409   .     A
C1412  C1448   1.491   .     S
C1412  C1090   1.393   1_565 S
C1413  C1451   1.519   .     S
C1413  C1415   1.410   .     A
C1413  C1087   1.393   1_565 S
C1414  C1455   1.524   .     S
C1414  C1416   1.408   .     A
C1417  H1421   1.081   .     S
C1417  N1426   1.366   .     A
C1418  H1422   1.082   .     S
C1418  N1425   1.366   .     A
C1418  C448    1.415   1_556 S
C1419  H1423   1.082   .     S
C1419  N1425   1.366   .     A
C1419  C445    1.415   1_556 S
C1420  H1424   1.082   .     S
C1420  N1426   1.366   .     A
N1425  Zn1435  2.007   .     S
N1426  Zn1436  2.007   .     S
O1427  Zn1435  1.991   .     S
O1428  Zn1436  1.991   .     S
O1429  Zn1436  1.994   .     S
O1430  Zn1435  1.994   .     S
O1431  Zn1435  1.977   .     S
O1432  Zn1436  1.977   .     S
O1433  Zn1436  1.992   .     S
O1434  Zn1435  1.992   .     S
C1437  H1439   1.111   .     S
C1437  H1440   1.107   .     S
C1437  C1301   1.526   1_655 S
C1437  H1330   1.110   1_655 S
C1441  H1444   1.108   .     S
C1441  H1443   1.111   .     S
H1442  C1333   1.111   1_655 S
C1445  H1446   1.085   .     S
C1445  O1447   1.221   .     D
C1448  O1450   1.221   .     D
C1448  H1449   1.083   .     S
C1451  H1454   1.109   .     S
C1451  H1452   1.104   .     S
C1451  H1453   1.110   .     S
C1455  H1458   1.110   .     S
C1455  H1456   1.107   .     S
C1455  H1457   1.109   .     S
