data_str_m3_o1_o2_pcu_sym.105
_audit_creation_date              2020-01-03
_audit_creation_method            'Materials Studio'
_symmetry_space_group_name_H-M    'P1'
_symmetry_Int_Tables_number       1
_symmetry_cell_setting            triclinic
loop_
_symmetry_equiv_pos_as_xyz
  x,y,z
_cell_length_a                    32.5524
_cell_length_b                    29.4441
_cell_length_c                    30.0124
_cell_angle_alpha                 90.0000
_cell_angle_beta                  90.0640
_cell_angle_gamma                 90.0000
loop_
_atom_site_label
_atom_site_type_symbol
_atom_site_fract_x
_atom_site_fract_y
_atom_site_fract_z
_atom_site_U_iso_or_equiv
_atom_site_adp_type
_atom_site_occupancy
C1     C     0.08659   0.16663   0.25040   0.00000  Uiso   1.00
C2     C     0.24674   0.16663   0.24960   0.00000  Uiso   1.00
C3     C     0.16666   0.16667   0.16389   0.00000  Uiso   1.00
C4     C     0.16667   0.16667   0.33611   0.00000  Uiso   1.00
C5     C     0.17771   0.02400   0.28728   0.00000  Uiso   1.00
C6     C     0.15515   0.30935   0.21288   0.00000  Uiso   1.00
C7     C     0.15562   0.02400   0.21272   0.00000  Uiso   1.00
C8     C     0.17818   0.30935   0.28712   0.00000  Uiso   1.00
C9     C     0.02110   0.12496   0.24782   0.00000  Uiso   1.00
C10    C     0.31236   0.20792   0.24677   0.00000  Uiso   1.00
C11    C     0.31223   0.12496   0.25218   0.00000  Uiso   1.00
C12    C     0.02097   0.20792   0.25323   0.00000  Uiso   1.00
C13    C     0.15237   0.20485   0.04704   0.00000  Uiso   1.00
C14    C     0.15238   0.12846   0.45292   0.00000  Uiso   1.00
C15    C     0.18096   0.20485   0.45296   0.00000  Uiso   1.00
C16    C     0.18096   0.12846   0.04708   0.00000  Uiso   1.00
C17    C     0.15261   0.20497   0.09303   0.00000  Uiso   1.00
C18    C     0.15262   0.12835   0.40693   0.00000  Uiso   1.00
C19    C     0.18072   0.20497   0.40697   0.00000  Uiso   1.00
C20    C     0.18071   0.12835   0.09307   0.00000  Uiso   1.00
C21    C     0.16666   0.16667   0.11602   0.00000  Uiso   1.00
C22    C     0.16667   0.16667   0.38398   0.00000  Uiso   1.00
C23    C     0.16667   0.16666   0.02406   0.00000  Uiso   1.00
C24    C     0.16667   0.16666   0.47594   0.00000  Uiso   1.00
C25    C     0.29088   0.16647   0.24932   0.00000  Uiso   1.00
C26    C     0.04245   0.16647   0.25068   0.00000  Uiso   1.00
H27    H     0.18681   0.04210   0.31703   0.00000  Uiso   1.00
H28    H     0.14573   0.29126   0.18324   0.00000  Uiso   1.00
H29    H     0.14652   0.04210   0.18297   0.00000  Uiso   1.00
H30    H     0.18760   0.29126   0.31676   0.00000  Uiso   1.00
H31    H     0.14071   0.23428   0.02943   0.00000  Uiso   1.00
H32    H     0.14072   0.09903   0.47049   0.00000  Uiso   1.00
H33    H     0.19263   0.23428   0.47057   0.00000  Uiso   1.00
H34    H     0.19262   0.09903   0.02951   0.00000  Uiso   1.00
H35    H     0.14132   0.23463   0.11054   0.00000  Uiso   1.00
H36    H     0.14135   0.09869   0.38938   0.00000  Uiso   1.00
H37    H     0.19201   0.23463   0.38946   0.00000  Uiso   1.00
H38    H     0.19198   0.09869   0.11062   0.00000  Uiso   1.00
N39    N     0.16667   0.28573   0.25000   0.00000  Uiso   1.00
N40    N     0.16667   0.04760   0.25000   0.00000  Uiso   1.00
O41    O     0.10559   0.20487   0.24999   0.00000  Uiso   1.00
O42    O     0.22774   0.12846   0.25000   0.00000  Uiso   1.00
O43    O     0.22774   0.20487   0.25000   0.00000  Uiso   1.00
O44    O     0.10559   0.12846   0.24999   0.00000  Uiso   1.00
O45    O     0.16666   0.20489   0.18453   0.00000  Uiso   1.00
O46    O     0.16667   0.12845   0.31547   0.00000  Uiso   1.00
O47    O     0.16667   0.20489   0.31547   0.00000  Uiso   1.00
O48    O     0.16666   0.12845   0.18453   0.00000  Uiso   1.00
Zn49   Zn    0.16667   0.21771   0.25000   0.00000  Uiso   1.00
Zn50   Zn    0.16667   0.11563   0.25000   0.00000  Uiso   1.00
O51    O     0.04107   0.08353   0.24497   0.00000  Uiso   1.00
C52    C     0.04039   0.06853   0.20019   0.00000  Uiso   1.00
H53    H     0.06603   0.08465   0.18152   0.00000  Uiso   1.00
H54    H     0.01093   0.07631   0.18269   0.00000  Uiso   1.00
C55    C     0.04598   0.01730   0.19921   0.00000  Uiso   1.00
H56    H     0.01960   0.00064   0.21572   0.00000  Uiso   1.00
H57    H     0.04802   0.00520   0.16424   0.00000  Uiso   1.00
H58    H     0.07422   0.00757   0.21734   0.00000  Uiso   1.00
O59    O     0.29265   0.24897   0.23983   0.00000  Uiso   1.00
C60    C     0.29311   0.25805   0.19356   0.00000  Uiso   1.00
H61    H     0.27905   0.22960   0.17430   0.00000  Uiso   1.00
H62    H     0.32511   0.26356   0.18164   0.00000  Uiso   1.00
C63    C     0.26827   0.30068   0.18399   0.00000  Uiso   1.00
H64    H     0.28104   0.33015   0.20236   0.00000  Uiso   1.00
H65    H     0.26896   0.30821   0.14775   0.00000  Uiso   1.00
H66    H     0.23601   0.29537   0.19432   0.00000  Uiso   1.00
O67    O     0.29226   0.08353   0.25503   0.00000  Uiso   1.00
C68    C     0.29294   0.06853   0.29982   0.00000  Uiso   1.00
H69    H     0.26730   0.08465   0.31848   0.00000  Uiso   1.00
H70    H     0.32240   0.07632   0.31731   0.00000  Uiso   1.00
C71    C     0.28736   0.01730   0.30080   0.00000  Uiso   1.00
H72    H     0.31374   0.00065   0.28428   0.00000  Uiso   1.00
H73    H     0.28531   0.00520   0.33576   0.00000  Uiso   1.00
H74    H     0.25912   0.00757   0.28266   0.00000  Uiso   1.00
O75    O     0.04069   0.24897   0.26017   0.00000  Uiso   1.00
C76    C     0.04022   0.25805   0.30644   0.00000  Uiso   1.00
H77    H     0.05428   0.22960   0.32571   0.00000  Uiso   1.00
H78    H     0.00822   0.26356   0.31836   0.00000  Uiso   1.00
C79    C     0.06506   0.30068   0.31602   0.00000  Uiso   1.00
H80    H     0.05229   0.33015   0.29765   0.00000  Uiso   1.00
H81    H     0.06437   0.30821   0.35226   0.00000  Uiso   1.00
H82    H     0.09732   0.29537   0.30569   0.00000  Uiso   1.00
C83    C     0.41992   0.16663   0.25040   0.00000  Uiso   1.00
C84    C     0.58008   0.16663   0.24960   0.00000  Uiso   1.00
C85    C     0.49999   0.16667   0.16389   0.00000  Uiso   1.00
C86    C     0.50001   0.16667   0.33611   0.00000  Uiso   1.00
C87    C     0.51105   0.02400   0.28728   0.00000  Uiso   1.00
C88    C     0.48848   0.30935   0.21288   0.00000  Uiso   1.00
C89    C     0.48895   0.02400   0.21272   0.00000  Uiso   1.00
C90    C     0.51152   0.30935   0.28712   0.00000  Uiso   1.00
C91    C     0.35444   0.12496   0.24782   0.00000  Uiso   1.00
C92    C     0.64569   0.20792   0.24677   0.00000  Uiso   1.00
C93    C     0.64556   0.12496   0.25218   0.00000  Uiso   1.00
C94    C     0.35431   0.20792   0.25323   0.00000  Uiso   1.00
C95    C     0.48570   0.20485   0.04704   0.00000  Uiso   1.00
C96    C     0.48571   0.12846   0.45292   0.00000  Uiso   1.00
C97    C     0.51430   0.20485   0.45296   0.00000  Uiso   1.00
C98    C     0.51429   0.12846   0.04708   0.00000  Uiso   1.00
C99    C     0.48594   0.20497   0.09303   0.00000  Uiso   1.00
C100   C     0.48596   0.12835   0.40693   0.00000  Uiso   1.00
C101   C     0.51406   0.20497   0.40697   0.00000  Uiso   1.00
C102   C     0.51404   0.12835   0.09307   0.00000  Uiso   1.00
C103   C     0.50000   0.16667   0.11602   0.00000  Uiso   1.00
C104   C     0.50000   0.16667   0.38398   0.00000  Uiso   1.00
C105   C     0.50000   0.16666   0.02406   0.00000  Uiso   1.00
C106   C     0.50000   0.16666   0.47594   0.00000  Uiso   1.00
C107   C     0.62422   0.16647   0.24932   0.00000  Uiso   1.00
C108   C     0.37578   0.16647   0.25068   0.00000  Uiso   1.00
H109   H     0.52015   0.04210   0.31703   0.00000  Uiso   1.00
H110   H     0.47907   0.29126   0.18324   0.00000  Uiso   1.00
H111   H     0.47985   0.04210   0.18297   0.00000  Uiso   1.00
H112   H     0.52093   0.29126   0.31676   0.00000  Uiso   1.00
H113   H     0.47404   0.23428   0.02943   0.00000  Uiso   1.00
H114   H     0.47405   0.09903   0.47049   0.00000  Uiso   1.00
H115   H     0.52596   0.23428   0.47057   0.00000  Uiso   1.00
H116   H     0.52595   0.09903   0.02951   0.00000  Uiso   1.00
H117   H     0.47466   0.23463   0.11054   0.00000  Uiso   1.00
H118   H     0.47469   0.09869   0.38938   0.00000  Uiso   1.00
H119   H     0.52534   0.23463   0.38946   0.00000  Uiso   1.00
H120   H     0.52531   0.09869   0.11062   0.00000  Uiso   1.00
N121   N     0.50000   0.28573   0.25000   0.00000  Uiso   1.00
N122   N     0.50000   0.04760   0.25000   0.00000  Uiso   1.00
O123   O     0.43892   0.20487   0.24999   0.00000  Uiso   1.00
O124   O     0.56108   0.12846   0.25000   0.00000  Uiso   1.00
O125   O     0.56108   0.20487   0.25000   0.00000  Uiso   1.00
O126   O     0.43892   0.12846   0.24999   0.00000  Uiso   1.00
O127   O     0.50000   0.20489   0.18453   0.00000  Uiso   1.00
O128   O     0.50000   0.12845   0.31547   0.00000  Uiso   1.00
O129   O     0.50000   0.20489   0.31547   0.00000  Uiso   1.00
O130   O     0.50000   0.12845   0.18453   0.00000  Uiso   1.00
Zn131  Zn    0.50000   0.21771   0.25000   0.00000  Uiso   1.00
Zn132  Zn    0.50000   0.11563   0.25000   0.00000  Uiso   1.00
O133   O     0.37440   0.08353   0.24497   0.00000  Uiso   1.00
C134   C     0.37372   0.06853   0.20019   0.00000  Uiso   1.00
H135   H     0.39937   0.08465   0.18152   0.00000  Uiso   1.00
H136   H     0.34426   0.07631   0.18269   0.00000  Uiso   1.00
C137   C     0.37931   0.01730   0.19921   0.00000  Uiso   1.00
H138   H     0.35293   0.00064   0.21572   0.00000  Uiso   1.00
H139   H     0.38136   0.00520   0.16424   0.00000  Uiso   1.00
H140   H     0.40755   0.00757   0.21734   0.00000  Uiso   1.00
O141   O     0.62598   0.24897   0.23983   0.00000  Uiso   1.00
C142   C     0.62644   0.25805   0.19356   0.00000  Uiso   1.00
H143   H     0.61238   0.22960   0.17430   0.00000  Uiso   1.00
H144   H     0.65844   0.26356   0.18164   0.00000  Uiso   1.00
C145   C     0.60161   0.30068   0.18399   0.00000  Uiso   1.00
H146   H     0.61438   0.33015   0.20236   0.00000  Uiso   1.00
H147   H     0.60230   0.30821   0.14775   0.00000  Uiso   1.00
H148   H     0.56934   0.29537   0.19432   0.00000  Uiso   1.00
O149   O     0.62560   0.08353   0.25503   0.00000  Uiso   1.00
C150   C     0.62627   0.06853   0.29982   0.00000  Uiso   1.00
H151   H     0.60063   0.08465   0.31848   0.00000  Uiso   1.00
H152   H     0.65573   0.07632   0.31731   0.00000  Uiso   1.00
C153   C     0.62069   0.01730   0.30080   0.00000  Uiso   1.00
H154   H     0.64707   0.00065   0.28428   0.00000  Uiso   1.00
H155   H     0.61864   0.00520   0.33576   0.00000  Uiso   1.00
H156   H     0.59245   0.00757   0.28266   0.00000  Uiso   1.00
O157   O     0.37402   0.24897   0.26017   0.00000  Uiso   1.00
C158   C     0.37356   0.25805   0.30644   0.00000  Uiso   1.00
H159   H     0.38762   0.22960   0.32571   0.00000  Uiso   1.00
H160   H     0.34156   0.26356   0.31836   0.00000  Uiso   1.00
C161   C     0.39839   0.30068   0.31602   0.00000  Uiso   1.00
H162   H     0.38562   0.33015   0.29765   0.00000  Uiso   1.00
H163   H     0.39770   0.30821   0.35226   0.00000  Uiso   1.00
H164   H     0.43066   0.29537   0.30569   0.00000  Uiso   1.00
C165   C     0.75326   0.16663   0.25040   0.00000  Uiso   1.00
C166   C     0.91341   0.16663   0.24960   0.00000  Uiso   1.00
C167   C     0.83333   0.16667   0.16389   0.00000  Uiso   1.00
C168   C     0.83334   0.16667   0.33611   0.00000  Uiso   1.00
C169   C     0.84438   0.02400   0.28728   0.00000  Uiso   1.00
C170   C     0.82181   0.30935   0.21288   0.00000  Uiso   1.00
C171   C     0.82229   0.02400   0.21272   0.00000  Uiso   1.00
C172   C     0.84485   0.30935   0.28712   0.00000  Uiso   1.00
C173   C     0.68777   0.12496   0.24782   0.00000  Uiso   1.00
C174   C     0.97903   0.20792   0.24677   0.00000  Uiso   1.00
C175   C     0.97890   0.12496   0.25218   0.00000  Uiso   1.00
C176   C     0.68764   0.20792   0.25323   0.00000  Uiso   1.00
C177   C     0.81904   0.20485   0.04704   0.00000  Uiso   1.00
C178   C     0.81904   0.12846   0.45292   0.00000  Uiso   1.00
C179   C     0.84763   0.20485   0.45296   0.00000  Uiso   1.00
C180   C     0.84762   0.12846   0.04708   0.00000  Uiso   1.00
C181   C     0.81928   0.20497   0.09303   0.00000  Uiso   1.00
C182   C     0.81929   0.12835   0.40693   0.00000  Uiso   1.00
C183   C     0.84739   0.20497   0.40697   0.00000  Uiso   1.00
C184   C     0.84738   0.12835   0.09307   0.00000  Uiso   1.00
C185   C     0.83333   0.16667   0.11602   0.00000  Uiso   1.00
C186   C     0.83334   0.16667   0.38398   0.00000  Uiso   1.00
C187   C     0.83333   0.16666   0.02406   0.00000  Uiso   1.00
C188   C     0.83333   0.16666   0.47594   0.00000  Uiso   1.00
C189   C     0.95755   0.16647   0.24932   0.00000  Uiso   1.00
C190   C     0.70912   0.16647   0.25068   0.00000  Uiso   1.00
H191   H     0.85348   0.04210   0.31703   0.00000  Uiso   1.00
H192   H     0.81240   0.29126   0.18324   0.00000  Uiso   1.00
H193   H     0.81319   0.04210   0.18297   0.00000  Uiso   1.00
H194   H     0.85427   0.29126   0.31676   0.00000  Uiso   1.00
H195   H     0.80737   0.23428   0.02943   0.00000  Uiso   1.00
H196   H     0.80738   0.09903   0.47049   0.00000  Uiso   1.00
H197   H     0.85929   0.23428   0.47057   0.00000  Uiso   1.00
H198   H     0.85928   0.09903   0.02951   0.00000  Uiso   1.00
H199   H     0.80799   0.23463   0.11054   0.00000  Uiso   1.00
H200   H     0.80802   0.09869   0.38938   0.00000  Uiso   1.00
H201   H     0.85868   0.23463   0.38946   0.00000  Uiso   1.00
H202   H     0.85865   0.09869   0.11062   0.00000  Uiso   1.00
N203   N     0.83333   0.28573   0.25000   0.00000  Uiso   1.00
N204   N     0.83333   0.04760   0.25000   0.00000  Uiso   1.00
O205   O     0.77226   0.20487   0.24999   0.00000  Uiso   1.00
O206   O     0.89441   0.12846   0.25000   0.00000  Uiso   1.00
O207   O     0.89441   0.20487   0.25000   0.00000  Uiso   1.00
O208   O     0.77226   0.12846   0.24999   0.00000  Uiso   1.00
O209   O     0.83333   0.20489   0.18453   0.00000  Uiso   1.00
O210   O     0.83334   0.12845   0.31547   0.00000  Uiso   1.00
O211   O     0.83334   0.20489   0.31547   0.00000  Uiso   1.00
O212   O     0.83333   0.12845   0.18453   0.00000  Uiso   1.00
Zn213  Zn    0.83333   0.21771   0.25000   0.00000  Uiso   1.00
Zn214  Zn    0.83333   0.11563   0.25000   0.00000  Uiso   1.00
O215   O     0.70774   0.08353   0.24497   0.00000  Uiso   1.00
C216   C     0.70706   0.06853   0.20019   0.00000  Uiso   1.00
H217   H     0.73270   0.08465   0.18152   0.00000  Uiso   1.00
H218   H     0.67760   0.07631   0.18269   0.00000  Uiso   1.00
C219   C     0.71264   0.01730   0.19921   0.00000  Uiso   1.00
H220   H     0.68627   0.00064   0.21572   0.00000  Uiso   1.00
H221   H     0.71469   0.00520   0.16424   0.00000  Uiso   1.00
H222   H     0.74088   0.00757   0.21734   0.00000  Uiso   1.00
O223   O     0.95931   0.24897   0.23983   0.00000  Uiso   1.00
C224   C     0.95978   0.25805   0.19356   0.00000  Uiso   1.00
H225   H     0.94572   0.22960   0.17430   0.00000  Uiso   1.00
H226   H     0.99178   0.26356   0.18164   0.00000  Uiso   1.00
C227   C     0.93494   0.30068   0.18399   0.00000  Uiso   1.00
H228   H     0.94771   0.33015   0.20236   0.00000  Uiso   1.00
H229   H     0.93563   0.30821   0.14775   0.00000  Uiso   1.00
H230   H     0.90268   0.29537   0.19432   0.00000  Uiso   1.00
O231   O     0.95893   0.08353   0.25503   0.00000  Uiso   1.00
C232   C     0.95961   0.06853   0.29982   0.00000  Uiso   1.00
H233   H     0.93396   0.08465   0.31848   0.00000  Uiso   1.00
H234   H     0.98907   0.07632   0.31731   0.00000  Uiso   1.00
C235   C     0.95402   0.01730   0.30080   0.00000  Uiso   1.00
H236   H     0.98040   0.00065   0.28428   0.00000  Uiso   1.00
H237   H     0.95198   0.00520   0.33576   0.00000  Uiso   1.00
H238   H     0.92578   0.00757   0.28266   0.00000  Uiso   1.00
O239   O     0.70735   0.24897   0.26017   0.00000  Uiso   1.00
C240   C     0.70689   0.25805   0.30644   0.00000  Uiso   1.00
H241   H     0.72095   0.22960   0.32571   0.00000  Uiso   1.00
H242   H     0.67489   0.26356   0.31836   0.00000  Uiso   1.00
C243   C     0.73173   0.30068   0.31602   0.00000  Uiso   1.00
H244   H     0.71896   0.33015   0.29765   0.00000  Uiso   1.00
H245   H     0.73104   0.30821   0.35226   0.00000  Uiso   1.00
H246   H     0.76399   0.29537   0.30569   0.00000  Uiso   1.00
C247   C     0.08659   0.49996   0.25040   0.00000  Uiso   1.00
C248   C     0.24674   0.49996   0.24960   0.00000  Uiso   1.00
C249   C     0.16666   0.50000   0.16389   0.00000  Uiso   1.00
C250   C     0.16667   0.50000   0.33611   0.00000  Uiso   1.00
C251   C     0.17771   0.35733   0.28728   0.00000  Uiso   1.00
C252   C     0.15515   0.64269   0.21288   0.00000  Uiso   1.00
C253   C     0.15562   0.35733   0.21272   0.00000  Uiso   1.00
C254   C     0.17818   0.64269   0.28712   0.00000  Uiso   1.00
C255   C     0.02110   0.45829   0.24782   0.00000  Uiso   1.00
C256   C     0.31236   0.54125   0.24677   0.00000  Uiso   1.00
C257   C     0.31223   0.45829   0.25218   0.00000  Uiso   1.00
C258   C     0.02097   0.54125   0.25323   0.00000  Uiso   1.00
C259   C     0.15237   0.53819   0.04704   0.00000  Uiso   1.00
C260   C     0.15238   0.46180   0.45292   0.00000  Uiso   1.00
C261   C     0.18096   0.53819   0.45296   0.00000  Uiso   1.00
C262   C     0.18096   0.46180   0.04708   0.00000  Uiso   1.00
C263   C     0.15261   0.53831   0.09303   0.00000  Uiso   1.00
C264   C     0.15262   0.46168   0.40693   0.00000  Uiso   1.00
C265   C     0.18072   0.53831   0.40697   0.00000  Uiso   1.00
C266   C     0.18071   0.46168   0.09307   0.00000  Uiso   1.00
C267   C     0.16666   0.50000   0.11602   0.00000  Uiso   1.00
C268   C     0.16667   0.50000   0.38398   0.00000  Uiso   1.00
C269   C     0.16667   0.49999   0.02406   0.00000  Uiso   1.00
C270   C     0.16667   0.49999   0.47594   0.00000  Uiso   1.00
C271   C     0.29088   0.49980   0.24932   0.00000  Uiso   1.00
C272   C     0.04245   0.49980   0.25068   0.00000  Uiso   1.00
H273   H     0.18681   0.37544   0.31703   0.00000  Uiso   1.00
H274   H     0.14573   0.62459   0.18324   0.00000  Uiso   1.00
H275   H     0.14652   0.37544   0.18297   0.00000  Uiso   1.00
H276   H     0.18760   0.62459   0.31676   0.00000  Uiso   1.00
H277   H     0.14071   0.56762   0.02943   0.00000  Uiso   1.00
H278   H     0.14072   0.43236   0.47049   0.00000  Uiso   1.00
H279   H     0.19263   0.56762   0.47057   0.00000  Uiso   1.00
H280   H     0.19262   0.43236   0.02951   0.00000  Uiso   1.00
H281   H     0.14132   0.56796   0.11054   0.00000  Uiso   1.00
H282   H     0.14135   0.43202   0.38938   0.00000  Uiso   1.00
H283   H     0.19201   0.56796   0.38946   0.00000  Uiso   1.00
H284   H     0.19198   0.43202   0.11062   0.00000  Uiso   1.00
N285   N     0.16667   0.61907   0.25000   0.00000  Uiso   1.00
N286   N     0.16667   0.38093   0.25000   0.00000  Uiso   1.00
O287   O     0.10559   0.53821   0.24999   0.00000  Uiso   1.00
O288   O     0.22774   0.46179   0.25000   0.00000  Uiso   1.00
O289   O     0.22774   0.53821   0.25000   0.00000  Uiso   1.00
O290   O     0.10559   0.46179   0.24999   0.00000  Uiso   1.00
O291   O     0.16666   0.53822   0.18453   0.00000  Uiso   1.00
O292   O     0.16667   0.46178   0.31547   0.00000  Uiso   1.00
O293   O     0.16667   0.53822   0.31547   0.00000  Uiso   1.00
O294   O     0.16666   0.46178   0.18453   0.00000  Uiso   1.00
Zn295  Zn    0.16667   0.55104   0.25000   0.00000  Uiso   1.00
Zn296  Zn    0.16667   0.44896   0.25000   0.00000  Uiso   1.00
O297   O     0.04107   0.41686   0.24497   0.00000  Uiso   1.00
C298   C     0.04039   0.40186   0.20019   0.00000  Uiso   1.00
H299   H     0.06603   0.41798   0.18152   0.00000  Uiso   1.00
H300   H     0.01093   0.40965   0.18269   0.00000  Uiso   1.00
C301   C     0.04598   0.35064   0.19921   0.00000  Uiso   1.00
H302   H     0.01960   0.33398   0.21572   0.00000  Uiso   1.00
H303   H     0.04802   0.33853   0.16424   0.00000  Uiso   1.00
H304   H     0.07422   0.34090   0.21734   0.00000  Uiso   1.00
O305   O     0.29265   0.58231   0.23983   0.00000  Uiso   1.00
C306   C     0.29311   0.59138   0.19356   0.00000  Uiso   1.00
H307   H     0.27905   0.56293   0.17430   0.00000  Uiso   1.00
H308   H     0.32511   0.59689   0.18164   0.00000  Uiso   1.00
C309   C     0.26827   0.63401   0.18399   0.00000  Uiso   1.00
H310   H     0.28104   0.66348   0.20236   0.00000  Uiso   1.00
H311   H     0.26896   0.64154   0.14775   0.00000  Uiso   1.00
H312   H     0.23601   0.62870   0.19432   0.00000  Uiso   1.00
O313   O     0.29226   0.41686   0.25503   0.00000  Uiso   1.00
C314   C     0.29294   0.40186   0.29982   0.00000  Uiso   1.00
H315   H     0.26730   0.41798   0.31848   0.00000  Uiso   1.00
H316   H     0.32240   0.40965   0.31731   0.00000  Uiso   1.00
C317   C     0.28736   0.35064   0.30080   0.00000  Uiso   1.00
H318   H     0.31374   0.33398   0.28428   0.00000  Uiso   1.00
H319   H     0.28531   0.33854   0.33576   0.00000  Uiso   1.00
H320   H     0.25912   0.34090   0.28266   0.00000  Uiso   1.00
O321   O     0.04069   0.58231   0.26017   0.00000  Uiso   1.00
C322   C     0.04022   0.59138   0.30644   0.00000  Uiso   1.00
H323   H     0.05428   0.56293   0.32571   0.00000  Uiso   1.00
H324   H     0.00822   0.59689   0.31836   0.00000  Uiso   1.00
C325   C     0.06506   0.63401   0.31602   0.00000  Uiso   1.00
H326   H     0.05229   0.66348   0.29765   0.00000  Uiso   1.00
H327   H     0.06437   0.64154   0.35226   0.00000  Uiso   1.00
H328   H     0.09732   0.62870   0.30569   0.00000  Uiso   1.00
C329   C     0.41992   0.49996   0.25040   0.00000  Uiso   1.00
C330   C     0.58008   0.49996   0.24960   0.00000  Uiso   1.00
C331   C     0.49999   0.50000   0.16389   0.00000  Uiso   1.00
C332   C     0.50001   0.50000   0.33611   0.00000  Uiso   1.00
C333   C     0.51105   0.35733   0.28728   0.00000  Uiso   1.00
C334   C     0.48848   0.64269   0.21288   0.00000  Uiso   1.00
C335   C     0.48895   0.35733   0.21272   0.00000  Uiso   1.00
C336   C     0.51152   0.64269   0.28712   0.00000  Uiso   1.00
C337   C     0.35444   0.45829   0.24782   0.00000  Uiso   1.00
C338   C     0.64569   0.54125   0.24677   0.00000  Uiso   1.00
C339   C     0.64556   0.45829   0.25218   0.00000  Uiso   1.00
C340   C     0.35431   0.54125   0.25323   0.00000  Uiso   1.00
C341   C     0.48570   0.53819   0.04704   0.00000  Uiso   1.00
C342   C     0.48571   0.46180   0.45292   0.00000  Uiso   1.00
C343   C     0.51430   0.53819   0.45296   0.00000  Uiso   1.00
C344   C     0.51429   0.46180   0.04708   0.00000  Uiso   1.00
C345   C     0.48594   0.53831   0.09303   0.00000  Uiso   1.00
C346   C     0.48596   0.46168   0.40693   0.00000  Uiso   1.00
C347   C     0.51406   0.53831   0.40697   0.00000  Uiso   1.00
C348   C     0.51404   0.46168   0.09307   0.00000  Uiso   1.00
C349   C     0.50000   0.50000   0.11602   0.00000  Uiso   1.00
C350   C     0.50000   0.50000   0.38398   0.00000  Uiso   1.00
C351   C     0.50000   0.49999   0.02406   0.00000  Uiso   1.00
C352   C     0.50000   0.49999   0.47594   0.00000  Uiso   1.00
C353   C     0.62422   0.49980   0.24932   0.00000  Uiso   1.00
C354   C     0.37578   0.49980   0.25068   0.00000  Uiso   1.00
H355   H     0.52015   0.37544   0.31703   0.00000  Uiso   1.00
H356   H     0.47907   0.62459   0.18324   0.00000  Uiso   1.00
H357   H     0.47985   0.37544   0.18297   0.00000  Uiso   1.00
H358   H     0.52093   0.62459   0.31676   0.00000  Uiso   1.00
H359   H     0.47404   0.56762   0.02943   0.00000  Uiso   1.00
H360   H     0.47405   0.43236   0.47049   0.00000  Uiso   1.00
H361   H     0.52596   0.56762   0.47057   0.00000  Uiso   1.00
H362   H     0.52595   0.43236   0.02951   0.00000  Uiso   1.00
H363   H     0.47466   0.56796   0.11054   0.00000  Uiso   1.00
H364   H     0.47469   0.43202   0.38938   0.00000  Uiso   1.00
H365   H     0.52534   0.56796   0.38946   0.00000  Uiso   1.00
H366   H     0.52531   0.43202   0.11062   0.00000  Uiso   1.00
N367   N     0.50000   0.61907   0.25000   0.00000  Uiso   1.00
N368   N     0.50000   0.38093   0.25000   0.00000  Uiso   1.00
O369   O     0.43892   0.53821   0.24999   0.00000  Uiso   1.00
O370   O     0.56108   0.46179   0.25000   0.00000  Uiso   1.00
O371   O     0.56108   0.53821   0.25000   0.00000  Uiso   1.00
O372   O     0.43892   0.46179   0.24999   0.00000  Uiso   1.00
O373   O     0.50000   0.53822   0.18453   0.00000  Uiso   1.00
O374   O     0.50000   0.46178   0.31547   0.00000  Uiso   1.00
O375   O     0.50000   0.53822   0.31547   0.00000  Uiso   1.00
O376   O     0.50000   0.46178   0.18453   0.00000  Uiso   1.00
Zn377  Zn    0.50000   0.55104   0.25000   0.00000  Uiso   1.00
Zn378  Zn    0.50000   0.44896   0.25000   0.00000  Uiso   1.00
O379   O     0.37440   0.41686   0.24497   0.00000  Uiso   1.00
C380   C     0.37372   0.40186   0.20019   0.00000  Uiso   1.00
H381   H     0.39937   0.41798   0.18152   0.00000  Uiso   1.00
H382   H     0.34426   0.40965   0.18269   0.00000  Uiso   1.00
C383   C     0.37931   0.35064   0.19921   0.00000  Uiso   1.00
H384   H     0.35293   0.33398   0.21572   0.00000  Uiso   1.00
H385   H     0.38136   0.33853   0.16424   0.00000  Uiso   1.00
H386   H     0.40755   0.34090   0.21734   0.00000  Uiso   1.00
O387   O     0.62598   0.58231   0.23983   0.00000  Uiso   1.00
C388   C     0.62644   0.59138   0.19356   0.00000  Uiso   1.00
H389   H     0.61238   0.56293   0.17430   0.00000  Uiso   1.00
H390   H     0.65844   0.59689   0.18164   0.00000  Uiso   1.00
C391   C     0.60161   0.63401   0.18399   0.00000  Uiso   1.00
H392   H     0.61438   0.66348   0.20236   0.00000  Uiso   1.00
H393   H     0.60230   0.64154   0.14775   0.00000  Uiso   1.00
H394   H     0.56934   0.62870   0.19432   0.00000  Uiso   1.00
O395   O     0.62560   0.41686   0.25503   0.00000  Uiso   1.00
C396   C     0.62627   0.40186   0.29982   0.00000  Uiso   1.00
H397   H     0.60063   0.41798   0.31848   0.00000  Uiso   1.00
H398   H     0.65573   0.40965   0.31731   0.00000  Uiso   1.00
C399   C     0.62069   0.35064   0.30080   0.00000  Uiso   1.00
H400   H     0.64707   0.33398   0.28428   0.00000  Uiso   1.00
H401   H     0.61864   0.33854   0.33576   0.00000  Uiso   1.00
H402   H     0.59245   0.34090   0.28266   0.00000  Uiso   1.00
O403   O     0.37402   0.58231   0.26017   0.00000  Uiso   1.00
C404   C     0.37356   0.59138   0.30644   0.00000  Uiso   1.00
H405   H     0.38762   0.56293   0.32571   0.00000  Uiso   1.00
H406   H     0.34156   0.59689   0.31836   0.00000  Uiso   1.00
C407   C     0.39839   0.63401   0.31602   0.00000  Uiso   1.00
H408   H     0.38562   0.66348   0.29765   0.00000  Uiso   1.00
H409   H     0.39770   0.64154   0.35226   0.00000  Uiso   1.00
H410   H     0.43066   0.62870   0.30569   0.00000  Uiso   1.00
C411   C     0.75326   0.49996   0.25040   0.00000  Uiso   1.00
C412   C     0.91341   0.49996   0.24960   0.00000  Uiso   1.00
C413   C     0.83333   0.50000   0.16389   0.00000  Uiso   1.00
C414   C     0.83334   0.50000   0.33611   0.00000  Uiso   1.00
C415   C     0.84438   0.35733   0.28728   0.00000  Uiso   1.00
C416   C     0.82181   0.64269   0.21288   0.00000  Uiso   1.00
C417   C     0.82229   0.35733   0.21272   0.00000  Uiso   1.00
C418   C     0.84485   0.64269   0.28712   0.00000  Uiso   1.00
C419   C     0.68777   0.45829   0.24782   0.00000  Uiso   1.00
C420   C     0.97903   0.54125   0.24677   0.00000  Uiso   1.00
C421   C     0.97890   0.45829   0.25218   0.00000  Uiso   1.00
C422   C     0.68764   0.54125   0.25323   0.00000  Uiso   1.00
C423   C     0.81904   0.53819   0.04704   0.00000  Uiso   1.00
C424   C     0.81904   0.46180   0.45292   0.00000  Uiso   1.00
C425   C     0.84763   0.53819   0.45296   0.00000  Uiso   1.00
C426   C     0.84762   0.46180   0.04708   0.00000  Uiso   1.00
C427   C     0.81928   0.53831   0.09303   0.00000  Uiso   1.00
C428   C     0.81929   0.46168   0.40693   0.00000  Uiso   1.00
C429   C     0.84739   0.53831   0.40697   0.00000  Uiso   1.00
C430   C     0.84738   0.46168   0.09307   0.00000  Uiso   1.00
C431   C     0.83333   0.50000   0.11602   0.00000  Uiso   1.00
C432   C     0.83334   0.50000   0.38398   0.00000  Uiso   1.00
C433   C     0.83333   0.49999   0.02406   0.00000  Uiso   1.00
C434   C     0.83333   0.49999   0.47594   0.00000  Uiso   1.00
C435   C     0.95755   0.49980   0.24932   0.00000  Uiso   1.00
C436   C     0.70912   0.49980   0.25068   0.00000  Uiso   1.00
H437   H     0.85348   0.37544   0.31703   0.00000  Uiso   1.00
H438   H     0.81240   0.62459   0.18324   0.00000  Uiso   1.00
H439   H     0.81319   0.37544   0.18297   0.00000  Uiso   1.00
H440   H     0.85427   0.62459   0.31676   0.00000  Uiso   1.00
H441   H     0.80737   0.56762   0.02943   0.00000  Uiso   1.00
H442   H     0.80738   0.43236   0.47049   0.00000  Uiso   1.00
H443   H     0.85929   0.56762   0.47057   0.00000  Uiso   1.00
H444   H     0.85928   0.43236   0.02951   0.00000  Uiso   1.00
H445   H     0.80799   0.56796   0.11054   0.00000  Uiso   1.00
H446   H     0.80802   0.43202   0.38938   0.00000  Uiso   1.00
H447   H     0.85868   0.56796   0.38946   0.00000  Uiso   1.00
H448   H     0.85865   0.43202   0.11062   0.00000  Uiso   1.00
N449   N     0.83333   0.61907   0.25000   0.00000  Uiso   1.00
N450   N     0.83333   0.38093   0.25000   0.00000  Uiso   1.00
O451   O     0.77226   0.53821   0.24999   0.00000  Uiso   1.00
O452   O     0.89441   0.46179   0.25000   0.00000  Uiso   1.00
O453   O     0.89441   0.53821   0.25000   0.00000  Uiso   1.00
O454   O     0.77226   0.46179   0.24999   0.00000  Uiso   1.00
O455   O     0.83333   0.53822   0.18453   0.00000  Uiso   1.00
O456   O     0.83334   0.46178   0.31547   0.00000  Uiso   1.00
O457   O     0.83334   0.53822   0.31547   0.00000  Uiso   1.00
O458   O     0.83333   0.46178   0.18453   0.00000  Uiso   1.00
Zn459  Zn    0.83333   0.55104   0.25000   0.00000  Uiso   1.00
Zn460  Zn    0.83333   0.44896   0.25000   0.00000  Uiso   1.00
O461   O     0.70774   0.41686   0.24497   0.00000  Uiso   1.00
C462   C     0.70706   0.40186   0.20019   0.00000  Uiso   1.00
H463   H     0.73270   0.41798   0.18152   0.00000  Uiso   1.00
H464   H     0.67760   0.40965   0.18269   0.00000  Uiso   1.00
C465   C     0.71264   0.35064   0.19921   0.00000  Uiso   1.00
H466   H     0.68627   0.33398   0.21572   0.00000  Uiso   1.00
H467   H     0.71469   0.33853   0.16424   0.00000  Uiso   1.00
H468   H     0.74088   0.34090   0.21734   0.00000  Uiso   1.00
O469   O     0.95931   0.58231   0.23983   0.00000  Uiso   1.00
C470   C     0.95978   0.59138   0.19356   0.00000  Uiso   1.00
H471   H     0.94572   0.56293   0.17430   0.00000  Uiso   1.00
H472   H     0.99178   0.59689   0.18164   0.00000  Uiso   1.00
C473   C     0.93494   0.63401   0.18399   0.00000  Uiso   1.00
H474   H     0.94771   0.66348   0.20236   0.00000  Uiso   1.00
H475   H     0.93563   0.64154   0.14775   0.00000  Uiso   1.00
H476   H     0.90268   0.62870   0.19432   0.00000  Uiso   1.00
O477   O     0.95893   0.41686   0.25503   0.00000  Uiso   1.00
C478   C     0.95961   0.40186   0.29982   0.00000  Uiso   1.00
H479   H     0.93396   0.41798   0.31848   0.00000  Uiso   1.00
H480   H     0.98907   0.40965   0.31731   0.00000  Uiso   1.00
C481   C     0.95402   0.35064   0.30080   0.00000  Uiso   1.00
H482   H     0.98040   0.33398   0.28428   0.00000  Uiso   1.00
H483   H     0.95198   0.33854   0.33576   0.00000  Uiso   1.00
H484   H     0.92578   0.34090   0.28266   0.00000  Uiso   1.00
O485   O     0.70735   0.58231   0.26017   0.00000  Uiso   1.00
C486   C     0.70689   0.59138   0.30644   0.00000  Uiso   1.00
H487   H     0.72095   0.56293   0.32571   0.00000  Uiso   1.00
H488   H     0.67489   0.59689   0.31836   0.00000  Uiso   1.00
C489   C     0.73173   0.63401   0.31602   0.00000  Uiso   1.00
H490   H     0.71896   0.66348   0.29765   0.00000  Uiso   1.00
H491   H     0.73104   0.64154   0.35226   0.00000  Uiso   1.00
H492   H     0.76399   0.62870   0.30569   0.00000  Uiso   1.00
C493   C     0.08659   0.83330   0.25040   0.00000  Uiso   1.00
C494   C     0.24674   0.83330   0.24960   0.00000  Uiso   1.00
C495   C     0.16666   0.83333   0.16389   0.00000  Uiso   1.00
C496   C     0.16667   0.83333   0.33611   0.00000  Uiso   1.00
C497   C     0.17771   0.69066   0.28728   0.00000  Uiso   1.00
C498   C     0.15515   0.97602   0.21288   0.00000  Uiso   1.00
C499   C     0.15562   0.69066   0.21272   0.00000  Uiso   1.00
C500   C     0.17818   0.97602   0.28712   0.00000  Uiso   1.00
C501   C     0.02110   0.79163   0.24782   0.00000  Uiso   1.00
C502   C     0.31236   0.87458   0.24677   0.00000  Uiso   1.00
C503   C     0.31223   0.79163   0.25218   0.00000  Uiso   1.00
C504   C     0.02097   0.87458   0.25323   0.00000  Uiso   1.00
C505   C     0.15237   0.87152   0.04704   0.00000  Uiso   1.00
C506   C     0.15238   0.79513   0.45292   0.00000  Uiso   1.00
C507   C     0.18096   0.87152   0.45296   0.00000  Uiso   1.00
C508   C     0.18096   0.79513   0.04708   0.00000  Uiso   1.00
C509   C     0.15261   0.87164   0.09303   0.00000  Uiso   1.00
C510   C     0.15262   0.79502   0.40693   0.00000  Uiso   1.00
C511   C     0.18072   0.87164   0.40697   0.00000  Uiso   1.00
C512   C     0.18071   0.79502   0.09307   0.00000  Uiso   1.00
C513   C     0.16666   0.83333   0.11602   0.00000  Uiso   1.00
C514   C     0.16667   0.83333   0.38398   0.00000  Uiso   1.00
C515   C     0.16667   0.83332   0.02406   0.00000  Uiso   1.00
C516   C     0.16667   0.83332   0.47594   0.00000  Uiso   1.00
C517   C     0.29088   0.83314   0.24932   0.00000  Uiso   1.00
C518   C     0.04245   0.83314   0.25068   0.00000  Uiso   1.00
H519   H     0.18681   0.70877   0.31703   0.00000  Uiso   1.00
H520   H     0.14573   0.95793   0.18324   0.00000  Uiso   1.00
H521   H     0.14652   0.70877   0.18297   0.00000  Uiso   1.00
H522   H     0.18760   0.95793   0.31676   0.00000  Uiso   1.00
H523   H     0.14071   0.90095   0.02943   0.00000  Uiso   1.00
H524   H     0.14072   0.76570   0.47049   0.00000  Uiso   1.00
H525   H     0.19263   0.90095   0.47057   0.00000  Uiso   1.00
H526   H     0.19262   0.76570   0.02951   0.00000  Uiso   1.00
H527   H     0.14132   0.90130   0.11054   0.00000  Uiso   1.00
H528   H     0.14135   0.76536   0.38938   0.00000  Uiso   1.00
H529   H     0.19201   0.90130   0.38946   0.00000  Uiso   1.00
H530   H     0.19198   0.76536   0.11062   0.00000  Uiso   1.00
N531   N     0.16667   0.95240   0.25000   0.00000  Uiso   1.00
N532   N     0.16667   0.71427   0.25000   0.00000  Uiso   1.00
O533   O     0.10559   0.87154   0.24999   0.00000  Uiso   1.00
O534   O     0.22774   0.79513   0.25000   0.00000  Uiso   1.00
O535   O     0.22774   0.87154   0.25000   0.00000  Uiso   1.00
O536   O     0.10559   0.79513   0.24999   0.00000  Uiso   1.00
O537   O     0.16666   0.87155   0.18453   0.00000  Uiso   1.00
O538   O     0.16667   0.79511   0.31547   0.00000  Uiso   1.00
O539   O     0.16667   0.87155   0.31547   0.00000  Uiso   1.00
O540   O     0.16666   0.79511   0.18453   0.00000  Uiso   1.00
Zn541  Zn    0.16667   0.88437   0.25000   0.00000  Uiso   1.00
Zn542  Zn    0.16667   0.78229   0.25000   0.00000  Uiso   1.00
O543   O     0.04107   0.75019   0.24497   0.00000  Uiso   1.00
C544   C     0.04039   0.73520   0.20019   0.00000  Uiso   1.00
H545   H     0.06603   0.75131   0.18152   0.00000  Uiso   1.00
H546   H     0.01093   0.74298   0.18269   0.00000  Uiso   1.00
C547   C     0.04598   0.68397   0.19921   0.00000  Uiso   1.00
H548   H     0.01960   0.66731   0.21572   0.00000  Uiso   1.00
H549   H     0.04802   0.67187   0.16424   0.00000  Uiso   1.00
H550   H     0.07422   0.67424   0.21734   0.00000  Uiso   1.00
O551   O     0.29265   0.91564   0.23983   0.00000  Uiso   1.00
C552   C     0.29311   0.92472   0.19356   0.00000  Uiso   1.00
H553   H     0.27905   0.89627   0.17430   0.00000  Uiso   1.00
H554   H     0.32511   0.93022   0.18164   0.00000  Uiso   1.00
C555   C     0.26827   0.96734   0.18399   0.00000  Uiso   1.00
H556   H     0.28104   0.99681   0.20236   0.00000  Uiso   1.00
H557   H     0.26896   0.97488   0.14775   0.00000  Uiso   1.00
H558   H     0.23601   0.96204   0.19432   0.00000  Uiso   1.00
O559   O     0.29226   0.75019   0.25503   0.00000  Uiso   1.00
C560   C     0.29294   0.73520   0.29982   0.00000  Uiso   1.00
H561   H     0.26730   0.75132   0.31848   0.00000  Uiso   1.00
H562   H     0.32240   0.74298   0.31731   0.00000  Uiso   1.00
C563   C     0.28736   0.68397   0.30080   0.00000  Uiso   1.00
H564   H     0.31374   0.66731   0.28428   0.00000  Uiso   1.00
H565   H     0.28531   0.67187   0.33576   0.00000  Uiso   1.00
H566   H     0.25912   0.67424   0.28266   0.00000  Uiso   1.00
O567   O     0.04069   0.91564   0.26017   0.00000  Uiso   1.00
C568   C     0.04022   0.92471   0.30644   0.00000  Uiso   1.00
H569   H     0.05428   0.89626   0.32571   0.00000  Uiso   1.00
H570   H     0.00822   0.93022   0.31836   0.00000  Uiso   1.00
C571   C     0.06506   0.96734   0.31602   0.00000  Uiso   1.00
H572   H     0.05229   0.99681   0.29765   0.00000  Uiso   1.00
H573   H     0.06437   0.97487   0.35226   0.00000  Uiso   1.00
H574   H     0.09732   0.96203   0.30569   0.00000  Uiso   1.00
C575   C     0.41992   0.83330   0.25040   0.00000  Uiso   1.00
C576   C     0.58008   0.83330   0.24960   0.00000  Uiso   1.00
C577   C     0.49999   0.83333   0.16389   0.00000  Uiso   1.00
C578   C     0.50001   0.83333   0.33611   0.00000  Uiso   1.00
C579   C     0.51105   0.69066   0.28728   0.00000  Uiso   1.00
C580   C     0.48848   0.97602   0.21288   0.00000  Uiso   1.00
C581   C     0.48895   0.69066   0.21272   0.00000  Uiso   1.00
C582   C     0.51152   0.97602   0.28712   0.00000  Uiso   1.00
C583   C     0.35444   0.79163   0.24782   0.00000  Uiso   1.00
C584   C     0.64569   0.87458   0.24677   0.00000  Uiso   1.00
C585   C     0.64556   0.79163   0.25218   0.00000  Uiso   1.00
C586   C     0.35431   0.87458   0.25323   0.00000  Uiso   1.00
C587   C     0.48570   0.87152   0.04704   0.00000  Uiso   1.00
C588   C     0.48571   0.79513   0.45292   0.00000  Uiso   1.00
C589   C     0.51430   0.87152   0.45296   0.00000  Uiso   1.00
C590   C     0.51429   0.79513   0.04708   0.00000  Uiso   1.00
C591   C     0.48594   0.87164   0.09303   0.00000  Uiso   1.00
C592   C     0.48596   0.79502   0.40693   0.00000  Uiso   1.00
C593   C     0.51406   0.87164   0.40697   0.00000  Uiso   1.00
C594   C     0.51404   0.79502   0.09307   0.00000  Uiso   1.00
C595   C     0.50000   0.83333   0.11602   0.00000  Uiso   1.00
C596   C     0.50000   0.83333   0.38398   0.00000  Uiso   1.00
C597   C     0.50000   0.83332   0.02406   0.00000  Uiso   1.00
C598   C     0.50000   0.83332   0.47594   0.00000  Uiso   1.00
C599   C     0.62422   0.83314   0.24932   0.00000  Uiso   1.00
C600   C     0.37578   0.83314   0.25068   0.00000  Uiso   1.00
H601   H     0.52015   0.70877   0.31703   0.00000  Uiso   1.00
H602   H     0.47907   0.95793   0.18324   0.00000  Uiso   1.00
H603   H     0.47985   0.70877   0.18297   0.00000  Uiso   1.00
H604   H     0.52093   0.95793   0.31676   0.00000  Uiso   1.00
H605   H     0.47404   0.90095   0.02943   0.00000  Uiso   1.00
H606   H     0.47405   0.76570   0.47049   0.00000  Uiso   1.00
H607   H     0.52596   0.90095   0.47057   0.00000  Uiso   1.00
H608   H     0.52595   0.76570   0.02951   0.00000  Uiso   1.00
H609   H     0.47466   0.90130   0.11054   0.00000  Uiso   1.00
H610   H     0.47469   0.76536   0.38938   0.00000  Uiso   1.00
H611   H     0.52534   0.90130   0.38946   0.00000  Uiso   1.00
H612   H     0.52531   0.76536   0.11062   0.00000  Uiso   1.00
N613   N     0.50000   0.95240   0.25000   0.00000  Uiso   1.00
N614   N     0.50000   0.71427   0.25000   0.00000  Uiso   1.00
O615   O     0.43892   0.87154   0.24999   0.00000  Uiso   1.00
O616   O     0.56108   0.79513   0.25000   0.00000  Uiso   1.00
O617   O     0.56108   0.87154   0.25000   0.00000  Uiso   1.00
O618   O     0.43892   0.79513   0.24999   0.00000  Uiso   1.00
O619   O     0.50000   0.87155   0.18453   0.00000  Uiso   1.00
O620   O     0.50000   0.79511   0.31547   0.00000  Uiso   1.00
O621   O     0.50000   0.87155   0.31547   0.00000  Uiso   1.00
O622   O     0.50000   0.79511   0.18453   0.00000  Uiso   1.00
Zn623  Zn    0.50000   0.88437   0.25000   0.00000  Uiso   1.00
Zn624  Zn    0.50000   0.78229   0.25000   0.00000  Uiso   1.00
O625   O     0.37440   0.75019   0.24497   0.00000  Uiso   1.00
C626   C     0.37372   0.73520   0.20019   0.00000  Uiso   1.00
H627   H     0.39937   0.75131   0.18152   0.00000  Uiso   1.00
H628   H     0.34426   0.74298   0.18269   0.00000  Uiso   1.00
C629   C     0.37931   0.68397   0.19921   0.00000  Uiso   1.00
H630   H     0.35293   0.66731   0.21572   0.00000  Uiso   1.00
H631   H     0.38136   0.67187   0.16424   0.00000  Uiso   1.00
H632   H     0.40755   0.67424   0.21734   0.00000  Uiso   1.00
O633   O     0.62598   0.91564   0.23983   0.00000  Uiso   1.00
C634   C     0.62644   0.92472   0.19356   0.00000  Uiso   1.00
H635   H     0.61238   0.89627   0.17430   0.00000  Uiso   1.00
H636   H     0.65844   0.93022   0.18164   0.00000  Uiso   1.00
C637   C     0.60161   0.96734   0.18399   0.00000  Uiso   1.00
H638   H     0.61438   0.99681   0.20236   0.00000  Uiso   1.00
H639   H     0.60230   0.97488   0.14775   0.00000  Uiso   1.00
H640   H     0.56934   0.96204   0.19432   0.00000  Uiso   1.00
O641   O     0.62560   0.75019   0.25503   0.00000  Uiso   1.00
C642   C     0.62627   0.73520   0.29982   0.00000  Uiso   1.00
H643   H     0.60063   0.75132   0.31848   0.00000  Uiso   1.00
H644   H     0.65573   0.74298   0.31731   0.00000  Uiso   1.00
C645   C     0.62069   0.68397   0.30080   0.00000  Uiso   1.00
H646   H     0.64707   0.66731   0.28428   0.00000  Uiso   1.00
H647   H     0.61864   0.67187   0.33576   0.00000  Uiso   1.00
H648   H     0.59245   0.67424   0.28266   0.00000  Uiso   1.00
O649   O     0.37402   0.91564   0.26017   0.00000  Uiso   1.00
C650   C     0.37356   0.92471   0.30644   0.00000  Uiso   1.00
H651   H     0.38762   0.89626   0.32571   0.00000  Uiso   1.00
H652   H     0.34156   0.93022   0.31836   0.00000  Uiso   1.00
C653   C     0.39839   0.96734   0.31602   0.00000  Uiso   1.00
H654   H     0.38562   0.99681   0.29765   0.00000  Uiso   1.00
H655   H     0.39770   0.97487   0.35226   0.00000  Uiso   1.00
H656   H     0.43066   0.96203   0.30569   0.00000  Uiso   1.00
C657   C     0.75326   0.83330   0.25040   0.00000  Uiso   1.00
C658   C     0.91341   0.83330   0.24960   0.00000  Uiso   1.00
C659   C     0.83333   0.83333   0.16389   0.00000  Uiso   1.00
C660   C     0.83334   0.83333   0.33611   0.00000  Uiso   1.00
C661   C     0.84438   0.69066   0.28728   0.00000  Uiso   1.00
C662   C     0.82181   0.97602   0.21288   0.00000  Uiso   1.00
C663   C     0.82229   0.69066   0.21272   0.00000  Uiso   1.00
C664   C     0.84485   0.97602   0.28712   0.00000  Uiso   1.00
C665   C     0.68777   0.79163   0.24782   0.00000  Uiso   1.00
C666   C     0.97903   0.87458   0.24677   0.00000  Uiso   1.00
C667   C     0.97890   0.79163   0.25218   0.00000  Uiso   1.00
C668   C     0.68764   0.87458   0.25323   0.00000  Uiso   1.00
C669   C     0.81904   0.87152   0.04704   0.00000  Uiso   1.00
C670   C     0.81904   0.79513   0.45292   0.00000  Uiso   1.00
C671   C     0.84763   0.87152   0.45296   0.00000  Uiso   1.00
C672   C     0.84762   0.79513   0.04708   0.00000  Uiso   1.00
C673   C     0.81928   0.87164   0.09303   0.00000  Uiso   1.00
C674   C     0.81929   0.79502   0.40693   0.00000  Uiso   1.00
C675   C     0.84739   0.87164   0.40697   0.00000  Uiso   1.00
C676   C     0.84738   0.79502   0.09307   0.00000  Uiso   1.00
C677   C     0.83333   0.83333   0.11602   0.00000  Uiso   1.00
C678   C     0.83334   0.83333   0.38398   0.00000  Uiso   1.00
C679   C     0.83333   0.83332   0.02406   0.00000  Uiso   1.00
C680   C     0.83333   0.83332   0.47594   0.00000  Uiso   1.00
C681   C     0.95755   0.83314   0.24932   0.00000  Uiso   1.00
C682   C     0.70912   0.83314   0.25068   0.00000  Uiso   1.00
H683   H     0.85348   0.70877   0.31703   0.00000  Uiso   1.00
H684   H     0.81240   0.95793   0.18324   0.00000  Uiso   1.00
H685   H     0.81319   0.70877   0.18297   0.00000  Uiso   1.00
H686   H     0.85427   0.95793   0.31676   0.00000  Uiso   1.00
H687   H     0.80737   0.90095   0.02943   0.00000  Uiso   1.00
H688   H     0.80738   0.76570   0.47049   0.00000  Uiso   1.00
H689   H     0.85929   0.90095   0.47057   0.00000  Uiso   1.00
H690   H     0.85928   0.76570   0.02951   0.00000  Uiso   1.00
H691   H     0.80799   0.90130   0.11054   0.00000  Uiso   1.00
H692   H     0.80802   0.76536   0.38938   0.00000  Uiso   1.00
H693   H     0.85868   0.90130   0.38946   0.00000  Uiso   1.00
H694   H     0.85865   0.76536   0.11062   0.00000  Uiso   1.00
N695   N     0.83333   0.95240   0.25000   0.00000  Uiso   1.00
N696   N     0.83333   0.71427   0.25000   0.00000  Uiso   1.00
O697   O     0.77226   0.87154   0.24999   0.00000  Uiso   1.00
O698   O     0.89441   0.79513   0.25000   0.00000  Uiso   1.00
O699   O     0.89441   0.87154   0.25000   0.00000  Uiso   1.00
O700   O     0.77226   0.79513   0.24999   0.00000  Uiso   1.00
O701   O     0.83333   0.87155   0.18453   0.00000  Uiso   1.00
O702   O     0.83334   0.79511   0.31547   0.00000  Uiso   1.00
O703   O     0.83334   0.87155   0.31547   0.00000  Uiso   1.00
O704   O     0.83333   0.79511   0.18453   0.00000  Uiso   1.00
Zn705  Zn    0.83333   0.88437   0.25000   0.00000  Uiso   1.00
Zn706  Zn    0.83333   0.78229   0.25000   0.00000  Uiso   1.00
O707   O     0.70774   0.75019   0.24497   0.00000  Uiso   1.00
C708   C     0.70706   0.73520   0.20019   0.00000  Uiso   1.00
H709   H     0.73270   0.75131   0.18152   0.00000  Uiso   1.00
H710   H     0.67760   0.74298   0.18269   0.00000  Uiso   1.00
C711   C     0.71264   0.68397   0.19921   0.00000  Uiso   1.00
H712   H     0.68627   0.66731   0.21572   0.00000  Uiso   1.00
H713   H     0.71469   0.67187   0.16424   0.00000  Uiso   1.00
H714   H     0.74088   0.67424   0.21734   0.00000  Uiso   1.00
O715   O     0.95931   0.91564   0.23983   0.00000  Uiso   1.00
C716   C     0.95978   0.92472   0.19356   0.00000  Uiso   1.00
H717   H     0.94572   0.89627   0.17430   0.00000  Uiso   1.00
H718   H     0.99178   0.93022   0.18164   0.00000  Uiso   1.00
C719   C     0.93494   0.96734   0.18399   0.00000  Uiso   1.00
H720   H     0.94771   0.99681   0.20236   0.00000  Uiso   1.00
H721   H     0.93563   0.97488   0.14775   0.00000  Uiso   1.00
H722   H     0.90268   0.96204   0.19432   0.00000  Uiso   1.00
O723   O     0.95893   0.75019   0.25503   0.00000  Uiso   1.00
C724   C     0.95961   0.73520   0.29982   0.00000  Uiso   1.00
H725   H     0.93396   0.75132   0.31848   0.00000  Uiso   1.00
H726   H     0.98907   0.74298   0.31731   0.00000  Uiso   1.00
C727   C     0.95402   0.68397   0.30080   0.00000  Uiso   1.00
H728   H     0.98040   0.66731   0.28428   0.00000  Uiso   1.00
H729   H     0.95198   0.67187   0.33576   0.00000  Uiso   1.00
H730   H     0.92578   0.67424   0.28266   0.00000  Uiso   1.00
O731   O     0.70735   0.91564   0.26017   0.00000  Uiso   1.00
C732   C     0.70689   0.92471   0.30644   0.00000  Uiso   1.00
H733   H     0.72095   0.89626   0.32571   0.00000  Uiso   1.00
H734   H     0.67489   0.93022   0.31836   0.00000  Uiso   1.00
C735   C     0.73173   0.96734   0.31602   0.00000  Uiso   1.00
H736   H     0.71896   0.99681   0.29765   0.00000  Uiso   1.00
H737   H     0.73104   0.97487   0.35226   0.00000  Uiso   1.00
H738   H     0.76399   0.96203   0.30569   0.00000  Uiso   1.00
C739   C     0.08659   0.16663   0.75040   0.00000  Uiso   1.00
C740   C     0.24674   0.16663   0.74960   0.00000  Uiso   1.00
C741   C     0.16666   0.16667   0.66389   0.00000  Uiso   1.00
C742   C     0.16667   0.16667   0.83611   0.00000  Uiso   1.00
C743   C     0.17771   0.02400   0.78728   0.00000  Uiso   1.00
C744   C     0.15515   0.30935   0.71288   0.00000  Uiso   1.00
C745   C     0.15562   0.02400   0.71272   0.00000  Uiso   1.00
C746   C     0.17818   0.30935   0.78712   0.00000  Uiso   1.00
C747   C     0.02110   0.12496   0.74782   0.00000  Uiso   1.00
C748   C     0.31236   0.20792   0.74677   0.00000  Uiso   1.00
C749   C     0.31223   0.12496   0.75218   0.00000  Uiso   1.00
C750   C     0.02097   0.20792   0.75323   0.00000  Uiso   1.00
C751   C     0.15237   0.20485   0.54704   0.00000  Uiso   1.00
C752   C     0.15238   0.12846   0.95292   0.00000  Uiso   1.00
C753   C     0.18096   0.20485   0.95296   0.00000  Uiso   1.00
C754   C     0.18096   0.12846   0.54708   0.00000  Uiso   1.00
C755   C     0.15261   0.20497   0.59303   0.00000  Uiso   1.00
C756   C     0.15262   0.12835   0.90693   0.00000  Uiso   1.00
C757   C     0.18072   0.20497   0.90697   0.00000  Uiso   1.00
C758   C     0.18071   0.12835   0.59307   0.00000  Uiso   1.00
C759   C     0.16666   0.16667   0.61602   0.00000  Uiso   1.00
C760   C     0.16667   0.16667   0.88398   0.00000  Uiso   1.00
C761   C     0.16667   0.16666   0.52406   0.00000  Uiso   1.00
C762   C     0.16667   0.16666   0.97594   0.00000  Uiso   1.00
C763   C     0.29088   0.16647   0.74932   0.00000  Uiso   1.00
C764   C     0.04245   0.16647   0.75068   0.00000  Uiso   1.00
H765   H     0.18681   0.04210   0.81703   0.00000  Uiso   1.00
H766   H     0.14573   0.29126   0.68324   0.00000  Uiso   1.00
H767   H     0.14652   0.04210   0.68297   0.00000  Uiso   1.00
H768   H     0.18760   0.29126   0.81676   0.00000  Uiso   1.00
H769   H     0.14071   0.23428   0.52943   0.00000  Uiso   1.00
H770   H     0.14072   0.09903   0.97049   0.00000  Uiso   1.00
H771   H     0.19263   0.23428   0.97057   0.00000  Uiso   1.00
H772   H     0.19262   0.09903   0.52951   0.00000  Uiso   1.00
H773   H     0.14132   0.23463   0.61054   0.00000  Uiso   1.00
H774   H     0.14135   0.09869   0.88938   0.00000  Uiso   1.00
H775   H     0.19201   0.23463   0.88946   0.00000  Uiso   1.00
H776   H     0.19198   0.09869   0.61062   0.00000  Uiso   1.00
N777   N     0.16667   0.28573   0.75000   0.00000  Uiso   1.00
N778   N     0.16667   0.04760   0.75000   0.00000  Uiso   1.00
O779   O     0.10559   0.20487   0.74999   0.00000  Uiso   1.00
O780   O     0.22774   0.12846   0.75000   0.00000  Uiso   1.00
O781   O     0.22774   0.20487   0.75000   0.00000  Uiso   1.00
O782   O     0.10559   0.12846   0.74999   0.00000  Uiso   1.00
O783   O     0.16666   0.20489   0.68453   0.00000  Uiso   1.00
O784   O     0.16667   0.12845   0.81547   0.00000  Uiso   1.00
O785   O     0.16667   0.20489   0.81547   0.00000  Uiso   1.00
O786   O     0.16666   0.12845   0.68453   0.00000  Uiso   1.00
Zn787  Zn    0.16667   0.21771   0.75000   0.00000  Uiso   1.00
Zn788  Zn    0.16667   0.11563   0.75000   0.00000  Uiso   1.00
O789   O     0.04107   0.08353   0.74497   0.00000  Uiso   1.00
C790   C     0.04039   0.06853   0.70019   0.00000  Uiso   1.00
H791   H     0.06603   0.08465   0.68152   0.00000  Uiso   1.00
H792   H     0.01093   0.07631   0.68269   0.00000  Uiso   1.00
C793   C     0.04598   0.01730   0.69921   0.00000  Uiso   1.00
H794   H     0.01960   0.00064   0.71572   0.00000  Uiso   1.00
H795   H     0.04802   0.00520   0.66424   0.00000  Uiso   1.00
H796   H     0.07422   0.00757   0.71734   0.00000  Uiso   1.00
O797   O     0.29265   0.24897   0.73983   0.00000  Uiso   1.00
C798   C     0.29311   0.25805   0.69356   0.00000  Uiso   1.00
H799   H     0.27905   0.22960   0.67430   0.00000  Uiso   1.00
H800   H     0.32511   0.26356   0.68164   0.00000  Uiso   1.00
C801   C     0.26827   0.30068   0.68399   0.00000  Uiso   1.00
H802   H     0.28104   0.33015   0.70236   0.00000  Uiso   1.00
H803   H     0.26896   0.30821   0.64775   0.00000  Uiso   1.00
H804   H     0.23601   0.29537   0.69432   0.00000  Uiso   1.00
O805   O     0.29226   0.08353   0.75503   0.00000  Uiso   1.00
C806   C     0.29294   0.06853   0.79982   0.00000  Uiso   1.00
H807   H     0.26730   0.08465   0.81848   0.00000  Uiso   1.00
H808   H     0.32240   0.07632   0.81731   0.00000  Uiso   1.00
C809   C     0.28736   0.01730   0.80080   0.00000  Uiso   1.00
H810   H     0.31374   0.00065   0.78428   0.00000  Uiso   1.00
H811   H     0.28531   0.00520   0.83576   0.00000  Uiso   1.00
H812   H     0.25912   0.00757   0.78266   0.00000  Uiso   1.00
O813   O     0.04069   0.24897   0.76017   0.00000  Uiso   1.00
C814   C     0.04022   0.25805   0.80644   0.00000  Uiso   1.00
H815   H     0.05428   0.22960   0.82571   0.00000  Uiso   1.00
H816   H     0.00822   0.26356   0.81836   0.00000  Uiso   1.00
C817   C     0.06506   0.30068   0.81602   0.00000  Uiso   1.00
H818   H     0.05229   0.33015   0.79765   0.00000  Uiso   1.00
H819   H     0.06437   0.30821   0.85226   0.00000  Uiso   1.00
H820   H     0.09732   0.29537   0.80569   0.00000  Uiso   1.00
C821   C     0.41992   0.16663   0.75040   0.00000  Uiso   1.00
C822   C     0.58008   0.16663   0.74960   0.00000  Uiso   1.00
C823   C     0.49999   0.16667   0.66389   0.00000  Uiso   1.00
C824   C     0.50001   0.16667   0.83611   0.00000  Uiso   1.00
C825   C     0.51105   0.02400   0.78728   0.00000  Uiso   1.00
C826   C     0.48848   0.30935   0.71288   0.00000  Uiso   1.00
C827   C     0.48895   0.02400   0.71272   0.00000  Uiso   1.00
C828   C     0.51152   0.30935   0.78712   0.00000  Uiso   1.00
C829   C     0.35444   0.12496   0.74782   0.00000  Uiso   1.00
C830   C     0.64569   0.20792   0.74677   0.00000  Uiso   1.00
C831   C     0.64556   0.12496   0.75218   0.00000  Uiso   1.00
C832   C     0.35431   0.20792   0.75323   0.00000  Uiso   1.00
C833   C     0.48570   0.20485   0.54704   0.00000  Uiso   1.00
C834   C     0.48571   0.12846   0.95292   0.00000  Uiso   1.00
C835   C     0.51430   0.20485   0.95296   0.00000  Uiso   1.00
C836   C     0.51429   0.12846   0.54708   0.00000  Uiso   1.00
C837   C     0.48594   0.20497   0.59303   0.00000  Uiso   1.00
C838   C     0.48596   0.12835   0.90693   0.00000  Uiso   1.00
C839   C     0.51406   0.20497   0.90697   0.00000  Uiso   1.00
C840   C     0.51404   0.12835   0.59307   0.00000  Uiso   1.00
C841   C     0.50000   0.16667   0.61602   0.00000  Uiso   1.00
C842   C     0.50000   0.16667   0.88398   0.00000  Uiso   1.00
C843   C     0.50000   0.16666   0.52406   0.00000  Uiso   1.00
C844   C     0.50000   0.16666   0.97594   0.00000  Uiso   1.00
C845   C     0.62422   0.16647   0.74932   0.00000  Uiso   1.00
C846   C     0.37578   0.16647   0.75068   0.00000  Uiso   1.00
H847   H     0.52015   0.04210   0.81703   0.00000  Uiso   1.00
H848   H     0.47907   0.29126   0.68324   0.00000  Uiso   1.00
H849   H     0.47985   0.04210   0.68297   0.00000  Uiso   1.00
H850   H     0.52093   0.29126   0.81676   0.00000  Uiso   1.00
H851   H     0.47404   0.23428   0.52943   0.00000  Uiso   1.00
H852   H     0.47405   0.09903   0.97049   0.00000  Uiso   1.00
H853   H     0.52596   0.23428   0.97057   0.00000  Uiso   1.00
H854   H     0.52595   0.09903   0.52951   0.00000  Uiso   1.00
H855   H     0.47466   0.23463   0.61054   0.00000  Uiso   1.00
H856   H     0.47469   0.09869   0.88938   0.00000  Uiso   1.00
H857   H     0.52534   0.23463   0.88946   0.00000  Uiso   1.00
H858   H     0.52531   0.09869   0.61062   0.00000  Uiso   1.00
N859   N     0.50000   0.28573   0.75000   0.00000  Uiso   1.00
N860   N     0.50000   0.04760   0.75000   0.00000  Uiso   1.00
O861   O     0.43892   0.20487   0.74999   0.00000  Uiso   1.00
O862   O     0.56108   0.12846   0.75000   0.00000  Uiso   1.00
O863   O     0.56108   0.20487   0.75000   0.00000  Uiso   1.00
O864   O     0.43892   0.12846   0.74999   0.00000  Uiso   1.00
O865   O     0.50000   0.20489   0.68453   0.00000  Uiso   1.00
O866   O     0.50000   0.12845   0.81547   0.00000  Uiso   1.00
O867   O     0.50000   0.20489   0.81547   0.00000  Uiso   1.00
O868   O     0.50000   0.12845   0.68453   0.00000  Uiso   1.00
Zn869  Zn    0.50000   0.21771   0.75000   0.00000  Uiso   1.00
Zn870  Zn    0.50000   0.11563   0.75000   0.00000  Uiso   1.00
O871   O     0.37440   0.08353   0.74497   0.00000  Uiso   1.00
C872   C     0.37372   0.06853   0.70019   0.00000  Uiso   1.00
H873   H     0.39937   0.08465   0.68152   0.00000  Uiso   1.00
H874   H     0.34426   0.07631   0.68269   0.00000  Uiso   1.00
C875   C     0.37931   0.01730   0.69921   0.00000  Uiso   1.00
H876   H     0.35293   0.00064   0.71572   0.00000  Uiso   1.00
H877   H     0.38136   0.00520   0.66424   0.00000  Uiso   1.00
H878   H     0.40755   0.00757   0.71734   0.00000  Uiso   1.00
O879   O     0.62598   0.24897   0.73983   0.00000  Uiso   1.00
C880   C     0.62644   0.25805   0.69356   0.00000  Uiso   1.00
H881   H     0.61238   0.22960   0.67430   0.00000  Uiso   1.00
H882   H     0.65844   0.26356   0.68164   0.00000  Uiso   1.00
C883   C     0.60161   0.30068   0.68399   0.00000  Uiso   1.00
H884   H     0.61438   0.33015   0.70236   0.00000  Uiso   1.00
H885   H     0.60230   0.30821   0.64775   0.00000  Uiso   1.00
H886   H     0.56934   0.29537   0.69432   0.00000  Uiso   1.00
O887   O     0.62560   0.08353   0.75503   0.00000  Uiso   1.00
C888   C     0.62627   0.06853   0.79982   0.00000  Uiso   1.00
H889   H     0.60063   0.08465   0.81848   0.00000  Uiso   1.00
H890   H     0.65573   0.07632   0.81731   0.00000  Uiso   1.00
C891   C     0.62069   0.01730   0.80080   0.00000  Uiso   1.00
H892   H     0.64707   0.00065   0.78428   0.00000  Uiso   1.00
H893   H     0.61864   0.00520   0.83576   0.00000  Uiso   1.00
H894   H     0.59245   0.00757   0.78266   0.00000  Uiso   1.00
O895   O     0.37402   0.24897   0.76017   0.00000  Uiso   1.00
C896   C     0.37356   0.25805   0.80644   0.00000  Uiso   1.00
H897   H     0.38762   0.22960   0.82571   0.00000  Uiso   1.00
H898   H     0.34156   0.26356   0.81836   0.00000  Uiso   1.00
C899   C     0.39839   0.30068   0.81602   0.00000  Uiso   1.00
H900   H     0.38562   0.33015   0.79765   0.00000  Uiso   1.00
H901   H     0.39770   0.30821   0.85226   0.00000  Uiso   1.00
H902   H     0.43066   0.29537   0.80569   0.00000  Uiso   1.00
C903   C     0.75326   0.16663   0.75040   0.00000  Uiso   1.00
C904   C     0.91341   0.16663   0.74960   0.00000  Uiso   1.00
C905   C     0.83333   0.16667   0.66389   0.00000  Uiso   1.00
C906   C     0.83334   0.16667   0.83611   0.00000  Uiso   1.00
C907   C     0.84438   0.02400   0.78728   0.00000  Uiso   1.00
C908   C     0.82181   0.30935   0.71288   0.00000  Uiso   1.00
C909   C     0.82229   0.02400   0.71272   0.00000  Uiso   1.00
C910   C     0.84485   0.30935   0.78712   0.00000  Uiso   1.00
C911   C     0.68777   0.12496   0.74782   0.00000  Uiso   1.00
C912   C     0.97903   0.20792   0.74677   0.00000  Uiso   1.00
C913   C     0.97890   0.12496   0.75218   0.00000  Uiso   1.00
C914   C     0.68764   0.20792   0.75323   0.00000  Uiso   1.00
C915   C     0.81904   0.20485   0.54704   0.00000  Uiso   1.00
C916   C     0.81904   0.12846   0.95292   0.00000  Uiso   1.00
C917   C     0.84763   0.20485   0.95296   0.00000  Uiso   1.00
C918   C     0.84762   0.12846   0.54708   0.00000  Uiso   1.00
C919   C     0.81928   0.20497   0.59303   0.00000  Uiso   1.00
C920   C     0.81929   0.12835   0.90693   0.00000  Uiso   1.00
C921   C     0.84739   0.20497   0.90697   0.00000  Uiso   1.00
C922   C     0.84738   0.12835   0.59307   0.00000  Uiso   1.00
C923   C     0.83333   0.16667   0.61602   0.00000  Uiso   1.00
C924   C     0.83334   0.16667   0.88398   0.00000  Uiso   1.00
C925   C     0.83333   0.16666   0.52406   0.00000  Uiso   1.00
C926   C     0.83333   0.16666   0.97594   0.00000  Uiso   1.00
C927   C     0.95755   0.16647   0.74932   0.00000  Uiso   1.00
C928   C     0.70912   0.16647   0.75068   0.00000  Uiso   1.00
H929   H     0.85348   0.04210   0.81703   0.00000  Uiso   1.00
H930   H     0.81240   0.29126   0.68324   0.00000  Uiso   1.00
H931   H     0.81319   0.04210   0.68297   0.00000  Uiso   1.00
H932   H     0.85427   0.29126   0.81676   0.00000  Uiso   1.00
H933   H     0.80737   0.23428   0.52943   0.00000  Uiso   1.00
H934   H     0.80738   0.09903   0.97049   0.00000  Uiso   1.00
H935   H     0.85929   0.23428   0.97057   0.00000  Uiso   1.00
H936   H     0.85928   0.09903   0.52951   0.00000  Uiso   1.00
H937   H     0.80799   0.23463   0.61054   0.00000  Uiso   1.00
H938   H     0.80802   0.09869   0.88938   0.00000  Uiso   1.00
H939   H     0.85868   0.23463   0.88946   0.00000  Uiso   1.00
H940   H     0.85865   0.09869   0.61062   0.00000  Uiso   1.00
N941   N     0.83333   0.28573   0.75000   0.00000  Uiso   1.00
N942   N     0.83333   0.04760   0.75000   0.00000  Uiso   1.00
O943   O     0.77226   0.20487   0.74999   0.00000  Uiso   1.00
O944   O     0.89441   0.12846   0.75000   0.00000  Uiso   1.00
O945   O     0.89441   0.20487   0.75000   0.00000  Uiso   1.00
O946   O     0.77226   0.12846   0.74999   0.00000  Uiso   1.00
O947   O     0.83333   0.20489   0.68453   0.00000  Uiso   1.00
O948   O     0.83334   0.12845   0.81547   0.00000  Uiso   1.00
O949   O     0.83334   0.20489   0.81547   0.00000  Uiso   1.00
O950   O     0.83333   0.12845   0.68453   0.00000  Uiso   1.00
Zn951  Zn    0.83333   0.21771   0.75000   0.00000  Uiso   1.00
Zn952  Zn    0.83333   0.11563   0.75000   0.00000  Uiso   1.00
O953   O     0.70774   0.08353   0.74497   0.00000  Uiso   1.00
C954   C     0.70706   0.06853   0.70019   0.00000  Uiso   1.00
H955   H     0.73270   0.08465   0.68152   0.00000  Uiso   1.00
H956   H     0.67760   0.07631   0.68269   0.00000  Uiso   1.00
C957   C     0.71264   0.01730   0.69921   0.00000  Uiso   1.00
H958   H     0.68627   0.00064   0.71572   0.00000  Uiso   1.00
H959   H     0.71469   0.00520   0.66424   0.00000  Uiso   1.00
H960   H     0.74088   0.00757   0.71734   0.00000  Uiso   1.00
O961   O     0.95931   0.24897   0.73983   0.00000  Uiso   1.00
C962   C     0.95978   0.25805   0.69356   0.00000  Uiso   1.00
H963   H     0.94572   0.22960   0.67430   0.00000  Uiso   1.00
H964   H     0.99178   0.26356   0.68164   0.00000  Uiso   1.00
C965   C     0.93494   0.30068   0.68399   0.00000  Uiso   1.00
H966   H     0.94771   0.33015   0.70236   0.00000  Uiso   1.00
H967   H     0.93563   0.30821   0.64775   0.00000  Uiso   1.00
H968   H     0.90268   0.29537   0.69432   0.00000  Uiso   1.00
O969   O     0.95893   0.08353   0.75503   0.00000  Uiso   1.00
C970   C     0.95961   0.06853   0.79982   0.00000  Uiso   1.00
H971   H     0.93396   0.08465   0.81848   0.00000  Uiso   1.00
H972   H     0.98907   0.07632   0.81731   0.00000  Uiso   1.00
C973   C     0.95402   0.01730   0.80080   0.00000  Uiso   1.00
H974   H     0.98040   0.00065   0.78428   0.00000  Uiso   1.00
H975   H     0.95198   0.00520   0.83576   0.00000  Uiso   1.00
H976   H     0.92578   0.00757   0.78266   0.00000  Uiso   1.00
O977   O     0.70735   0.24897   0.76017   0.00000  Uiso   1.00
C978   C     0.70689   0.25805   0.80644   0.00000  Uiso   1.00
H979   H     0.72095   0.22960   0.82571   0.00000  Uiso   1.00
H980   H     0.67489   0.26356   0.81836   0.00000  Uiso   1.00
C981   C     0.73173   0.30068   0.81602   0.00000  Uiso   1.00
H982   H     0.71896   0.33015   0.79765   0.00000  Uiso   1.00
H983   H     0.73104   0.30821   0.85226   0.00000  Uiso   1.00
H984   H     0.76399   0.29537   0.80569   0.00000  Uiso   1.00
C985   C     0.08659   0.49996   0.75040   0.00000  Uiso   1.00
C986   C     0.24674   0.49996   0.74960   0.00000  Uiso   1.00
C987   C     0.16666   0.50000   0.66389   0.00000  Uiso   1.00
C988   C     0.16667   0.50000   0.83611   0.00000  Uiso   1.00
C989   C     0.17771   0.35733   0.78728   0.00000  Uiso   1.00
C990   C     0.15515   0.64269   0.71288   0.00000  Uiso   1.00
C991   C     0.15562   0.35733   0.71272   0.00000  Uiso   1.00
C992   C     0.17818   0.64269   0.78712   0.00000  Uiso   1.00
C993   C     0.02110   0.45829   0.74782   0.00000  Uiso   1.00
C994   C     0.31236   0.54125   0.74677   0.00000  Uiso   1.00
C995   C     0.31223   0.45829   0.75218   0.00000  Uiso   1.00
C996   C     0.02097   0.54125   0.75323   0.00000  Uiso   1.00
C997   C     0.15237   0.53819   0.54704   0.00000  Uiso   1.00
C998   C     0.15238   0.46180   0.95292   0.00000  Uiso   1.00
C999   C     0.18096   0.53819   0.95296   0.00000  Uiso   1.00
C1000  C     0.18096   0.46180   0.54708   0.00000  Uiso   1.00
C1001  C     0.15261   0.53831   0.59303   0.00000  Uiso   1.00
C1002  C     0.15262   0.46168   0.90693   0.00000  Uiso   1.00
C1003  C     0.18072   0.53831   0.90697   0.00000  Uiso   1.00
C1004  C     0.18071   0.46168   0.59307   0.00000  Uiso   1.00
C1005  C     0.16666   0.50000   0.61602   0.00000  Uiso   1.00
C1006  C     0.16667   0.50000   0.88398   0.00000  Uiso   1.00
C1007  C     0.16667   0.49999   0.52406   0.00000  Uiso   1.00
C1008  C     0.16667   0.49999   0.97594   0.00000  Uiso   1.00
C1009  C     0.29088   0.49980   0.74932   0.00000  Uiso   1.00
C1010  C     0.04245   0.49980   0.75068   0.00000  Uiso   1.00
H1011  H     0.18681   0.37544   0.81703   0.00000  Uiso   1.00
H1012  H     0.14573   0.62459   0.68324   0.00000  Uiso   1.00
H1013  H     0.14652   0.37544   0.68297   0.00000  Uiso   1.00
H1014  H     0.18760   0.62459   0.81676   0.00000  Uiso   1.00
H1015  H     0.14071   0.56762   0.52943   0.00000  Uiso   1.00
H1016  H     0.14072   0.43236   0.97049   0.00000  Uiso   1.00
H1017  H     0.19263   0.56762   0.97057   0.00000  Uiso   1.00
H1018  H     0.19262   0.43236   0.52951   0.00000  Uiso   1.00
H1019  H     0.14132   0.56796   0.61054   0.00000  Uiso   1.00
H1020  H     0.14135   0.43202   0.88938   0.00000  Uiso   1.00
H1021  H     0.19201   0.56796   0.88946   0.00000  Uiso   1.00
H1022  H     0.19198   0.43202   0.61062   0.00000  Uiso   1.00
N1023  N     0.16667   0.61907   0.75000   0.00000  Uiso   1.00
N1024  N     0.16667   0.38093   0.75000   0.00000  Uiso   1.00
O1025  O     0.10559   0.53821   0.74999   0.00000  Uiso   1.00
O1026  O     0.22774   0.46179   0.75000   0.00000  Uiso   1.00
O1027  O     0.22774   0.53821   0.75000   0.00000  Uiso   1.00
O1028  O     0.10559   0.46179   0.74999   0.00000  Uiso   1.00
O1029  O     0.16666   0.53822   0.68453   0.00000  Uiso   1.00
O1030  O     0.16667   0.46178   0.81547   0.00000  Uiso   1.00
O1031  O     0.16667   0.53822   0.81547   0.00000  Uiso   1.00
O1032  O     0.16666   0.46178   0.68453   0.00000  Uiso   1.00
Zn1033 Zn    0.16667   0.55104   0.75000   0.00000  Uiso   1.00
Zn1034 Zn    0.16667   0.44896   0.75000   0.00000  Uiso   1.00
O1035  O     0.04107   0.41686   0.74497   0.00000  Uiso   1.00
C1036  C     0.04039   0.40186   0.70019   0.00000  Uiso   1.00
H1037  H     0.06603   0.41798   0.68152   0.00000  Uiso   1.00
H1038  H     0.01093   0.40965   0.68269   0.00000  Uiso   1.00
C1039  C     0.04598   0.35064   0.69921   0.00000  Uiso   1.00
H1040  H     0.01960   0.33398   0.71572   0.00000  Uiso   1.00
H1041  H     0.04802   0.33853   0.66424   0.00000  Uiso   1.00
H1042  H     0.07422   0.34090   0.71734   0.00000  Uiso   1.00
O1043  O     0.29265   0.58231   0.73983   0.00000  Uiso   1.00
C1044  C     0.29311   0.59138   0.69356   0.00000  Uiso   1.00
H1045  H     0.27905   0.56293   0.67430   0.00000  Uiso   1.00
H1046  H     0.32511   0.59689   0.68164   0.00000  Uiso   1.00
C1047  C     0.26827   0.63401   0.68399   0.00000  Uiso   1.00
H1048  H     0.28104   0.66348   0.70236   0.00000  Uiso   1.00
H1049  H     0.26896   0.64154   0.64775   0.00000  Uiso   1.00
H1050  H     0.23601   0.62870   0.69432   0.00000  Uiso   1.00
O1051  O     0.29226   0.41686   0.75503   0.00000  Uiso   1.00
C1052  C     0.29294   0.40186   0.79982   0.00000  Uiso   1.00
H1053  H     0.26730   0.41798   0.81848   0.00000  Uiso   1.00
H1054  H     0.32240   0.40965   0.81731   0.00000  Uiso   1.00
C1055  C     0.28736   0.35064   0.80080   0.00000  Uiso   1.00
H1056  H     0.31374   0.33398   0.78428   0.00000  Uiso   1.00
H1057  H     0.28531   0.33854   0.83576   0.00000  Uiso   1.00
H1058  H     0.25912   0.34090   0.78266   0.00000  Uiso   1.00
O1059  O     0.04069   0.58231   0.76017   0.00000  Uiso   1.00
C1060  C     0.04022   0.59138   0.80644   0.00000  Uiso   1.00
H1061  H     0.05428   0.56293   0.82571   0.00000  Uiso   1.00
H1062  H     0.00822   0.59689   0.81836   0.00000  Uiso   1.00
C1063  C     0.06506   0.63401   0.81602   0.00000  Uiso   1.00
H1064  H     0.05229   0.66348   0.79765   0.00000  Uiso   1.00
H1065  H     0.06437   0.64154   0.85226   0.00000  Uiso   1.00
H1066  H     0.09732   0.62870   0.80569   0.00000  Uiso   1.00
C1067  C     0.41992   0.49996   0.75040   0.00000  Uiso   1.00
C1068  C     0.58008   0.49996   0.74960   0.00000  Uiso   1.00
C1069  C     0.49999   0.50000   0.66389   0.00000  Uiso   1.00
C1070  C     0.50001   0.50000   0.83611   0.00000  Uiso   1.00
C1071  C     0.51105   0.35733   0.78728   0.00000  Uiso   1.00
C1072  C     0.48848   0.64269   0.71288   0.00000  Uiso   1.00
C1073  C     0.48895   0.35733   0.71272   0.00000  Uiso   1.00
C1074  C     0.51152   0.64269   0.78712   0.00000  Uiso   1.00
C1075  C     0.35444   0.45829   0.74782   0.00000  Uiso   1.00
C1076  C     0.64569   0.54125   0.74677   0.00000  Uiso   1.00
C1077  C     0.64556   0.45829   0.75218   0.00000  Uiso   1.00
C1078  C     0.35431   0.54125   0.75323   0.00000  Uiso   1.00
C1079  C     0.48570   0.53819   0.54704   0.00000  Uiso   1.00
C1080  C     0.48571   0.46180   0.95292   0.00000  Uiso   1.00
C1081  C     0.51430   0.53819   0.95296   0.00000  Uiso   1.00
C1082  C     0.51429   0.46180   0.54708   0.00000  Uiso   1.00
C1083  C     0.48594   0.53831   0.59303   0.00000  Uiso   1.00
C1084  C     0.48596   0.46168   0.90693   0.00000  Uiso   1.00
C1085  C     0.51406   0.53831   0.90697   0.00000  Uiso   1.00
C1086  C     0.51404   0.46168   0.59307   0.00000  Uiso   1.00
C1087  C     0.50000   0.50000   0.61602   0.00000  Uiso   1.00
C1088  C     0.50000   0.50000   0.88398   0.00000  Uiso   1.00
C1089  C     0.50000   0.49999   0.52406   0.00000  Uiso   1.00
C1090  C     0.50000   0.49999   0.97594   0.00000  Uiso   1.00
C1091  C     0.62422   0.49980   0.74932   0.00000  Uiso   1.00
C1092  C     0.37578   0.49980   0.75068   0.00000  Uiso   1.00
H1093  H     0.52015   0.37544   0.81703   0.00000  Uiso   1.00
H1094  H     0.47907   0.62459   0.68324   0.00000  Uiso   1.00
H1095  H     0.47985   0.37544   0.68297   0.00000  Uiso   1.00
H1096  H     0.52093   0.62459   0.81676   0.00000  Uiso   1.00
H1097  H     0.47404   0.56762   0.52943   0.00000  Uiso   1.00
H1098  H     0.47405   0.43236   0.97049   0.00000  Uiso   1.00
H1099  H     0.52596   0.56762   0.97057   0.00000  Uiso   1.00
H1100  H     0.52595   0.43236   0.52951   0.00000  Uiso   1.00
H1101  H     0.47466   0.56796   0.61054   0.00000  Uiso   1.00
H1102  H     0.47469   0.43202   0.88938   0.00000  Uiso   1.00
H1103  H     0.52534   0.56796   0.88946   0.00000  Uiso   1.00
H1104  H     0.52531   0.43202   0.61062   0.00000  Uiso   1.00
N1105  N     0.50000   0.61907   0.75000   0.00000  Uiso   1.00
N1106  N     0.50000   0.38093   0.75000   0.00000  Uiso   1.00
O1107  O     0.43892   0.53821   0.74999   0.00000  Uiso   1.00
O1108  O     0.56108   0.46179   0.75000   0.00000  Uiso   1.00
O1109  O     0.56108   0.53821   0.75000   0.00000  Uiso   1.00
O1110  O     0.43892   0.46179   0.74999   0.00000  Uiso   1.00
O1111  O     0.50000   0.53822   0.68453   0.00000  Uiso   1.00
O1112  O     0.50000   0.46178   0.81547   0.00000  Uiso   1.00
O1113  O     0.50000   0.53822   0.81547   0.00000  Uiso   1.00
O1114  O     0.50000   0.46178   0.68453   0.00000  Uiso   1.00
Zn1115 Zn    0.50000   0.55104   0.75000   0.00000  Uiso   1.00
Zn1116 Zn    0.50000   0.44896   0.75000   0.00000  Uiso   1.00
O1117  O     0.37440   0.41686   0.74497   0.00000  Uiso   1.00
C1118  C     0.37372   0.40186   0.70019   0.00000  Uiso   1.00
H1119  H     0.39937   0.41798   0.68152   0.00000  Uiso   1.00
H1120  H     0.34426   0.40965   0.68269   0.00000  Uiso   1.00
C1121  C     0.37931   0.35064   0.69921   0.00000  Uiso   1.00
H1122  H     0.35293   0.33398   0.71572   0.00000  Uiso   1.00
H1123  H     0.38136   0.33853   0.66424   0.00000  Uiso   1.00
H1124  H     0.40755   0.34090   0.71734   0.00000  Uiso   1.00
O1125  O     0.62598   0.58231   0.73983   0.00000  Uiso   1.00
C1126  C     0.62644   0.59138   0.69356   0.00000  Uiso   1.00
H1127  H     0.61238   0.56293   0.67430   0.00000  Uiso   1.00
H1128  H     0.65844   0.59689   0.68164   0.00000  Uiso   1.00
C1129  C     0.60161   0.63401   0.68399   0.00000  Uiso   1.00
H1130  H     0.61438   0.66348   0.70236   0.00000  Uiso   1.00
H1131  H     0.60230   0.64154   0.64775   0.00000  Uiso   1.00
H1132  H     0.56934   0.62870   0.69432   0.00000  Uiso   1.00
O1133  O     0.62560   0.41686   0.75503   0.00000  Uiso   1.00
C1134  C     0.62627   0.40186   0.79982   0.00000  Uiso   1.00
H1135  H     0.60063   0.41798   0.81848   0.00000  Uiso   1.00
H1136  H     0.65573   0.40965   0.81731   0.00000  Uiso   1.00
C1137  C     0.62069   0.35064   0.80080   0.00000  Uiso   1.00
H1138  H     0.64707   0.33398   0.78428   0.00000  Uiso   1.00
H1139  H     0.61864   0.33854   0.83576   0.00000  Uiso   1.00
H1140  H     0.59245   0.34090   0.78266   0.00000  Uiso   1.00
O1141  O     0.37402   0.58231   0.76017   0.00000  Uiso   1.00
C1142  C     0.37356   0.59138   0.80644   0.00000  Uiso   1.00
H1143  H     0.38762   0.56293   0.82571   0.00000  Uiso   1.00
H1144  H     0.34156   0.59689   0.81836   0.00000  Uiso   1.00
C1145  C     0.39839   0.63401   0.81602   0.00000  Uiso   1.00
H1146  H     0.38562   0.66348   0.79765   0.00000  Uiso   1.00
H1147  H     0.39770   0.64154   0.85226   0.00000  Uiso   1.00
H1148  H     0.43066   0.62870   0.80569   0.00000  Uiso   1.00
C1149  C     0.75326   0.49996   0.75040   0.00000  Uiso   1.00
C1150  C     0.91341   0.49996   0.74960   0.00000  Uiso   1.00
C1151  C     0.83333   0.50000   0.66389   0.00000  Uiso   1.00
C1152  C     0.83334   0.50000   0.83611   0.00000  Uiso   1.00
C1153  C     0.84438   0.35733   0.78728   0.00000  Uiso   1.00
C1154  C     0.82181   0.64269   0.71288   0.00000  Uiso   1.00
C1155  C     0.82229   0.35733   0.71272   0.00000  Uiso   1.00
C1156  C     0.84485   0.64269   0.78712   0.00000  Uiso   1.00
C1157  C     0.68777   0.45829   0.74782   0.00000  Uiso   1.00
C1158  C     0.97903   0.54125   0.74677   0.00000  Uiso   1.00
C1159  C     0.97890   0.45829   0.75218   0.00000  Uiso   1.00
C1160  C     0.68764   0.54125   0.75323   0.00000  Uiso   1.00
C1161  C     0.81904   0.53819   0.54704   0.00000  Uiso   1.00
C1162  C     0.81904   0.46180   0.95292   0.00000  Uiso   1.00
C1163  C     0.84763   0.53819   0.95296   0.00000  Uiso   1.00
C1164  C     0.84762   0.46180   0.54708   0.00000  Uiso   1.00
C1165  C     0.81928   0.53831   0.59303   0.00000  Uiso   1.00
C1166  C     0.81929   0.46168   0.90693   0.00000  Uiso   1.00
C1167  C     0.84739   0.53831   0.90697   0.00000  Uiso   1.00
C1168  C     0.84738   0.46168   0.59307   0.00000  Uiso   1.00
C1169  C     0.83333   0.50000   0.61602   0.00000  Uiso   1.00
C1170  C     0.83334   0.50000   0.88398   0.00000  Uiso   1.00
C1171  C     0.83333   0.49999   0.52406   0.00000  Uiso   1.00
C1172  C     0.83333   0.49999   0.97594   0.00000  Uiso   1.00
C1173  C     0.95755   0.49980   0.74932   0.00000  Uiso   1.00
C1174  C     0.70912   0.49980   0.75068   0.00000  Uiso   1.00
H1175  H     0.85348   0.37544   0.81703   0.00000  Uiso   1.00
H1176  H     0.81240   0.62459   0.68324   0.00000  Uiso   1.00
H1177  H     0.81319   0.37544   0.68297   0.00000  Uiso   1.00
H1178  H     0.85427   0.62459   0.81676   0.00000  Uiso   1.00
H1179  H     0.80737   0.56762   0.52943   0.00000  Uiso   1.00
H1180  H     0.80738   0.43236   0.97049   0.00000  Uiso   1.00
H1181  H     0.85929   0.56762   0.97057   0.00000  Uiso   1.00
H1182  H     0.85928   0.43236   0.52951   0.00000  Uiso   1.00
H1183  H     0.80799   0.56796   0.61054   0.00000  Uiso   1.00
H1184  H     0.80802   0.43202   0.88938   0.00000  Uiso   1.00
H1185  H     0.85868   0.56796   0.88946   0.00000  Uiso   1.00
H1186  H     0.85865   0.43202   0.61062   0.00000  Uiso   1.00
N1187  N     0.83333   0.61907   0.75000   0.00000  Uiso   1.00
N1188  N     0.83333   0.38093   0.75000   0.00000  Uiso   1.00
O1189  O     0.77226   0.53821   0.74999   0.00000  Uiso   1.00
O1190  O     0.89441   0.46179   0.75000   0.00000  Uiso   1.00
O1191  O     0.89441   0.53821   0.75000   0.00000  Uiso   1.00
O1192  O     0.77226   0.46179   0.74999   0.00000  Uiso   1.00
O1193  O     0.83333   0.53822   0.68453   0.00000  Uiso   1.00
O1194  O     0.83334   0.46178   0.81547   0.00000  Uiso   1.00
O1195  O     0.83334   0.53822   0.81547   0.00000  Uiso   1.00
O1196  O     0.83333   0.46178   0.68453   0.00000  Uiso   1.00
Zn1197 Zn    0.83333   0.55104   0.75000   0.00000  Uiso   1.00
Zn1198 Zn    0.83333   0.44896   0.75000   0.00000  Uiso   1.00
O1199  O     0.70774   0.41686   0.74497   0.00000  Uiso   1.00
C1200  C     0.70706   0.40186   0.70019   0.00000  Uiso   1.00
H1201  H     0.73270   0.41798   0.68152   0.00000  Uiso   1.00
H1202  H     0.67760   0.40965   0.68269   0.00000  Uiso   1.00
C1203  C     0.71264   0.35064   0.69921   0.00000  Uiso   1.00
H1204  H     0.68627   0.33398   0.71572   0.00000  Uiso   1.00
H1205  H     0.71469   0.33853   0.66424   0.00000  Uiso   1.00
H1206  H     0.74088   0.34090   0.71734   0.00000  Uiso   1.00
O1207  O     0.95931   0.58231   0.73983   0.00000  Uiso   1.00
C1208  C     0.95978   0.59138   0.69356   0.00000  Uiso   1.00
H1209  H     0.94572   0.56293   0.67430   0.00000  Uiso   1.00
H1210  H     0.99178   0.59689   0.68164   0.00000  Uiso   1.00
C1211  C     0.93494   0.63401   0.68399   0.00000  Uiso   1.00
H1212  H     0.94771   0.66348   0.70236   0.00000  Uiso   1.00
H1213  H     0.93563   0.64154   0.64775   0.00000  Uiso   1.00
H1214  H     0.90268   0.62870   0.69432   0.00000  Uiso   1.00
O1215  O     0.95893   0.41686   0.75503   0.00000  Uiso   1.00
C1216  C     0.95961   0.40186   0.79982   0.00000  Uiso   1.00
H1217  H     0.93396   0.41798   0.81848   0.00000  Uiso   1.00
H1218  H     0.98907   0.40965   0.81731   0.00000  Uiso   1.00
C1219  C     0.95402   0.35064   0.80080   0.00000  Uiso   1.00
H1220  H     0.98040   0.33398   0.78428   0.00000  Uiso   1.00
H1221  H     0.95198   0.33854   0.83576   0.00000  Uiso   1.00
H1222  H     0.92578   0.34090   0.78266   0.00000  Uiso   1.00
O1223  O     0.70735   0.58231   0.76017   0.00000  Uiso   1.00
C1224  C     0.70689   0.59138   0.80644   0.00000  Uiso   1.00
H1225  H     0.72095   0.56293   0.82571   0.00000  Uiso   1.00
H1226  H     0.67489   0.59689   0.81836   0.00000  Uiso   1.00
C1227  C     0.73173   0.63401   0.81602   0.00000  Uiso   1.00
H1228  H     0.71896   0.66348   0.79765   0.00000  Uiso   1.00
H1229  H     0.73104   0.64154   0.85226   0.00000  Uiso   1.00
H1230  H     0.76399   0.62870   0.80569   0.00000  Uiso   1.00
C1231  C     0.08659   0.83330   0.75040   0.00000  Uiso   1.00
C1232  C     0.24674   0.83330   0.74960   0.00000  Uiso   1.00
C1233  C     0.16666   0.83333   0.66389   0.00000  Uiso   1.00
C1234  C     0.16667   0.83333   0.83611   0.00000  Uiso   1.00
C1235  C     0.17771   0.69066   0.78728   0.00000  Uiso   1.00
C1236  C     0.15515   0.97602   0.71288   0.00000  Uiso   1.00
C1237  C     0.15562   0.69066   0.71272   0.00000  Uiso   1.00
C1238  C     0.17818   0.97602   0.78712   0.00000  Uiso   1.00
C1239  C     0.02110   0.79163   0.74782   0.00000  Uiso   1.00
C1240  C     0.31236   0.87458   0.74677   0.00000  Uiso   1.00
C1241  C     0.31223   0.79163   0.75218   0.00000  Uiso   1.00
C1242  C     0.02097   0.87458   0.75323   0.00000  Uiso   1.00
C1243  C     0.15237   0.87152   0.54704   0.00000  Uiso   1.00
C1244  C     0.15238   0.79513   0.95292   0.00000  Uiso   1.00
C1245  C     0.18096   0.87152   0.95296   0.00000  Uiso   1.00
C1246  C     0.18096   0.79513   0.54708   0.00000  Uiso   1.00
C1247  C     0.15261   0.87164   0.59303   0.00000  Uiso   1.00
C1248  C     0.15262   0.79502   0.90693   0.00000  Uiso   1.00
C1249  C     0.18072   0.87164   0.90697   0.00000  Uiso   1.00
C1250  C     0.18071   0.79502   0.59307   0.00000  Uiso   1.00
C1251  C     0.16666   0.83333   0.61602   0.00000  Uiso   1.00
C1252  C     0.16667   0.83333   0.88398   0.00000  Uiso   1.00
C1253  C     0.16667   0.83332   0.52406   0.00000  Uiso   1.00
C1254  C     0.16667   0.83332   0.97594   0.00000  Uiso   1.00
C1255  C     0.29088   0.83314   0.74932   0.00000  Uiso   1.00
C1256  C     0.04245   0.83314   0.75068   0.00000  Uiso   1.00
H1257  H     0.18681   0.70877   0.81703   0.00000  Uiso   1.00
H1258  H     0.14573   0.95793   0.68324   0.00000  Uiso   1.00
H1259  H     0.14652   0.70877   0.68297   0.00000  Uiso   1.00
H1260  H     0.18760   0.95793   0.81676   0.00000  Uiso   1.00
H1261  H     0.14071   0.90095   0.52943   0.00000  Uiso   1.00
H1262  H     0.14072   0.76570   0.97049   0.00000  Uiso   1.00
H1263  H     0.19263   0.90095   0.97057   0.00000  Uiso   1.00
H1264  H     0.19262   0.76570   0.52951   0.00000  Uiso   1.00
H1265  H     0.14132   0.90130   0.61054   0.00000  Uiso   1.00
H1266  H     0.14135   0.76536   0.88938   0.00000  Uiso   1.00
H1267  H     0.19201   0.90130   0.88946   0.00000  Uiso   1.00
H1268  H     0.19198   0.76536   0.61062   0.00000  Uiso   1.00
N1269  N     0.16667   0.95240   0.75000   0.00000  Uiso   1.00
N1270  N     0.16667   0.71427   0.75000   0.00000  Uiso   1.00
O1271  O     0.10559   0.87154   0.74999   0.00000  Uiso   1.00
O1272  O     0.22774   0.79513   0.75000   0.00000  Uiso   1.00
O1273  O     0.22774   0.87154   0.75000   0.00000  Uiso   1.00
O1274  O     0.10559   0.79513   0.74999   0.00000  Uiso   1.00
O1275  O     0.16666   0.87155   0.68453   0.00000  Uiso   1.00
O1276  O     0.16667   0.79511   0.81547   0.00000  Uiso   1.00
O1277  O     0.16667   0.87155   0.81547   0.00000  Uiso   1.00
O1278  O     0.16666   0.79511   0.68453   0.00000  Uiso   1.00
Zn1279 Zn    0.16667   0.88437   0.75000   0.00000  Uiso   1.00
Zn1280 Zn    0.16667   0.78229   0.75000   0.00000  Uiso   1.00
O1281  O     0.04107   0.75019   0.74497   0.00000  Uiso   1.00
C1282  C     0.04039   0.73520   0.70019   0.00000  Uiso   1.00
H1283  H     0.06603   0.75131   0.68152   0.00000  Uiso   1.00
H1284  H     0.01093   0.74298   0.68269   0.00000  Uiso   1.00
C1285  C     0.04598   0.68397   0.69921   0.00000  Uiso   1.00
H1286  H     0.01960   0.66731   0.71572   0.00000  Uiso   1.00
H1287  H     0.04802   0.67187   0.66424   0.00000  Uiso   1.00
H1288  H     0.07422   0.67424   0.71734   0.00000  Uiso   1.00
O1289  O     0.29265   0.91564   0.73983   0.00000  Uiso   1.00
C1290  C     0.29311   0.92472   0.69356   0.00000  Uiso   1.00
H1291  H     0.27905   0.89627   0.67430   0.00000  Uiso   1.00
H1292  H     0.32511   0.93022   0.68164   0.00000  Uiso   1.00
C1293  C     0.26827   0.96734   0.68399   0.00000  Uiso   1.00
H1294  H     0.28104   0.99681   0.70236   0.00000  Uiso   1.00
H1295  H     0.26896   0.97488   0.64775   0.00000  Uiso   1.00
H1296  H     0.23601   0.96204   0.69432   0.00000  Uiso   1.00
O1297  O     0.29226   0.75019   0.75503   0.00000  Uiso   1.00
C1298  C     0.29294   0.73520   0.79982   0.00000  Uiso   1.00
H1299  H     0.26730   0.75132   0.81848   0.00000  Uiso   1.00
H1300  H     0.32240   0.74298   0.81731   0.00000  Uiso   1.00
C1301  C     0.28736   0.68397   0.80080   0.00000  Uiso   1.00
H1302  H     0.31374   0.66731   0.78428   0.00000  Uiso   1.00
H1303  H     0.28531   0.67187   0.83576   0.00000  Uiso   1.00
H1304  H     0.25912   0.67424   0.78266   0.00000  Uiso   1.00
O1305  O     0.04069   0.91564   0.76017   0.00000  Uiso   1.00
C1306  C     0.04022   0.92471   0.80644   0.00000  Uiso   1.00
H1307  H     0.05428   0.89626   0.82571   0.00000  Uiso   1.00
H1308  H     0.00822   0.93022   0.81836   0.00000  Uiso   1.00
C1309  C     0.06506   0.96734   0.81602   0.00000  Uiso   1.00
H1310  H     0.05229   0.99681   0.79765   0.00000  Uiso   1.00
H1311  H     0.06437   0.97487   0.85226   0.00000  Uiso   1.00
H1312  H     0.09732   0.96203   0.80569   0.00000  Uiso   1.00
C1313  C     0.41992   0.83330   0.75040   0.00000  Uiso   1.00
C1314  C     0.58008   0.83330   0.74960   0.00000  Uiso   1.00
C1315  C     0.49999   0.83333   0.66389   0.00000  Uiso   1.00
C1316  C     0.50001   0.83333   0.83611   0.00000  Uiso   1.00
C1317  C     0.51105   0.69066   0.78728   0.00000  Uiso   1.00
C1318  C     0.48848   0.97602   0.71288   0.00000  Uiso   1.00
C1319  C     0.48895   0.69066   0.71272   0.00000  Uiso   1.00
C1320  C     0.51152   0.97602   0.78712   0.00000  Uiso   1.00
C1321  C     0.35444   0.79163   0.74782   0.00000  Uiso   1.00
C1322  C     0.64569   0.87458   0.74677   0.00000  Uiso   1.00
C1323  C     0.64556   0.79163   0.75218   0.00000  Uiso   1.00
C1324  C     0.35431   0.87458   0.75323   0.00000  Uiso   1.00
C1325  C     0.48570   0.87152   0.54704   0.00000  Uiso   1.00
C1326  C     0.48571   0.79513   0.95292   0.00000  Uiso   1.00
C1327  C     0.51430   0.87152   0.95296   0.00000  Uiso   1.00
C1328  C     0.51429   0.79513   0.54708   0.00000  Uiso   1.00
C1329  C     0.48594   0.87164   0.59303   0.00000  Uiso   1.00
C1330  C     0.48596   0.79502   0.90693   0.00000  Uiso   1.00
C1331  C     0.51406   0.87164   0.90697   0.00000  Uiso   1.00
C1332  C     0.51404   0.79502   0.59307   0.00000  Uiso   1.00
C1333  C     0.50000   0.83333   0.61602   0.00000  Uiso   1.00
C1334  C     0.50000   0.83333   0.88398   0.00000  Uiso   1.00
C1335  C     0.50000   0.83332   0.52406   0.00000  Uiso   1.00
C1336  C     0.50000   0.83332   0.97594   0.00000  Uiso   1.00
C1337  C     0.62422   0.83314   0.74932   0.00000  Uiso   1.00
C1338  C     0.37578   0.83314   0.75068   0.00000  Uiso   1.00
H1339  H     0.52015   0.70877   0.81703   0.00000  Uiso   1.00
H1340  H     0.47907   0.95793   0.68324   0.00000  Uiso   1.00
H1341  H     0.47985   0.70877   0.68297   0.00000  Uiso   1.00
H1342  H     0.52093   0.95793   0.81676   0.00000  Uiso   1.00
H1343  H     0.47404   0.90095   0.52943   0.00000  Uiso   1.00
H1344  H     0.47405   0.76570   0.97049   0.00000  Uiso   1.00
H1345  H     0.52596   0.90095   0.97057   0.00000  Uiso   1.00
H1346  H     0.52595   0.76570   0.52951   0.00000  Uiso   1.00
H1347  H     0.47466   0.90130   0.61054   0.00000  Uiso   1.00
H1348  H     0.47469   0.76536   0.88938   0.00000  Uiso   1.00
H1349  H     0.52534   0.90130   0.88946   0.00000  Uiso   1.00
H1350  H     0.52531   0.76536   0.61062   0.00000  Uiso   1.00
N1351  N     0.50000   0.95240   0.75000   0.00000  Uiso   1.00
N1352  N     0.50000   0.71427   0.75000   0.00000  Uiso   1.00
O1353  O     0.43892   0.87154   0.74999   0.00000  Uiso   1.00
O1354  O     0.56108   0.79513   0.75000   0.00000  Uiso   1.00
O1355  O     0.56108   0.87154   0.75000   0.00000  Uiso   1.00
O1356  O     0.43892   0.79513   0.74999   0.00000  Uiso   1.00
O1357  O     0.50000   0.87155   0.68453   0.00000  Uiso   1.00
O1358  O     0.50000   0.79511   0.81547   0.00000  Uiso   1.00
O1359  O     0.50000   0.87155   0.81547   0.00000  Uiso   1.00
O1360  O     0.50000   0.79511   0.68453   0.00000  Uiso   1.00
Zn1361 Zn    0.50000   0.88437   0.75000   0.00000  Uiso   1.00
Zn1362 Zn    0.50000   0.78229   0.75000   0.00000  Uiso   1.00
O1363  O     0.37440   0.75019   0.74497   0.00000  Uiso   1.00
C1364  C     0.37372   0.73520   0.70019   0.00000  Uiso   1.00
H1365  H     0.39937   0.75131   0.68152   0.00000  Uiso   1.00
H1366  H     0.34426   0.74298   0.68269   0.00000  Uiso   1.00
C1367  C     0.37931   0.68397   0.69921   0.00000  Uiso   1.00
H1368  H     0.35293   0.66731   0.71572   0.00000  Uiso   1.00
H1369  H     0.38136   0.67187   0.66424   0.00000  Uiso   1.00
H1370  H     0.40755   0.67424   0.71734   0.00000  Uiso   1.00
O1371  O     0.62598   0.91564   0.73983   0.00000  Uiso   1.00
C1372  C     0.62644   0.92472   0.69356   0.00000  Uiso   1.00
H1373  H     0.61238   0.89627   0.67430   0.00000  Uiso   1.00
H1374  H     0.65844   0.93022   0.68164   0.00000  Uiso   1.00
C1375  C     0.60161   0.96734   0.68399   0.00000  Uiso   1.00
H1376  H     0.61438   0.99681   0.70236   0.00000  Uiso   1.00
H1377  H     0.60230   0.97488   0.64775   0.00000  Uiso   1.00
H1378  H     0.56934   0.96204   0.69432   0.00000  Uiso   1.00
O1379  O     0.62560   0.75019   0.75503   0.00000  Uiso   1.00
C1380  C     0.62627   0.73520   0.79982   0.00000  Uiso   1.00
H1381  H     0.60063   0.75132   0.81848   0.00000  Uiso   1.00
H1382  H     0.65573   0.74298   0.81731   0.00000  Uiso   1.00
C1383  C     0.62069   0.68397   0.80080   0.00000  Uiso   1.00
H1384  H     0.64707   0.66731   0.78428   0.00000  Uiso   1.00
H1385  H     0.61864   0.67187   0.83576   0.00000  Uiso   1.00
H1386  H     0.59245   0.67424   0.78266   0.00000  Uiso   1.00
O1387  O     0.37402   0.91564   0.76017   0.00000  Uiso   1.00
C1388  C     0.37356   0.92471   0.80644   0.00000  Uiso   1.00
H1389  H     0.38762   0.89626   0.82571   0.00000  Uiso   1.00
H1390  H     0.34156   0.93022   0.81836   0.00000  Uiso   1.00
C1391  C     0.39839   0.96734   0.81602   0.00000  Uiso   1.00
H1392  H     0.38562   0.99681   0.79765   0.00000  Uiso   1.00
H1393  H     0.39770   0.97487   0.85226   0.00000  Uiso   1.00
H1394  H     0.43066   0.96203   0.80569   0.00000  Uiso   1.00
C1395  C     0.75326   0.83330   0.75040   0.00000  Uiso   1.00
C1396  C     0.91341   0.83330   0.74960   0.00000  Uiso   1.00
C1397  C     0.83333   0.83333   0.66389   0.00000  Uiso   1.00
C1398  C     0.83334   0.83333   0.83611   0.00000  Uiso   1.00
C1399  C     0.84438   0.69066   0.78728   0.00000  Uiso   1.00
C1400  C     0.82181   0.97602   0.71288   0.00000  Uiso   1.00
C1401  C     0.82229   0.69066   0.71272   0.00000  Uiso   1.00
C1402  C     0.84485   0.97602   0.78712   0.00000  Uiso   1.00
C1403  C     0.68777   0.79163   0.74782   0.00000  Uiso   1.00
C1404  C     0.97903   0.87458   0.74677   0.00000  Uiso   1.00
C1405  C     0.97890   0.79163   0.75218   0.00000  Uiso   1.00
C1406  C     0.68764   0.87458   0.75323   0.00000  Uiso   1.00
C1407  C     0.81904   0.87152   0.54704   0.00000  Uiso   1.00
C1408  C     0.81904   0.79513   0.95292   0.00000  Uiso   1.00
C1409  C     0.84763   0.87152   0.95296   0.00000  Uiso   1.00
C1410  C     0.84762   0.79513   0.54708   0.00000  Uiso   1.00
C1411  C     0.81928   0.87164   0.59303   0.00000  Uiso   1.00
C1412  C     0.81929   0.79502   0.90693   0.00000  Uiso   1.00
C1413  C     0.84739   0.87164   0.90697   0.00000  Uiso   1.00
C1414  C     0.84738   0.79502   0.59307   0.00000  Uiso   1.00
C1415  C     0.83333   0.83333   0.61602   0.00000  Uiso   1.00
C1416  C     0.83334   0.83333   0.88398   0.00000  Uiso   1.00
C1417  C     0.83333   0.83332   0.52406   0.00000  Uiso   1.00
C1418  C     0.83333   0.83332   0.97594   0.00000  Uiso   1.00
C1419  C     0.95755   0.83314   0.74932   0.00000  Uiso   1.00
C1420  C     0.70912   0.83314   0.75068   0.00000  Uiso   1.00
H1421  H     0.85348   0.70877   0.81703   0.00000  Uiso   1.00
H1422  H     0.81240   0.95793   0.68324   0.00000  Uiso   1.00
H1423  H     0.81319   0.70877   0.68297   0.00000  Uiso   1.00
H1424  H     0.85427   0.95793   0.81676   0.00000  Uiso   1.00
H1425  H     0.80737   0.90095   0.52943   0.00000  Uiso   1.00
H1426  H     0.80738   0.76570   0.97049   0.00000  Uiso   1.00
H1427  H     0.85929   0.90095   0.97057   0.00000  Uiso   1.00
H1428  H     0.85928   0.76570   0.52951   0.00000  Uiso   1.00
H1429  H     0.80799   0.90130   0.61054   0.00000  Uiso   1.00
H1430  H     0.80802   0.76536   0.88938   0.00000  Uiso   1.00
H1431  H     0.85868   0.90130   0.88946   0.00000  Uiso   1.00
H1432  H     0.85865   0.76536   0.61062   0.00000  Uiso   1.00
N1433  N     0.83333   0.95240   0.75000   0.00000  Uiso   1.00
N1434  N     0.83333   0.71427   0.75000   0.00000  Uiso   1.00
O1435  O     0.77226   0.87154   0.74999   0.00000  Uiso   1.00
O1436  O     0.89441   0.79513   0.75000   0.00000  Uiso   1.00
O1437  O     0.89441   0.87154   0.75000   0.00000  Uiso   1.00
O1438  O     0.77226   0.79513   0.74999   0.00000  Uiso   1.00
O1439  O     0.83333   0.87155   0.68453   0.00000  Uiso   1.00
O1440  O     0.83334   0.79511   0.81547   0.00000  Uiso   1.00
O1441  O     0.83334   0.87155   0.81547   0.00000  Uiso   1.00
O1442  O     0.83333   0.79511   0.68453   0.00000  Uiso   1.00
Zn1443 Zn    0.83333   0.88437   0.75000   0.00000  Uiso   1.00
Zn1444 Zn    0.83333   0.78229   0.75000   0.00000  Uiso   1.00
O1445  O     0.70774   0.75019   0.74497   0.00000  Uiso   1.00
C1446  C     0.70706   0.73520   0.70019   0.00000  Uiso   1.00
H1447  H     0.73270   0.75131   0.68152   0.00000  Uiso   1.00
H1448  H     0.67760   0.74298   0.68269   0.00000  Uiso   1.00
C1449  C     0.71264   0.68397   0.69921   0.00000  Uiso   1.00
H1450  H     0.68627   0.66731   0.71572   0.00000  Uiso   1.00
H1451  H     0.71469   0.67187   0.66424   0.00000  Uiso   1.00
H1452  H     0.74088   0.67424   0.71734   0.00000  Uiso   1.00
O1453  O     0.95931   0.91564   0.73983   0.00000  Uiso   1.00
C1454  C     0.95978   0.92472   0.69356   0.00000  Uiso   1.00
H1455  H     0.94572   0.89627   0.67430   0.00000  Uiso   1.00
H1456  H     0.99178   0.93022   0.68164   0.00000  Uiso   1.00
C1457  C     0.93494   0.96734   0.68399   0.00000  Uiso   1.00
H1458  H     0.94771   0.99681   0.70236   0.00000  Uiso   1.00
H1459  H     0.93563   0.97488   0.64775   0.00000  Uiso   1.00
H1460  H     0.90268   0.96204   0.69432   0.00000  Uiso   1.00
O1461  O     0.95893   0.75019   0.75503   0.00000  Uiso   1.00
C1462  C     0.95961   0.73520   0.79982   0.00000  Uiso   1.00
H1463  H     0.93396   0.75132   0.81848   0.00000  Uiso   1.00
H1464  H     0.98907   0.74298   0.81731   0.00000  Uiso   1.00
C1465  C     0.95402   0.68397   0.80080   0.00000  Uiso   1.00
H1466  H     0.98040   0.66731   0.78428   0.00000  Uiso   1.00
H1467  H     0.95198   0.67187   0.83576   0.00000  Uiso   1.00
H1468  H     0.92578   0.67424   0.78266   0.00000  Uiso   1.00
O1469  O     0.70735   0.91564   0.76017   0.00000  Uiso   1.00
C1470  C     0.70689   0.92471   0.80644   0.00000  Uiso   1.00
H1471  H     0.72095   0.89626   0.82571   0.00000  Uiso   1.00
H1472  H     0.67489   0.93022   0.81836   0.00000  Uiso   1.00
C1473  C     0.73173   0.96734   0.81602   0.00000  Uiso   1.00
H1474  H     0.71896   0.99681   0.79765   0.00000  Uiso   1.00
H1475  H     0.73104   0.97487   0.85226   0.00000  Uiso   1.00
H1476  H     0.76399   0.96203   0.80569   0.00000  Uiso   1.00
loop_
_geom_bond_atom_site_label_1
_geom_bond_atom_site_label_2
_geom_bond_distance
_geom_bond_site_symmetry_2
_ccdc_geom_bond_type
C1     O44     1.283   .     A
C1     O41     1.285   .     A
C1     C26     1.437   .     S
C2     O43     1.285   .     A
C2     O42     1.283   .     A
C2     C25     1.437   .     S
C3     O48     1.285   .     A
C3     O45     1.285   .     A
C3     C21     1.437   .     S
C4     O46     1.285   .     A
C4     C22     1.437   .     S
C4     O47     1.285   .     A
C5     H27     1.081   .     S
C5     N40     1.365   .     A
C5     C500    1.413   1_545 S
C6     H28     1.081   .     S
C6     N39     1.365   .     A
C6     C253    1.413   .     S
C7     H29     1.081   .     S
C7     N40     1.365   .     A
C7     C498    1.413   1_545 S
C8     N39     1.365   .     A
C8     H30     1.081   .     S
C8     C251    1.413   .     S
C9     O51     1.385   .     S
C9     C26     1.409   .     A
C9     C175    1.380   1_455 S
C10    C25     1.409   .     A
C10    O59     1.384   .     S
C10    C94     1.379   .     S
C11    C25     1.409   .     A
C11    O67     1.385   .     S
C11    C91     1.380   .     S
C12    C26     1.409   .     A
C12    O75     1.384   .     S
C12    C174    1.379   1_455 S
C13    C23     1.399   .     A
C13    H31     1.083   .     S
C13    C17     1.380   .     A
C14    C18     1.380   .     A
C14    C24     1.399   .     A
C14    H32     1.083   .     S
C15    C19     1.380   .     A
C15    C24     1.399   .     A
C15    H33     1.083   .     S
C16    H34     1.083   .     S
C16    C20     1.380   .     A
C16    C23     1.399   .     A
C17    C21     1.399   .     A
C17    H35     1.084   .     S
C18    C22     1.399   .     A
C18    H36     1.084   .     S
C19    H37     1.084   .     S
C19    C22     1.399   .     A
C20    H38     1.084   .     S
C20    C21     1.399   .     A
C23    C762    1.444   1_554 S
C24    C761    1.444   .     S
N39    Zn49    2.003   .     S
N40    Zn50    2.003   .     S
O41    Zn49    2.024   .     S
O42    Zn50    2.024   .     S
O43    Zn49    2.024   .     S
O44    Zn50    2.024   .     S
O45    Zn49    2.001   .     S
O46    Zn50    2.001   .     S
O47    Zn49    2.001   .     S
O48    Zn50    2.001   .     S
O51    C52     1.415   .     S
C52    C55     1.520   .     S
C52    H54     1.117   .     S
C52    H53     1.112   .     S
C55    H56     1.107   .     S
C55    H57     1.110   .     S
C55    H58     1.106   .     S
O59    C60     1.414   .     S
C60    C63     1.520   .     S
C60    H62     1.114   .     S
C60    H61     1.116   .     S
C63    H65     1.110   .     S
C63    H66     1.106   .     S
C63    H64     1.109   .     S
O67    C68     1.415   .     S
C68    H69     1.112   .     S
C68    C71     1.520   .     S
C68    H70     1.117   .     S
C71    H74     1.106   .     S
C71    H73     1.110   .     S
C71    H72     1.107   .     S
O75    C76     1.414   .     S
C76    C79     1.520   .     S
C76    H78     1.114   .     S
C76    H77     1.116   .     S
C79    H81     1.110   .     S
C79    H82     1.106   .     S
C79    H80     1.109   .     S
C83    O126    1.283   .     A
C83    O123    1.285   .     A
C83    C108    1.437   .     S
C84    O125    1.285   .     A
C84    O124    1.283   .     A
C84    C107    1.437   .     S
C85    O130    1.285   .     A
C85    O127    1.285   .     A
C85    C103    1.437   .     S
C86    O128    1.285   .     A
C86    C104    1.437   .     S
C86    O129    1.285   .     A
C87    H109    1.081   .     S
C87    N122    1.365   .     A
C87    C582    1.413   1_545 S
C88    H110    1.081   .     S
C88    N121    1.365   .     A
C88    C335    1.413   .     S
C89    H111    1.081   .     S
C89    N122    1.365   .     A
C89    C580    1.413   1_545 S
C90    N121    1.365   .     A
C90    H112    1.081   .     S
C90    C333    1.413   .     S
C91    O133    1.385   .     S
C91    C108    1.409   .     A
C92    C107    1.409   .     A
C92    O141    1.384   .     S
C92    C176    1.379   .     S
C93    C107    1.409   .     A
C93    O149    1.385   .     S
C93    C173    1.380   .     S
C94    C108    1.409   .     A
C94    O157    1.384   .     S
C95    C105    1.399   .     A
C95    H113    1.083   .     S
C95    C99     1.380   .     A
C96    C100    1.380   .     A
C96    C106    1.399   .     A
C96    H114    1.083   .     S
C97    C101    1.380   .     A
C97    C106    1.399   .     A
C97    H115    1.083   .     S
C98    H116    1.083   .     S
C98    C102    1.380   .     A
C98    C105    1.399   .     A
C99    C103    1.399   .     A
C99    H117    1.084   .     S
C100   C104    1.399   .     A
C100   H118    1.084   .     S
C101   H119    1.084   .     S
C101   C104    1.399   .     A
C102   H120    1.084   .     S
C102   C103    1.399   .     A
C105   C844    1.444   1_554 S
C106   C843    1.444   .     S
N121   Zn131   2.003   .     S
N122   Zn132   2.003   .     S
O123   Zn131   2.024   .     S
O124   Zn132   2.024   .     S
O125   Zn131   2.024   .     S
O126   Zn132   2.024   .     S
O127   Zn131   2.001   .     S
O128   Zn132   2.001   .     S
O129   Zn131   2.001   .     S
O130   Zn132   2.001   .     S
O133   C134    1.415   .     S
C134   C137    1.520   .     S
C134   H136    1.117   .     S
C134   H135    1.112   .     S
C137   H138    1.107   .     S
C137   H139    1.110   .     S
C137   H140    1.106   .     S
O141   C142    1.414   .     S
C142   C145    1.520   .     S
C142   H144    1.114   .     S
C142   H143    1.116   .     S
C145   H147    1.110   .     S
C145   H148    1.106   .     S
C145   H146    1.109   .     S
O149   C150    1.415   .     S
C150   H151    1.112   .     S
C150   C153    1.520   .     S
C150   H152    1.117   .     S
C153   H156    1.106   .     S
C153   H155    1.110   .     S
C153   H154    1.107   .     S
O157   C158    1.414   .     S
C158   C161    1.520   .     S
C158   H160    1.114   .     S
C158   H159    1.116   .     S
C161   H163    1.110   .     S
C161   H164    1.106   .     S
C161   H162    1.109   .     S
C165   O208    1.283   .     A
C165   O205    1.285   .     A
C165   C190    1.437   .     S
C166   O207    1.285   .     A
C166   O206    1.283   .     A
C166   C189    1.437   .     S
C167   O212    1.285   .     A
C167   O209    1.285   .     A
C167   C185    1.437   .     S
C168   O210    1.285   .     A
C168   C186    1.437   .     S
C168   O211    1.285   .     A
C169   H191    1.081   .     S
C169   N204    1.365   .     A
C169   C664    1.413   1_545 S
C170   H192    1.081   .     S
C170   N203    1.365   .     A
C170   C417    1.413   .     S
C171   H193    1.081   .     S
C171   N204    1.365   .     A
C171   C662    1.413   1_545 S
C172   N203    1.365   .     A
C172   H194    1.081   .     S
C172   C415    1.413   .     S
C173   O215    1.385   .     S
C173   C190    1.409   .     A
C174   C189    1.409   .     A
C174   O223    1.384   .     S
C174   C12     1.379   1_655 S
C175   C189    1.409   .     A
C175   O231    1.385   .     S
C175   C9      1.380   1_655 S
C176   C190    1.409   .     A
C176   O239    1.384   .     S
C177   C187    1.399   .     A
C177   H195    1.083   .     S
C177   C181    1.380   .     A
C178   C182    1.380   .     A
C178   C188    1.399   .     A
C178   H196    1.083   .     S
C179   C183    1.380   .     A
C179   C188    1.399   .     A
C179   H197    1.083   .     S
C180   H198    1.083   .     S
C180   C184    1.380   .     A
C180   C187    1.399   .     A
C181   C185    1.399   .     A
C181   H199    1.084   .     S
C182   C186    1.399   .     A
C182   H200    1.084   .     S
C183   H201    1.084   .     S
C183   C186    1.399   .     A
C184   H202    1.084   .     S
C184   C185    1.399   .     A
C187   C926    1.444   1_554 S
C188   C925    1.444   .     S
N203   Zn213   2.003   .     S
N204   Zn214   2.003   .     S
O205   Zn213   2.024   .     S
O206   Zn214   2.024   .     S
O207   Zn213   2.024   .     S
O208   Zn214   2.024   .     S
O209   Zn213   2.001   .     S
O210   Zn214   2.001   .     S
O211   Zn213   2.001   .     S
O212   Zn214   2.001   .     S
O215   C216    1.415   .     S
C216   C219    1.520   .     S
C216   H218    1.117   .     S
C216   H217    1.112   .     S
C219   H220    1.107   .     S
C219   H221    1.110   .     S
C219   H222    1.106   .     S
O223   C224    1.414   .     S
C224   C227    1.520   .     S
C224   H226    1.114   .     S
C224   H225    1.116   .     S
C227   H229    1.110   .     S
C227   H230    1.106   .     S
C227   H228    1.109   .     S
O231   C232    1.415   .     S
C232   H233    1.112   .     S
C232   C235    1.520   .     S
C232   H234    1.117   .     S
C235   H238    1.106   .     S
C235   H237    1.110   .     S
C235   H236    1.107   .     S
O239   C240    1.414   .     S
C240   C243    1.520   .     S
C240   H242    1.114   .     S
C240   H241    1.116   .     S
C243   H245    1.110   .     S
C243   H246    1.106   .     S
C243   H244    1.109   .     S
C247   O290    1.283   .     A
C247   O287    1.285   .     A
C247   C272    1.437   .     S
C248   O289    1.285   .     A
C248   O288    1.283   .     A
C248   C271    1.437   .     S
C249   O294    1.285   .     A
C249   O291    1.285   .     A
C249   C267    1.437   .     S
C250   O292    1.285   .     A
C250   C268    1.437   .     S
C250   O293    1.285   .     A
C251   H273    1.081   .     S
C251   N286    1.365   .     A
C252   H274    1.081   .     S
C252   N285    1.365   .     A
C252   C499    1.413   .     S
C253   H275    1.081   .     S
C253   N286    1.365   .     A
C254   N285    1.365   .     A
C254   H276    1.081   .     S
C254   C497    1.413   .     S
C255   O297    1.385   .     S
C255   C272    1.409   .     A
C255   C421    1.380   1_455 S
C256   C271    1.409   .     A
C256   O305    1.384   .     S
C256   C340    1.379   .     S
C257   C271    1.409   .     A
C257   O313    1.385   .     S
C257   C337    1.380   .     S
C258   C272    1.409   .     A
C258   O321    1.384   .     S
C258   C420    1.379   1_455 S
C259   C269    1.399   .     A
C259   H277    1.083   .     S
C259   C263    1.380   .     A
C260   C264    1.380   .     A
C260   C270    1.399   .     A
C260   H278    1.083   .     S
C261   C265    1.380   .     A
C261   C270    1.399   .     A
C261   H279    1.083   .     S
C262   H280    1.083   .     S
C262   C266    1.380   .     A
C262   C269    1.399   .     A
C263   C267    1.399   .     A
C263   H281    1.084   .     S
C264   C268    1.399   .     A
C264   H282    1.084   .     S
C265   H283    1.084   .     S
C265   C268    1.399   .     A
C266   H284    1.084   .     S
C266   C267    1.399   .     A
C269   C1008   1.444   1_554 S
C270   C1007   1.444   .     S
N285   Zn295   2.003   .     S
N286   Zn296   2.003   .     S
O287   Zn295   2.024   .     S
O288   Zn296   2.024   .     S
O289   Zn295   2.024   .     S
O290   Zn296   2.024   .     S
O291   Zn295   2.001   .     S
O292   Zn296   2.001   .     S
O293   Zn295   2.001   .     S
O294   Zn296   2.001   .     S
O297   C298    1.415   .     S
C298   C301    1.520   .     S
C298   H300    1.117   .     S
C298   H299    1.112   .     S
C301   H302    1.107   .     S
C301   H303    1.110   .     S
C301   H304    1.106   .     S
O305   C306    1.414   .     S
C306   C309    1.520   .     S
C306   H308    1.114   .     S
C306   H307    1.116   .     S
C309   H311    1.110   .     S
C309   H312    1.106   .     S
C309   H310    1.109   .     S
O313   C314    1.415   .     S
C314   H315    1.112   .     S
C314   C317    1.520   .     S
C314   H316    1.117   .     S
C317   H320    1.106   .     S
C317   H319    1.110   .     S
C317   H318    1.107   .     S
O321   C322    1.414   .     S
C322   C325    1.520   .     S
C322   H324    1.114   .     S
C322   H323    1.116   .     S
C325   H327    1.110   .     S
C325   H328    1.106   .     S
C325   H326    1.109   .     S
C329   O372    1.283   .     A
C329   O369    1.285   .     A
C329   C354    1.437   .     S
C330   O371    1.285   .     A
C330   O370    1.283   .     A
C330   C353    1.437   .     S
C331   O376    1.285   .     A
C331   O373    1.285   .     A
C331   C349    1.437   .     S
C332   O374    1.285   .     A
C332   C350    1.437   .     S
C332   O375    1.285   .     A
C333   H355    1.081   .     S
C333   N368    1.365   .     A
C334   H356    1.081   .     S
C334   N367    1.365   .     A
C334   C581    1.413   .     S
C335   H357    1.081   .     S
C335   N368    1.365   .     A
C336   N367    1.365   .     A
C336   H358    1.081   .     S
C336   C579    1.413   .     S
C337   O379    1.385   .     S
C337   C354    1.409   .     A
C338   C353    1.409   .     A
C338   O387    1.384   .     S
C338   C422    1.379   .     S
C339   C353    1.409   .     A
C339   O395    1.385   .     S
C339   C419    1.380   .     S
C340   C354    1.409   .     A
C340   O403    1.384   .     S
C341   C351    1.399   .     A
C341   H359    1.083   .     S
C341   C345    1.380   .     A
C342   C346    1.380   .     A
C342   C352    1.399   .     A
C342   H360    1.083   .     S
C343   C347    1.380   .     A
C343   C352    1.399   .     A
C343   H361    1.083   .     S
C344   H362    1.083   .     S
C344   C348    1.380   .     A
C344   C351    1.399   .     A
C345   C349    1.399   .     A
C345   H363    1.084   .     S
C346   C350    1.399   .     A
C346   H364    1.084   .     S
C347   H365    1.084   .     S
C347   C350    1.399   .     A
C348   H366    1.084   .     S
C348   C349    1.399   .     A
C351   C1090   1.444   1_554 S
C352   C1089   1.444   .     S
N367   Zn377   2.003   .     S
N368   Zn378   2.003   .     S
O369   Zn377   2.024   .     S
O370   Zn378   2.024   .     S
O371   Zn377   2.024   .     S
O372   Zn378   2.024   .     S
O373   Zn377   2.001   .     S
O374   Zn378   2.001   .     S
O375   Zn377   2.001   .     S
O376   Zn378   2.001   .     S
O379   C380    1.415   .     S
C380   C383    1.520   .     S
C380   H382    1.117   .     S
C380   H381    1.112   .     S
C383   H384    1.107   .     S
C383   H385    1.110   .     S
C383   H386    1.106   .     S
O387   C388    1.414   .     S
C388   C391    1.520   .     S
C388   H390    1.114   .     S
C388   H389    1.116   .     S
C391   H393    1.110   .     S
C391   H394    1.106   .     S
C391   H392    1.109   .     S
O395   C396    1.415   .     S
C396   H397    1.112   .     S
C396   C399    1.520   .     S
C396   H398    1.117   .     S
C399   H402    1.106   .     S
C399   H401    1.110   .     S
C399   H400    1.107   .     S
O403   C404    1.414   .     S
C404   C407    1.520   .     S
C404   H406    1.114   .     S
C404   H405    1.116   .     S
C407   H409    1.110   .     S
C407   H410    1.106   .     S
C407   H408    1.109   .     S
C411   O454    1.283   .     A
C411   O451    1.285   .     A
C411   C436    1.437   .     S
C412   O453    1.285   .     A
C412   O452    1.283   .     A
C412   C435    1.437   .     S
C413   O458    1.285   .     A
C413   O455    1.285   .     A
C413   C431    1.437   .     S
C414   O456    1.285   .     A
C414   C432    1.437   .     S
C414   O457    1.285   .     A
C415   H437    1.081   .     S
C415   N450    1.365   .     A
C416   H438    1.081   .     S
C416   N449    1.365   .     A
C416   C663    1.413   .     S
C417   H439    1.081   .     S
C417   N450    1.365   .     A
C418   N449    1.365   .     A
C418   H440    1.081   .     S
C418   C661    1.413   .     S
C419   O461    1.385   .     S
C419   C436    1.409   .     A
C420   C435    1.409   .     A
C420   O469    1.384   .     S
C420   C258    1.379   1_655 S
C421   C435    1.409   .     A
C421   O477    1.385   .     S
C421   C255    1.380   1_655 S
C422   C436    1.409   .     A
C422   O485    1.384   .     S
C423   C433    1.399   .     A
C423   H441    1.083   .     S
C423   C427    1.380   .     A
C424   C428    1.380   .     A
C424   C434    1.399   .     A
C424   H442    1.083   .     S
C425   C429    1.380   .     A
C425   C434    1.399   .     A
C425   H443    1.083   .     S
C426   H444    1.083   .     S
C426   C430    1.380   .     A
C426   C433    1.399   .     A
C427   C431    1.399   .     A
C427   H445    1.084   .     S
C428   C432    1.399   .     A
C428   H446    1.084   .     S
C429   H447    1.084   .     S
C429   C432    1.399   .     A
C430   H448    1.084   .     S
C430   C431    1.399   .     A
C433   C1172   1.444   1_554 S
C434   C1171   1.444   .     S
N449   Zn459   2.003   .     S
N450   Zn460   2.003   .     S
O451   Zn459   2.024   .     S
O452   Zn460   2.024   .     S
O453   Zn459   2.024   .     S
O454   Zn460   2.024   .     S
O455   Zn459   2.001   .     S
O456   Zn460   2.001   .     S
O457   Zn459   2.001   .     S
O458   Zn460   2.001   .     S
O461   C462    1.415   .     S
C462   C465    1.520   .     S
C462   H464    1.117   .     S
C462   H463    1.112   .     S
C465   H466    1.107   .     S
C465   H467    1.110   .     S
C465   H468    1.106   .     S
O469   C470    1.414   .     S
C470   C473    1.520   .     S
C470   H472    1.114   .     S
C470   H471    1.116   .     S
C473   H475    1.110   .     S
C473   H476    1.106   .     S
C473   H474    1.109   .     S
O477   C478    1.415   .     S
C478   H479    1.112   .     S
C478   C481    1.520   .     S
C478   H480    1.117   .     S
C481   H484    1.106   .     S
C481   H483    1.110   .     S
C481   H482    1.107   .     S
O485   C486    1.414   .     S
C486   C489    1.520   .     S
C486   H488    1.114   .     S
C486   H487    1.116   .     S
C489   H491    1.110   .     S
C489   H492    1.106   .     S
C489   H490    1.109   .     S
C493   O536    1.283   .     A
C493   O533    1.285   .     A
C493   C518    1.437   .     S
C494   O535    1.285   .     A
C494   O534    1.283   .     A
C494   C517    1.437   .     S
C495   O540    1.285   .     A
C495   O537    1.285   .     A
C495   C513    1.437   .     S
C496   O538    1.285   .     A
C496   C514    1.437   .     S
C496   O539    1.285   .     A
C497   H519    1.081   .     S
C497   N532    1.365   .     A
C498   H520    1.081   .     S
C498   N531    1.365   .     A
C498   C7      1.413   1_565 S
C499   H521    1.081   .     S
C499   N532    1.365   .     A
C500   N531    1.365   .     A
C500   H522    1.081   .     S
C500   C5      1.413   1_565 S
C501   O543    1.385   .     S
C501   C518    1.409   .     A
C501   C667    1.380   1_455 S
C502   C517    1.409   .     A
C502   O551    1.384   .     S
C502   C586    1.379   .     S
C503   C517    1.409   .     A
C503   O559    1.385   .     S
C503   C583    1.380   .     S
C504   C518    1.409   .     A
C504   O567    1.384   .     S
C504   C666    1.379   1_455 S
C505   C515    1.399   .     A
C505   H523    1.083   .     S
C505   C509    1.380   .     A
C506   C510    1.380   .     A
C506   C516    1.399   .     A
C506   H524    1.083   .     S
C507   C511    1.380   .     A
C507   C516    1.399   .     A
C507   H525    1.083   .     S
C508   H526    1.083   .     S
C508   C512    1.380   .     A
C508   C515    1.399   .     A
C509   C513    1.399   .     A
C509   H527    1.084   .     S
C510   C514    1.399   .     A
C510   H528    1.084   .     S
C511   H529    1.084   .     S
C511   C514    1.399   .     A
C512   H530    1.084   .     S
C512   C513    1.399   .     A
C515   C1254   1.444   1_554 S
C516   C1253   1.444   .     S
N531   Zn541   2.003   .     S
N532   Zn542   2.003   .     S
O533   Zn541   2.024   .     S
O534   Zn542   2.024   .     S
O535   Zn541   2.024   .     S
O536   Zn542   2.024   .     S
O537   Zn541   2.001   .     S
O538   Zn542   2.001   .     S
O539   Zn541   2.001   .     S
O540   Zn542   2.001   .     S
O543   C544    1.415   .     S
C544   C547    1.520   .     S
C544   H546    1.117   .     S
C544   H545    1.112   .     S
C547   H548    1.107   .     S
C547   H549    1.110   .     S
C547   H550    1.106   .     S
O551   C552    1.414   .     S
C552   C555    1.520   .     S
C552   H554    1.114   .     S
C552   H553    1.116   .     S
C555   H557    1.110   .     S
C555   H558    1.106   .     S
C555   H556    1.109   .     S
O559   C560    1.415   .     S
C560   H561    1.112   .     S
C560   C563    1.520   .     S
C560   H562    1.117   .     S
C563   H566    1.106   .     S
C563   H565    1.110   .     S
C563   H564    1.107   .     S
O567   C568    1.414   .     S
C568   C571    1.520   .     S
C568   H570    1.114   .     S
C568   H569    1.116   .     S
C571   H573    1.110   .     S
C571   H574    1.106   .     S
C571   H572    1.109   .     S
C575   O618    1.283   .     A
C575   O615    1.285   .     A
C575   C600    1.437   .     S
C576   O617    1.285   .     A
C576   O616    1.283   .     A
C576   C599    1.437   .     S
C577   O622    1.285   .     A
C577   O619    1.285   .     A
C577   C595    1.437   .     S
C578   O620    1.285   .     A
C578   C596    1.437   .     S
C578   O621    1.285   .     A
C579   H601    1.081   .     S
C579   N614    1.365   .     A
C580   H602    1.081   .     S
C580   N613    1.365   .     A
C580   C89     1.413   1_565 S
C581   H603    1.081   .     S
C581   N614    1.365   .     A
C582   N613    1.365   .     A
C582   H604    1.081   .     S
C582   C87     1.413   1_565 S
C583   O625    1.385   .     S
C583   C600    1.409   .     A
C584   C599    1.409   .     A
C584   O633    1.384   .     S
C584   C668    1.379   .     S
C585   C599    1.409   .     A
C585   O641    1.385   .     S
C585   C665    1.380   .     S
C586   C600    1.409   .     A
C586   O649    1.384   .     S
C587   C597    1.399   .     A
C587   H605    1.083   .     S
C587   C591    1.380   .     A
C588   C592    1.380   .     A
C588   C598    1.399   .     A
C588   H606    1.083   .     S
C589   C593    1.380   .     A
C589   C598    1.399   .     A
C589   H607    1.083   .     S
C590   H608    1.083   .     S
C590   C594    1.380   .     A
C590   C597    1.399   .     A
C591   C595    1.399   .     A
C591   H609    1.084   .     S
C592   C596    1.399   .     A
C592   H610    1.084   .     S
C593   H611    1.084   .     S
C593   C596    1.399   .     A
C594   H612    1.084   .     S
C594   C595    1.399   .     A
C597   C1336   1.444   1_554 S
C598   C1335   1.444   .     S
N613   Zn623   2.003   .     S
N614   Zn624   2.003   .     S
O615   Zn623   2.024   .     S
O616   Zn624   2.024   .     S
O617   Zn623   2.024   .     S
O618   Zn624   2.024   .     S
O619   Zn623   2.001   .     S
O620   Zn624   2.001   .     S
O621   Zn623   2.001   .     S
O622   Zn624   2.001   .     S
O625   C626    1.415   .     S
C626   C629    1.520   .     S
C626   H628    1.117   .     S
C626   H627    1.112   .     S
C629   H630    1.107   .     S
C629   H631    1.110   .     S
C629   H632    1.106   .     S
O633   C634    1.414   .     S
C634   C637    1.520   .     S
C634   H636    1.114   .     S
C634   H635    1.116   .     S
C637   H639    1.110   .     S
C637   H640    1.106   .     S
C637   H638    1.109   .     S
O641   C642    1.415   .     S
C642   H643    1.112   .     S
C642   C645    1.520   .     S
C642   H644    1.117   .     S
C645   H648    1.106   .     S
C645   H647    1.110   .     S
C645   H646    1.107   .     S
O649   C650    1.414   .     S
C650   C653    1.520   .     S
C650   H652    1.114   .     S
C650   H651    1.116   .     S
C653   H655    1.110   .     S
C653   H656    1.106   .     S
C653   H654    1.109   .     S
C657   O700    1.283   .     A
C657   O697    1.285   .     A
C657   C682    1.437   .     S
C658   O699    1.285   .     A
C658   O698    1.283   .     A
C658   C681    1.437   .     S
C659   O704    1.285   .     A
C659   O701    1.285   .     A
C659   C677    1.437   .     S
C660   O702    1.285   .     A
C660   C678    1.437   .     S
C660   O703    1.285   .     A
C661   H683    1.081   .     S
C661   N696    1.365   .     A
C662   H684    1.081   .     S
C662   N695    1.365   .     A
C662   C171    1.413   1_565 S
C663   H685    1.081   .     S
C663   N696    1.365   .     A
C664   N695    1.365   .     A
C664   H686    1.081   .     S
C664   C169    1.413   1_565 S
C665   O707    1.385   .     S
C665   C682    1.409   .     A
C666   C681    1.409   .     A
C666   O715    1.384   .     S
C666   C504    1.379   1_655 S
C667   C681    1.409   .     A
C667   O723    1.385   .     S
C667   C501    1.380   1_655 S
C668   C682    1.409   .     A
C668   O731    1.384   .     S
C669   C679    1.399   .     A
C669   H687    1.083   .     S
C669   C673    1.380   .     A
C670   C674    1.380   .     A
C670   C680    1.399   .     A
C670   H688    1.083   .     S
C671   C675    1.380   .     A
C671   C680    1.399   .     A
C671   H689    1.083   .     S
C672   H690    1.083   .     S
C672   C676    1.380   .     A
C672   C679    1.399   .     A
C673   C677    1.399   .     A
C673   H691    1.084   .     S
C674   C678    1.399   .     A
C674   H692    1.084   .     S
C675   H693    1.084   .     S
C675   C678    1.399   .     A
C676   H694    1.084   .     S
C676   C677    1.399   .     A
C679   C1418   1.444   1_554 S
C680   C1417   1.444   .     S
N695   Zn705   2.003   .     S
N696   Zn706   2.003   .     S
O697   Zn705   2.024   .     S
O698   Zn706   2.024   .     S
O699   Zn705   2.024   .     S
O700   Zn706   2.024   .     S
O701   Zn705   2.001   .     S
O702   Zn706   2.001   .     S
O703   Zn705   2.001   .     S
O704   Zn706   2.001   .     S
O707   C708    1.415   .     S
C708   C711    1.520   .     S
C708   H710    1.117   .     S
C708   H709    1.112   .     S
C711   H712    1.107   .     S
C711   H713    1.110   .     S
C711   H714    1.106   .     S
O715   C716    1.414   .     S
C716   C719    1.520   .     S
C716   H718    1.114   .     S
C716   H717    1.116   .     S
C719   H721    1.110   .     S
C719   H722    1.106   .     S
C719   H720    1.109   .     S
O723   C724    1.415   .     S
C724   H725    1.112   .     S
C724   C727    1.520   .     S
C724   H726    1.117   .     S
C727   H730    1.106   .     S
C727   H729    1.110   .     S
C727   H728    1.107   .     S
O731   C732    1.414   .     S
C732   C735    1.520   .     S
C732   H734    1.114   .     S
C732   H733    1.116   .     S
C735   H737    1.110   .     S
C735   H738    1.106   .     S
C735   H736    1.109   .     S
C739   O782    1.283   .     A
C739   O779    1.285   .     A
C739   C764    1.437   .     S
C740   O781    1.285   .     A
C740   O780    1.283   .     A
C740   C763    1.437   .     S
C741   O786    1.285   .     A
C741   O783    1.285   .     A
C741   C759    1.437   .     S
C742   O784    1.285   .     A
C742   C760    1.437   .     S
C742   O785    1.285   .     A
C743   H765    1.081   .     S
C743   N778    1.365   .     A
C743   C1238   1.413   1_545 S
C744   H766    1.081   .     S
C744   N777    1.365   .     A
C744   C991    1.413   .     S
C745   H767    1.081   .     S
C745   N778    1.365   .     A
C745   C1236   1.413   1_545 S
C746   N777    1.365   .     A
C746   H768    1.081   .     S
C746   C989    1.413   .     S
C747   O789    1.385   .     S
C747   C764    1.409   .     A
C747   C913    1.380   1_455 S
C748   C763    1.409   .     A
C748   O797    1.384   .     S
C748   C832    1.379   .     S
C749   C763    1.409   .     A
C749   O805    1.385   .     S
C749   C829    1.380   .     S
C750   C764    1.409   .     A
C750   O813    1.384   .     S
C750   C912    1.379   1_455 S
C751   C761    1.399   .     A
C751   H769    1.083   .     S
C751   C755    1.380   .     A
C752   C756    1.380   .     A
C752   C762    1.399   .     A
C752   H770    1.083   .     S
C753   C757    1.380   .     A
C753   C762    1.399   .     A
C753   H771    1.083   .     S
C754   H772    1.083   .     S
C754   C758    1.380   .     A
C754   C761    1.399   .     A
C755   C759    1.399   .     A
C755   H773    1.084   .     S
C756   C760    1.399   .     A
C756   H774    1.084   .     S
C757   H775    1.084   .     S
C757   C760    1.399   .     A
C758   H776    1.084   .     S
C758   C759    1.399   .     A
C762   C23     1.444   1_556 S
N777   Zn787   2.003   .     S
N778   Zn788   2.003   .     S
O779   Zn787   2.024   .     S
O780   Zn788   2.024   .     S
O781   Zn787   2.024   .     S
O782   Zn788   2.024   .     S
O783   Zn787   2.001   .     S
O784   Zn788   2.001   .     S
O785   Zn787   2.001   .     S
O786   Zn788   2.001   .     S
O789   C790    1.415   .     S
C790   C793    1.520   .     S
C790   H792    1.117   .     S
C790   H791    1.112   .     S
C793   H794    1.107   .     S
C793   H795    1.110   .     S
C793   H796    1.106   .     S
O797   C798    1.414   .     S
C798   C801    1.520   .     S
C798   H800    1.114   .     S
C798   H799    1.116   .     S
C801   H803    1.110   .     S
C801   H804    1.106   .     S
C801   H802    1.109   .     S
O805   C806    1.415   .     S
C806   H807    1.112   .     S
C806   C809    1.520   .     S
C806   H808    1.117   .     S
C809   H812    1.106   .     S
C809   H811    1.110   .     S
C809   H810    1.107   .     S
O813   C814    1.414   .     S
C814   C817    1.520   .     S
C814   H816    1.114   .     S
C814   H815    1.116   .     S
C817   H819    1.110   .     S
C817   H820    1.106   .     S
C817   H818    1.109   .     S
C821   O864    1.283   .     A
C821   O861    1.285   .     A
C821   C846    1.437   .     S
C822   O863    1.285   .     A
C822   O862    1.283   .     A
C822   C845    1.437   .     S
C823   O868    1.285   .     A
C823   O865    1.285   .     A
C823   C841    1.437   .     S
C824   O866    1.285   .     A
C824   C842    1.437   .     S
C824   O867    1.285   .     A
C825   H847    1.081   .     S
C825   N860    1.365   .     A
C825   C1320   1.413   1_545 S
C826   H848    1.081   .     S
C826   N859    1.365   .     A
C826   C1073   1.413   .     S
C827   H849    1.081   .     S
C827   N860    1.365   .     A
C827   C1318   1.413   1_545 S
C828   N859    1.365   .     A
C828   H850    1.081   .     S
C828   C1071   1.413   .     S
C829   O871    1.385   .     S
C829   C846    1.409   .     A
C830   C845    1.409   .     A
C830   O879    1.384   .     S
C830   C914    1.379   .     S
C831   C845    1.409   .     A
C831   O887    1.385   .     S
C831   C911    1.380   .     S
C832   C846    1.409   .     A
C832   O895    1.384   .     S
C833   C843    1.399   .     A
C833   H851    1.083   .     S
C833   C837    1.380   .     A
C834   C838    1.380   .     A
C834   C844    1.399   .     A
C834   H852    1.083   .     S
C835   C839    1.380   .     A
C835   C844    1.399   .     A
C835   H853    1.083   .     S
C836   H854    1.083   .     S
C836   C840    1.380   .     A
C836   C843    1.399   .     A
C837   C841    1.399   .     A
C837   H855    1.084   .     S
C838   C842    1.399   .     A
C838   H856    1.084   .     S
C839   H857    1.084   .     S
C839   C842    1.399   .     A
C840   H858    1.084   .     S
C840   C841    1.399   .     A
C844   C105    1.444   1_556 S
N859   Zn869   2.003   .     S
N860   Zn870   2.003   .     S
O861   Zn869   2.024   .     S
O862   Zn870   2.024   .     S
O863   Zn869   2.024   .     S
O864   Zn870   2.024   .     S
O865   Zn869   2.001   .     S
O866   Zn870   2.001   .     S
O867   Zn869   2.001   .     S
O868   Zn870   2.001   .     S
O871   C872    1.415   .     S
C872   C875    1.520   .     S
C872   H874    1.117   .     S
C872   H873    1.112   .     S
C875   H876    1.107   .     S
C875   H877    1.110   .     S
C875   H878    1.106   .     S
O879   C880    1.414   .     S
C880   C883    1.520   .     S
C880   H882    1.114   .     S
C880   H881    1.116   .     S
C883   H885    1.110   .     S
C883   H886    1.106   .     S
C883   H884    1.109   .     S
O887   C888    1.415   .     S
C888   H889    1.112   .     S
C888   C891    1.520   .     S
C888   H890    1.117   .     S
C891   H894    1.106   .     S
C891   H893    1.110   .     S
C891   H892    1.107   .     S
O895   C896    1.414   .     S
C896   C899    1.520   .     S
C896   H898    1.114   .     S
C896   H897    1.116   .     S
C899   H901    1.110   .     S
C899   H902    1.106   .     S
C899   H900    1.109   .     S
C903   O946    1.283   .     A
C903   O943    1.285   .     A
C903   C928    1.437   .     S
C904   O945    1.285   .     A
C904   O944    1.283   .     A
C904   C927    1.437   .     S
C905   O950    1.285   .     A
C905   O947    1.285   .     A
C905   C923    1.437   .     S
C906   O948    1.285   .     A
C906   C924    1.437   .     S
C906   O949    1.285   .     A
C907   H929    1.081   .     S
C907   N942    1.365   .     A
C907   C1402   1.413   1_545 S
C908   H930    1.081   .     S
C908   N941    1.365   .     A
C908   C1155   1.413   .     S
C909   H931    1.081   .     S
C909   N942    1.365   .     A
C909   C1400   1.413   1_545 S
C910   N941    1.365   .     A
C910   H932    1.081   .     S
C910   C1153   1.413   .     S
C911   O953    1.385   .     S
C911   C928    1.409   .     A
C912   C927    1.409   .     A
C912   O961    1.384   .     S
C912   C750    1.379   1_655 S
C913   C927    1.409   .     A
C913   O969    1.385   .     S
C913   C747    1.380   1_655 S
C914   C928    1.409   .     A
C914   O977    1.384   .     S
C915   C925    1.399   .     A
C915   H933    1.083   .     S
C915   C919    1.380   .     A
C916   C920    1.380   .     A
C916   C926    1.399   .     A
C916   H934    1.083   .     S
C917   C921    1.380   .     A
C917   C926    1.399   .     A
C917   H935    1.083   .     S
C918   H936    1.083   .     S
C918   C922    1.380   .     A
C918   C925    1.399   .     A
C919   C923    1.399   .     A
C919   H937    1.084   .     S
C920   C924    1.399   .     A
C920   H938    1.084   .     S
C921   H939    1.084   .     S
C921   C924    1.399   .     A
C922   H940    1.084   .     S
C922   C923    1.399   .     A
C926   C187    1.444   1_556 S
N941   Zn951   2.003   .     S
N942   Zn952   2.003   .     S
O943   Zn951   2.024   .     S
O944   Zn952   2.024   .     S
O945   Zn951   2.024   .     S
O946   Zn952   2.024   .     S
O947   Zn951   2.001   .     S
O948   Zn952   2.001   .     S
O949   Zn951   2.001   .     S
O950   Zn952   2.001   .     S
O953   C954    1.415   .     S
C954   C957    1.520   .     S
C954   H956    1.117   .     S
C954   H955    1.112   .     S
C957   H958    1.107   .     S
C957   H959    1.110   .     S
C957   H960    1.106   .     S
O961   C962    1.414   .     S
C962   C965    1.520   .     S
C962   H964    1.114   .     S
C962   H963    1.116   .     S
C965   H967    1.110   .     S
C965   H968    1.106   .     S
C965   H966    1.109   .     S
O969   C970    1.415   .     S
C970   H971    1.112   .     S
C970   C973    1.520   .     S
C970   H972    1.117   .     S
C973   H976    1.106   .     S
C973   H975    1.110   .     S
C973   H974    1.107   .     S
O977   C978    1.414   .     S
C978   C981    1.520   .     S
C978   H980    1.114   .     S
C978   H979    1.116   .     S
C981   H983    1.110   .     S
C981   H984    1.106   .     S
C981   H982    1.109   .     S
C985   O1028   1.283   .     A
C985   O1025   1.285   .     A
C985   C1010   1.437   .     S
C986   O1027   1.285   .     A
C986   O1026   1.283   .     A
C986   C1009   1.437   .     S
C987   O1032   1.285   .     A
C987   O1029   1.285   .     A
C987   C1005   1.437   .     S
C988   O1030   1.285   .     A
C988   C1006   1.437   .     S
C988   O1031   1.285   .     A
C989   H1011   1.081   .     S
C989   N1024   1.365   .     A
C990   H1012   1.081   .     S
C990   N1023   1.365   .     A
C990   C1237   1.413   .     S
C991   H1013   1.081   .     S
C991   N1024   1.365   .     A
C992   N1023   1.365   .     A
C992   H1014   1.081   .     S
C992   C1235   1.413   .     S
C993   O1035   1.385   .     S
C993   C1010   1.409   .     A
C993   C1159   1.380   1_455 S
C994   C1009   1.409   .     A
C994   O1043   1.384   .     S
C994   C1078   1.379   .     S
C995   C1009   1.409   .     A
C995   O1051   1.385   .     S
C995   C1075   1.380   .     S
C996   C1010   1.409   .     A
C996   O1059   1.384   .     S
C996   C1158   1.379   1_455 S
C997   C1007   1.399   .     A
C997   H1015   1.083   .     S
C997   C1001   1.380   .     A
C998   C1002   1.380   .     A
C998   C1008   1.399   .     A
C998   H1016   1.083   .     S
C999   C1003   1.380   .     A
C999   C1008   1.399   .     A
C999   H1017   1.083   .     S
C1000  H1018   1.083   .     S
C1000  C1004   1.380   .     A
C1000  C1007   1.399   .     A
C1001  C1005   1.399   .     A
C1001  H1019   1.084   .     S
C1002  C1006   1.399   .     A
C1002  H1020   1.084   .     S
C1003  H1021   1.084   .     S
C1003  C1006   1.399   .     A
C1004  H1022   1.084   .     S
C1004  C1005   1.399   .     A
C1008  C269    1.444   1_556 S
N1023  Zn1033  2.003   .     S
N1024  Zn1034  2.003   .     S
O1025  Zn1033  2.024   .     S
O1026  Zn1034  2.024   .     S
O1027  Zn1033  2.024   .     S
O1028  Zn1034  2.024   .     S
O1029  Zn1033  2.001   .     S
O1030  Zn1034  2.001   .     S
O1031  Zn1033  2.001   .     S
O1032  Zn1034  2.001   .     S
O1035  C1036   1.415   .     S
C1036  C1039   1.520   .     S
C1036  H1038   1.117   .     S
C1036  H1037   1.112   .     S
C1039  H1040   1.107   .     S
C1039  H1041   1.110   .     S
C1039  H1042   1.106   .     S
O1043  C1044   1.414   .     S
C1044  C1047   1.520   .     S
C1044  H1046   1.114   .     S
C1044  H1045   1.116   .     S
C1047  H1049   1.110   .     S
C1047  H1050   1.106   .     S
C1047  H1048   1.109   .     S
O1051  C1052   1.415   .     S
C1052  H1053   1.112   .     S
C1052  C1055   1.520   .     S
C1052  H1054   1.117   .     S
C1055  H1058   1.106   .     S
C1055  H1057   1.110   .     S
C1055  H1056   1.107   .     S
O1059  C1060   1.414   .     S
C1060  C1063   1.520   .     S
C1060  H1062   1.114   .     S
C1060  H1061   1.116   .     S
C1063  H1065   1.110   .     S
C1063  H1066   1.106   .     S
C1063  H1064   1.109   .     S
C1067  O1110   1.283   .     A
C1067  O1107   1.285   .     A
C1067  C1092   1.437   .     S
C1068  O1109   1.285   .     A
C1068  O1108   1.283   .     A
C1068  C1091   1.437   .     S
C1069  O1114   1.285   .     A
C1069  O1111   1.285   .     A
C1069  C1087   1.437   .     S
C1070  O1112   1.285   .     A
C1070  C1088   1.437   .     S
C1070  O1113   1.285   .     A
C1071  H1093   1.081   .     S
C1071  N1106   1.365   .     A
C1072  H1094   1.081   .     S
C1072  N1105   1.365   .     A
C1072  C1319   1.413   .     S
C1073  H1095   1.081   .     S
C1073  N1106   1.365   .     A
C1074  N1105   1.365   .     A
C1074  H1096   1.081   .     S
C1074  C1317   1.413   .     S
C1075  O1117   1.385   .     S
C1075  C1092   1.409   .     A
C1076  C1091   1.409   .     A
C1076  O1125   1.384   .     S
C1076  C1160   1.379   .     S
C1077  C1091   1.409   .     A
C1077  O1133   1.385   .     S
C1077  C1157   1.380   .     S
C1078  C1092   1.409   .     A
C1078  O1141   1.384   .     S
C1079  C1089   1.399   .     A
C1079  H1097   1.083   .     S
C1079  C1083   1.380   .     A
C1080  C1084   1.380   .     A
C1080  C1090   1.399   .     A
C1080  H1098   1.083   .     S
C1081  C1085   1.380   .     A
C1081  C1090   1.399   .     A
C1081  H1099   1.083   .     S
C1082  H1100   1.083   .     S
C1082  C1086   1.380   .     A
C1082  C1089   1.399   .     A
C1083  C1087   1.399   .     A
C1083  H1101   1.084   .     S
C1084  C1088   1.399   .     A
C1084  H1102   1.084   .     S
C1085  H1103   1.084   .     S
C1085  C1088   1.399   .     A
C1086  H1104   1.084   .     S
C1086  C1087   1.399   .     A
C1090  C351    1.444   1_556 S
N1105  Zn1115  2.003   .     S
N1106  Zn1116  2.003   .     S
O1107  Zn1115  2.024   .     S
O1108  Zn1116  2.024   .     S
O1109  Zn1115  2.024   .     S
O1110  Zn1116  2.024   .     S
O1111  Zn1115  2.001   .     S
O1112  Zn1116  2.001   .     S
O1113  Zn1115  2.001   .     S
O1114  Zn1116  2.001   .     S
O1117  C1118   1.415   .     S
C1118  C1121   1.520   .     S
C1118  H1120   1.117   .     S
C1118  H1119   1.112   .     S
C1121  H1122   1.107   .     S
C1121  H1123   1.110   .     S
C1121  H1124   1.106   .     S
O1125  C1126   1.414   .     S
C1126  C1129   1.520   .     S
C1126  H1128   1.114   .     S
C1126  H1127   1.116   .     S
C1129  H1131   1.110   .     S
C1129  H1132   1.106   .     S
C1129  H1130   1.109   .     S
O1133  C1134   1.415   .     S
C1134  H1135   1.112   .     S
C1134  C1137   1.520   .     S
C1134  H1136   1.117   .     S
C1137  H1140   1.106   .     S
C1137  H1139   1.110   .     S
C1137  H1138   1.107   .     S
O1141  C1142   1.414   .     S
C1142  C1145   1.520   .     S
C1142  H1144   1.114   .     S
C1142  H1143   1.116   .     S
C1145  H1147   1.110   .     S
C1145  H1148   1.106   .     S
C1145  H1146   1.109   .     S
C1149  O1192   1.283   .     A
C1149  O1189   1.285   .     A
C1149  C1174   1.437   .     S
C1150  O1191   1.285   .     A
C1150  O1190   1.283   .     A
C1150  C1173   1.437   .     S
C1151  O1196   1.285   .     A
C1151  O1193   1.285   .     A
C1151  C1169   1.437   .     S
C1152  O1194   1.285   .     A
C1152  C1170   1.437   .     S
C1152  O1195   1.285   .     A
C1153  H1175   1.081   .     S
C1153  N1188   1.365   .     A
C1154  H1176   1.081   .     S
C1154  N1187   1.365   .     A
C1154  C1401   1.413   .     S
C1155  H1177   1.081   .     S
C1155  N1188   1.365   .     A
C1156  N1187   1.365   .     A
C1156  H1178   1.081   .     S
C1156  C1399   1.413   .     S
C1157  O1199   1.385   .     S
C1157  C1174   1.409   .     A
C1158  C1173   1.409   .     A
C1158  O1207   1.384   .     S
C1158  C996    1.379   1_655 S
C1159  C1173   1.409   .     A
C1159  O1215   1.385   .     S
C1159  C993    1.380   1_655 S
C1160  C1174   1.409   .     A
C1160  O1223   1.384   .     S
C1161  C1171   1.399   .     A
C1161  H1179   1.083   .     S
C1161  C1165   1.380   .     A
C1162  C1166   1.380   .     A
C1162  C1172   1.399   .     A
C1162  H1180   1.083   .     S
C1163  C1167   1.380   .     A
C1163  C1172   1.399   .     A
C1163  H1181   1.083   .     S
C1164  H1182   1.083   .     S
C1164  C1168   1.380   .     A
C1164  C1171   1.399   .     A
C1165  C1169   1.399   .     A
C1165  H1183   1.084   .     S
C1166  C1170   1.399   .     A
C1166  H1184   1.084   .     S
C1167  H1185   1.084   .     S
C1167  C1170   1.399   .     A
C1168  H1186   1.084   .     S
C1168  C1169   1.399   .     A
C1172  C433    1.444   1_556 S
N1187  Zn1197  2.003   .     S
N1188  Zn1198  2.003   .     S
O1189  Zn1197  2.024   .     S
O1190  Zn1198  2.024   .     S
O1191  Zn1197  2.024   .     S
O1192  Zn1198  2.024   .     S
O1193  Zn1197  2.001   .     S
O1194  Zn1198  2.001   .     S
O1195  Zn1197  2.001   .     S
O1196  Zn1198  2.001   .     S
O1199  C1200   1.415   .     S
C1200  C1203   1.520   .     S
C1200  H1202   1.117   .     S
C1200  H1201   1.112   .     S
C1203  H1204   1.107   .     S
C1203  H1205   1.110   .     S
C1203  H1206   1.106   .     S
O1207  C1208   1.414   .     S
C1208  C1211   1.520   .     S
C1208  H1210   1.114   .     S
C1208  H1209   1.116   .     S
C1211  H1213   1.110   .     S
C1211  H1214   1.106   .     S
C1211  H1212   1.109   .     S
O1215  C1216   1.415   .     S
C1216  H1217   1.112   .     S
C1216  C1219   1.520   .     S
C1216  H1218   1.117   .     S
C1219  H1222   1.106   .     S
C1219  H1221   1.110   .     S
C1219  H1220   1.107   .     S
O1223  C1224   1.414   .     S
C1224  C1227   1.520   .     S
C1224  H1226   1.114   .     S
C1224  H1225   1.116   .     S
C1227  H1229   1.110   .     S
C1227  H1230   1.106   .     S
C1227  H1228   1.109   .     S
C1231  O1274   1.283   .     A
C1231  O1271   1.285   .     A
C1231  C1256   1.437   .     S
C1232  O1273   1.285   .     A
C1232  O1272   1.283   .     A
C1232  C1255   1.437   .     S
C1233  O1278   1.285   .     A
C1233  O1275   1.285   .     A
C1233  C1251   1.437   .     S
C1234  O1276   1.285   .     A
C1234  C1252   1.437   .     S
C1234  O1277   1.285   .     A
C1235  H1257   1.081   .     S
C1235  N1270   1.365   .     A
C1236  H1258   1.081   .     S
C1236  N1269   1.365   .     A
C1236  C745    1.413   1_565 S
C1237  H1259   1.081   .     S
C1237  N1270   1.365   .     A
C1238  N1269   1.365   .     A
C1238  H1260   1.081   .     S
C1238  C743    1.413   1_565 S
C1239  O1281   1.385   .     S
C1239  C1256   1.409   .     A
C1239  C1405   1.380   1_455 S
C1240  C1255   1.409   .     A
C1240  O1289   1.384   .     S
C1240  C1324   1.379   .     S
C1241  C1255   1.409   .     A
C1241  O1297   1.385   .     S
C1241  C1321   1.380   .     S
C1242  C1256   1.409   .     A
C1242  O1305   1.384   .     S
C1242  C1404   1.379   1_455 S
C1243  C1253   1.399   .     A
C1243  H1261   1.083   .     S
C1243  C1247   1.380   .     A
C1244  C1248   1.380   .     A
C1244  C1254   1.399   .     A
C1244  H1262   1.083   .     S
C1245  C1249   1.380   .     A
C1245  C1254   1.399   .     A
C1245  H1263   1.083   .     S
C1246  H1264   1.083   .     S
C1246  C1250   1.380   .     A
C1246  C1253   1.399   .     A
C1247  C1251   1.399   .     A
C1247  H1265   1.084   .     S
C1248  C1252   1.399   .     A
C1248  H1266   1.084   .     S
C1249  H1267   1.084   .     S
C1249  C1252   1.399   .     A
C1250  H1268   1.084   .     S
C1250  C1251   1.399   .     A
C1254  C515    1.444   1_556 S
N1269  Zn1279  2.003   .     S
N1270  Zn1280  2.003   .     S
O1271  Zn1279  2.024   .     S
O1272  Zn1280  2.024   .     S
O1273  Zn1279  2.024   .     S
O1274  Zn1280  2.024   .     S
O1275  Zn1279  2.001   .     S
O1276  Zn1280  2.001   .     S
O1277  Zn1279  2.001   .     S
O1278  Zn1280  2.001   .     S
O1281  C1282   1.415   .     S
C1282  C1285   1.520   .     S
C1282  H1284   1.117   .     S
C1282  H1283   1.112   .     S
C1285  H1286   1.107   .     S
C1285  H1287   1.110   .     S
C1285  H1288   1.106   .     S
O1289  C1290   1.414   .     S
C1290  C1293   1.520   .     S
C1290  H1292   1.114   .     S
C1290  H1291   1.116   .     S
C1293  H1295   1.110   .     S
C1293  H1296   1.106   .     S
C1293  H1294   1.109   .     S
O1297  C1298   1.415   .     S
C1298  H1299   1.112   .     S
C1298  C1301   1.520   .     S
C1298  H1300   1.117   .     S
C1301  H1304   1.106   .     S
C1301  H1303   1.110   .     S
C1301  H1302   1.107   .     S
O1305  C1306   1.414   .     S
C1306  C1309   1.520   .     S
C1306  H1308   1.114   .     S
C1306  H1307   1.116   .     S
C1309  H1311   1.110   .     S
C1309  H1312   1.106   .     S
C1309  H1310   1.109   .     S
C1313  O1356   1.283   .     A
C1313  O1353   1.285   .     A
C1313  C1338   1.437   .     S
C1314  O1355   1.285   .     A
C1314  O1354   1.283   .     A
C1314  C1337   1.437   .     S
C1315  O1360   1.285   .     A
C1315  O1357   1.285   .     A
C1315  C1333   1.437   .     S
C1316  O1358   1.285   .     A
C1316  C1334   1.437   .     S
C1316  O1359   1.285   .     A
C1317  H1339   1.081   .     S
C1317  N1352   1.365   .     A
C1318  H1340   1.081   .     S
C1318  N1351   1.365   .     A
C1318  C827    1.413   1_565 S
C1319  H1341   1.081   .     S
C1319  N1352   1.365   .     A
C1320  N1351   1.365   .     A
C1320  H1342   1.081   .     S
C1320  C825    1.413   1_565 S
C1321  O1363   1.385   .     S
C1321  C1338   1.409   .     A
C1322  C1337   1.409   .     A
C1322  O1371   1.384   .     S
C1322  C1406   1.379   .     S
C1323  C1337   1.409   .     A
C1323  O1379   1.385   .     S
C1323  C1403   1.380   .     S
C1324  C1338   1.409   .     A
C1324  O1387   1.384   .     S
C1325  C1335   1.399   .     A
C1325  H1343   1.083   .     S
C1325  C1329   1.380   .     A
C1326  C1330   1.380   .     A
C1326  C1336   1.399   .     A
C1326  H1344   1.083   .     S
C1327  C1331   1.380   .     A
C1327  C1336   1.399   .     A
C1327  H1345   1.083   .     S
C1328  H1346   1.083   .     S
C1328  C1332   1.380   .     A
C1328  C1335   1.399   .     A
C1329  C1333   1.399   .     A
C1329  H1347   1.084   .     S
C1330  C1334   1.399   .     A
C1330  H1348   1.084   .     S
C1331  H1349   1.084   .     S
C1331  C1334   1.399   .     A
C1332  H1350   1.084   .     S
C1332  C1333   1.399   .     A
C1336  C597    1.444   1_556 S
N1351  Zn1361  2.003   .     S
N1352  Zn1362  2.003   .     S
O1353  Zn1361  2.024   .     S
O1354  Zn1362  2.024   .     S
O1355  Zn1361  2.024   .     S
O1356  Zn1362  2.024   .     S
O1357  Zn1361  2.001   .     S
O1358  Zn1362  2.001   .     S
O1359  Zn1361  2.001   .     S
O1360  Zn1362  2.001   .     S
O1363  C1364   1.415   .     S
C1364  C1367   1.520   .     S
C1364  H1366   1.117   .     S
C1364  H1365   1.112   .     S
C1367  H1368   1.107   .     S
C1367  H1369   1.110   .     S
C1367  H1370   1.106   .     S
O1371  C1372   1.414   .     S
C1372  C1375   1.520   .     S
C1372  H1374   1.114   .     S
C1372  H1373   1.116   .     S
C1375  H1377   1.110   .     S
C1375  H1378   1.106   .     S
C1375  H1376   1.109   .     S
O1379  C1380   1.415   .     S
C1380  H1381   1.112   .     S
C1380  C1383   1.520   .     S
C1380  H1382   1.117   .     S
C1383  H1386   1.106   .     S
C1383  H1385   1.110   .     S
C1383  H1384   1.107   .     S
O1387  C1388   1.414   .     S
C1388  C1391   1.520   .     S
C1388  H1390   1.114   .     S
C1388  H1389   1.116   .     S
C1391  H1393   1.110   .     S
C1391  H1394   1.106   .     S
C1391  H1392   1.109   .     S
C1395  O1438   1.283   .     A
C1395  O1435   1.285   .     A
C1395  C1420   1.437   .     S
C1396  O1437   1.285   .     A
C1396  O1436   1.283   .     A
C1396  C1419   1.437   .     S
C1397  O1442   1.285   .     A
C1397  O1439   1.285   .     A
C1397  C1415   1.437   .     S
C1398  O1440   1.285   .     A
C1398  C1416   1.437   .     S
C1398  O1441   1.285   .     A
C1399  H1421   1.081   .     S
C1399  N1434   1.365   .     A
C1400  H1422   1.081   .     S
C1400  N1433   1.365   .     A
C1400  C909    1.413   1_565 S
C1401  H1423   1.081   .     S
C1401  N1434   1.365   .     A
C1402  N1433   1.365   .     A
C1402  H1424   1.081   .     S
C1402  C907    1.413   1_565 S
C1403  O1445   1.385   .     S
C1403  C1420   1.409   .     A
C1404  C1419   1.409   .     A
C1404  O1453   1.384   .     S
C1404  C1242   1.379   1_655 S
C1405  C1419   1.409   .     A
C1405  O1461   1.385   .     S
C1405  C1239   1.380   1_655 S
C1406  C1420   1.409   .     A
C1406  O1469   1.384   .     S
C1407  C1417   1.399   .     A
C1407  H1425   1.083   .     S
C1407  C1411   1.380   .     A
C1408  C1412   1.380   .     A
C1408  C1418   1.399   .     A
C1408  H1426   1.083   .     S
C1409  C1413   1.380   .     A
C1409  C1418   1.399   .     A
C1409  H1427   1.083   .     S
C1410  H1428   1.083   .     S
C1410  C1414   1.380   .     A
C1410  C1417   1.399   .     A
C1411  C1415   1.399   .     A
C1411  H1429   1.084   .     S
C1412  C1416   1.399   .     A
C1412  H1430   1.084   .     S
C1413  H1431   1.084   .     S
C1413  C1416   1.399   .     A
C1414  H1432   1.084   .     S
C1414  C1415   1.399   .     A
C1418  C679    1.444   1_556 S
N1433  Zn1443  2.003   .     S
N1434  Zn1444  2.003   .     S
O1435  Zn1443  2.024   .     S
O1436  Zn1444  2.024   .     S
O1437  Zn1443  2.024   .     S
O1438  Zn1444  2.024   .     S
O1439  Zn1443  2.001   .     S
O1440  Zn1444  2.001   .     S
O1441  Zn1443  2.001   .     S
O1442  Zn1444  2.001   .     S
O1445  C1446   1.415   .     S
C1446  C1449   1.520   .     S
C1446  H1448   1.117   .     S
C1446  H1447   1.112   .     S
C1449  H1450   1.107   .     S
C1449  H1451   1.110   .     S
C1449  H1452   1.106   .     S
O1453  C1454   1.414   .     S
C1454  C1457   1.520   .     S
C1454  H1456   1.114   .     S
C1454  H1455   1.116   .     S
C1457  H1459   1.110   .     S
C1457  H1460   1.106   .     S
C1457  H1458   1.109   .     S
O1461  C1462   1.415   .     S
C1462  H1463   1.112   .     S
C1462  C1465   1.520   .     S
C1462  H1464   1.117   .     S
C1465  H1468   1.106   .     S
C1465  H1467   1.110   .     S
C1465  H1466   1.107   .     S
O1469  C1470   1.414   .     S
C1470  C1473   1.520   .     S
C1470  H1472   1.114   .     S
C1470  H1471   1.116   .     S
C1473  H1475   1.110   .     S
C1473  H1476   1.106   .     S
C1473  H1474   1.109   .     S
