data_str_m3_o2_o10_pcu_sym.172
_audit_creation_date              2020-01-03
_audit_creation_method            'Materials Studio'
_symmetry_space_group_name_H-M    'P1'
_symmetry_Int_Tables_number       1
_symmetry_cell_setting            triclinic
loop_
_symmetry_equiv_pos_as_xyz
  x,y,z
_cell_length_a                    25.7553
_cell_length_b                    29.8451
_cell_length_c                    28.3359
_cell_angle_alpha                 90.2869
_cell_angle_beta                  98.7093
_cell_angle_gamma                 89.9924
loop_
_atom_site_label
_atom_site_type_symbol
_atom_site_fract_x
_atom_site_fract_y
_atom_site_fract_z
_atom_site_U_iso_or_equiv
_atom_site_adp_type
_atom_site_occupancy
C1     C     0.16743   0.16381   0.24999   0.00000  Uiso   1.00
C2     C     0.16773   0.33626   0.25029   0.00000  Uiso   1.00
C3     C     0.12577   0.22969   0.04689   0.00000  Uiso   1.00
C4     C     0.18895   0.28560   0.45065   0.00000  Uiso   1.00
C5     C     0.12665   0.22994   0.09664   0.00000  Uiso   1.00
C6     C     0.18870   0.28485   0.40098   0.00000  Uiso   1.00
C7     C     0.20665   0.27007   0.10783   0.00000  Uiso   1.00
C8     C     0.14456   0.21521   0.39454   0.00000  Uiso   1.00
C9     C     0.20749   0.27034   0.05832   0.00000  Uiso   1.00
C10    C     0.14426   0.21448   0.44412   0.00000  Uiso   1.00
C11    C     0.16662   0.25002   0.02668   0.00000  Uiso   1.00
C12    C     0.16660   0.25004   0.47331   0.00000  Uiso   1.00
C13    C     0.06699   0.24998   0.23751   0.00000  Uiso   1.00
C14    C     0.26634   0.25000   0.26248   0.00000  Uiso   1.00
C15    C     0.01195   0.24996   0.23077   0.00000  Uiso   1.00
C16    C     0.32137   0.24996   0.26921   0.00000  Uiso   1.00
C17    C     0.15967   0.04526   0.28586   0.00000  Uiso   1.00
C18    C     0.16776   0.45480   0.21161   0.00000  Uiso   1.00
C19    C     0.15237   0.09096   0.28436   0.00000  Uiso   1.00
C20    C     0.16041   0.40907   0.21025   0.00000  Uiso   1.00
C21    C     0.17369   0.11601   0.25067   0.00000  Uiso   1.00
C22    C     0.17442   0.38418   0.25170   0.00000  Uiso   1.00
C23    C     0.20347   0.09573   0.21913   0.00000  Uiso   1.00
C24    C     0.19704   0.40486   0.29434   0.00000  Uiso   1.00
C25    C     0.21233   0.04972   0.22086   0.00000  Uiso   1.00
C26    C     0.20532   0.45094   0.29629   0.00000  Uiso   1.00
C27    C     0.18971   0.02447   0.25471   0.00000  Uiso   1.00
C28    C     0.19017   0.47591   0.25412   0.00000  Uiso   1.00
H29    H     0.32461   0.24996   0.19432   0.00000  Uiso   1.00
H30    H     0.00872   0.24995   0.30566   0.00000  Uiso   1.00
H31    H     0.14072   0.02584   0.31063   0.00000  Uiso   1.00
H32    H     0.15438   0.47402   0.17974   0.00000  Uiso   1.00
H33    H     0.12919   0.10663   0.30876   0.00000  Uiso   1.00
H34    H     0.14277   0.39332   0.17714   0.00000  Uiso   1.00
H35    H     0.22089   0.11598   0.19396   0.00000  Uiso   1.00
H36    H     0.20900   0.38496   0.32604   0.00000  Uiso   1.00
H37    H     0.09281   0.21419   0.02451   0.00000  Uiso   1.00
H38    H     0.20591   0.31425   0.47089   0.00000  Uiso   1.00
H39    H     0.09506   0.21417   0.11161   0.00000  Uiso   1.00
H40    H     0.20608   0.31235   0.38416   0.00000  Uiso   1.00
H41    H     0.23824   0.28590   0.13161   0.00000  Uiso   1.00
H42    H     0.12715   0.18771   0.37265   0.00000  Uiso   1.00
H43    H     0.24042   0.28586   0.04517   0.00000  Uiso   1.00
H44    H     0.12726   0.18585   0.45940   0.00000  Uiso   1.00
N45    N     0.16667   0.24999   0.12623   0.00000  Uiso   1.00
N46    N     0.16667   0.25001   0.37376   0.00000  Uiso   1.00
O47    O     0.16667   0.18453   0.28974   0.00000  Uiso   1.00
O48    O     0.16666   0.31547   0.21026   0.00000  Uiso   1.00
O49    O     0.16667   0.18453   0.21026   0.00000  Uiso   1.00
O50    O     0.16666   0.31547   0.28974   0.00000  Uiso   1.00
O51    O     0.09058   0.25000   0.28044   0.00000  Uiso   1.00
O52    O     0.24275   0.25000   0.21955   0.00000  Uiso   1.00
O53    O     0.09058   0.25000   0.20096   0.00000  Uiso   1.00
O54    O     0.24275   0.25000   0.29903   0.00000  Uiso   1.00
Zn55   Zn    0.16667   0.25000   0.30307   0.00000  Uiso   1.00
Zn56   Zn    0.16667   0.24999   0.19693   0.00000  Uiso   1.00
C57    C     0.24401   0.02921   0.18651   0.00000  Uiso   1.00
C58    C     0.28568   0.49973   0.20209   0.00000  Uiso   1.00
C59    C     0.31517   0.48089   0.16947   0.00000  Uiso   1.00
C60    C     0.30345   0.49122   0.12101   0.00000  Uiso   1.00
C61    C     0.26224   0.02047   0.10508   0.00000  Uiso   1.00
C62    C     0.23270   0.03946   0.13759   0.00000  Uiso   1.00
H63    H     0.29564   0.49135   0.23937   0.00000  Uiso   1.00
H64    H     0.01386   0.45829   0.18180   0.00000  Uiso   1.00
H65    H     0.32630   0.47658   0.09581   0.00000  Uiso   1.00
H66    H     0.25313   0.02840   0.06750   0.00000  Uiso   1.00
H67    H     0.20063   0.06179   0.12452   0.00000  Uiso   1.00
C68    C     0.22786   0.47182   0.34284   0.00000  Uiso   1.00
C69    C     0.26968   0.00257   0.34605   0.00000  Uiso   1.00
C70    C     0.29017   0.02200   0.38994   0.00000  Uiso   1.00
C71    C     0.26932   0.01090   0.43108   0.00000  Uiso   1.00
C72    C     0.22793   0.48033   0.42841   0.00000  Uiso   1.00
C73    C     0.20728   0.46084   0.38461   0.00000  Uiso   1.00
H74    H     0.28662   0.01159   0.31484   0.00000  Uiso   1.00
H75    H     0.32228   0.04567   0.39204   0.00000  Uiso   1.00
H76    H     0.28523   0.02598   0.46502   0.00000  Uiso   1.00
H77    H     0.21173   0.47180   0.46030   0.00000  Uiso   1.00
H78    H     0.17480   0.43758   0.38320   0.00000  Uiso   1.00
C79    C     0.50076   0.16381   0.24999   0.00000  Uiso   1.00
C80    C     0.50106   0.33626   0.25029   0.00000  Uiso   1.00
C81    C     0.45910   0.22969   0.04689   0.00000  Uiso   1.00
C82    C     0.52228   0.28560   0.45065   0.00000  Uiso   1.00
C83    C     0.45998   0.22994   0.09664   0.00000  Uiso   1.00
C84    C     0.52203   0.28485   0.40098   0.00000  Uiso   1.00
C85    C     0.53999   0.27007   0.10783   0.00000  Uiso   1.00
C86    C     0.47789   0.21521   0.39454   0.00000  Uiso   1.00
C87    C     0.54082   0.27034   0.05832   0.00000  Uiso   1.00
C88    C     0.47759   0.21448   0.44412   0.00000  Uiso   1.00
C89    C     0.49995   0.25002   0.02668   0.00000  Uiso   1.00
C90    C     0.49994   0.25004   0.47331   0.00000  Uiso   1.00
C91    C     0.40032   0.24998   0.23751   0.00000  Uiso   1.00
C92    C     0.59968   0.25000   0.26248   0.00000  Uiso   1.00
C93    C     0.34529   0.24996   0.23077   0.00000  Uiso   1.00
C94    C     0.65471   0.24996   0.26921   0.00000  Uiso   1.00
C95    C     0.49300   0.04526   0.28586   0.00000  Uiso   1.00
C96    C     0.50110   0.45480   0.21161   0.00000  Uiso   1.00
C97    C     0.48570   0.09096   0.28436   0.00000  Uiso   1.00
C98    C     0.49374   0.40907   0.21025   0.00000  Uiso   1.00
C99    C     0.50702   0.11601   0.25067   0.00000  Uiso   1.00
C100   C     0.50775   0.38418   0.25170   0.00000  Uiso   1.00
C101   C     0.53681   0.09573   0.21913   0.00000  Uiso   1.00
C102   C     0.53038   0.40486   0.29434   0.00000  Uiso   1.00
C103   C     0.54566   0.04972   0.22086   0.00000  Uiso   1.00
C104   C     0.53865   0.45094   0.29629   0.00000  Uiso   1.00
C105   C     0.52304   0.02447   0.25471   0.00000  Uiso   1.00
C106   C     0.52350   0.47591   0.25412   0.00000  Uiso   1.00
H107   H     0.65794   0.24996   0.19432   0.00000  Uiso   1.00
H108   H     0.34206   0.24995   0.30566   0.00000  Uiso   1.00
H109   H     0.47406   0.02584   0.31063   0.00000  Uiso   1.00
H110   H     0.48771   0.47402   0.17974   0.00000  Uiso   1.00
H111   H     0.46253   0.10663   0.30876   0.00000  Uiso   1.00
H112   H     0.47611   0.39332   0.17714   0.00000  Uiso   1.00
H113   H     0.55422   0.11598   0.19396   0.00000  Uiso   1.00
H114   H     0.54233   0.38496   0.32604   0.00000  Uiso   1.00
H115   H     0.42615   0.21419   0.02451   0.00000  Uiso   1.00
H116   H     0.53925   0.31425   0.47089   0.00000  Uiso   1.00
H117   H     0.42839   0.21417   0.11161   0.00000  Uiso   1.00
H118   H     0.53941   0.31235   0.38416   0.00000  Uiso   1.00
H119   H     0.57158   0.28590   0.13161   0.00000  Uiso   1.00
H120   H     0.46048   0.18771   0.37265   0.00000  Uiso   1.00
H121   H     0.57375   0.28586   0.04517   0.00000  Uiso   1.00
H122   H     0.46059   0.18585   0.45940   0.00000  Uiso   1.00
N123   N     0.50000   0.24999   0.12623   0.00000  Uiso   1.00
N124   N     0.50000   0.25001   0.37376   0.00000  Uiso   1.00
O125   O     0.50000   0.18453   0.28974   0.00000  Uiso   1.00
O126   O     0.50000   0.31547   0.21026   0.00000  Uiso   1.00
O127   O     0.50000   0.18453   0.21026   0.00000  Uiso   1.00
O128   O     0.50000   0.31547   0.28974   0.00000  Uiso   1.00
O129   O     0.42392   0.25000   0.28044   0.00000  Uiso   1.00
O130   O     0.57608   0.25000   0.21955   0.00000  Uiso   1.00
O131   O     0.42392   0.25000   0.20096   0.00000  Uiso   1.00
O132   O     0.57608   0.25000   0.29903   0.00000  Uiso   1.00
Zn133  Zn    0.50000   0.25000   0.30307   0.00000  Uiso   1.00
Zn134  Zn    0.50000   0.24999   0.19693   0.00000  Uiso   1.00
C135   C     0.57735   0.02921   0.18651   0.00000  Uiso   1.00
C136   C     0.61901   0.49973   0.20209   0.00000  Uiso   1.00
C137   C     0.64850   0.48089   0.16947   0.00000  Uiso   1.00
C138   C     0.63678   0.49122   0.12101   0.00000  Uiso   1.00
C139   C     0.59557   0.02047   0.10508   0.00000  Uiso   1.00
C140   C     0.56603   0.03946   0.13759   0.00000  Uiso   1.00
H141   H     0.62897   0.49135   0.23937   0.00000  Uiso   1.00
H142   H     0.34719   0.45829   0.18180   0.00000  Uiso   1.00
H143   H     0.65963   0.47658   0.09581   0.00000  Uiso   1.00
H144   H     0.58646   0.02840   0.06750   0.00000  Uiso   1.00
H145   H     0.53397   0.06179   0.12452   0.00000  Uiso   1.00
C146   C     0.56119   0.47182   0.34284   0.00000  Uiso   1.00
C147   C     0.60302   0.00257   0.34605   0.00000  Uiso   1.00
C148   C     0.62350   0.02200   0.38994   0.00000  Uiso   1.00
C149   C     0.60266   0.01090   0.43108   0.00000  Uiso   1.00
C150   C     0.56126   0.48033   0.42841   0.00000  Uiso   1.00
C151   C     0.54061   0.46084   0.38461   0.00000  Uiso   1.00
H152   H     0.61995   0.01159   0.31484   0.00000  Uiso   1.00
H153   H     0.65562   0.04567   0.39204   0.00000  Uiso   1.00
H154   H     0.61857   0.02598   0.46502   0.00000  Uiso   1.00
H155   H     0.54507   0.47180   0.46030   0.00000  Uiso   1.00
H156   H     0.50814   0.43758   0.38320   0.00000  Uiso   1.00
C157   C     0.83409   0.16381   0.24999   0.00000  Uiso   1.00
C158   C     0.83439   0.33626   0.25029   0.00000  Uiso   1.00
C159   C     0.79244   0.22969   0.04689   0.00000  Uiso   1.00
C160   C     0.85561   0.28560   0.45065   0.00000  Uiso   1.00
C161   C     0.79331   0.22994   0.09664   0.00000  Uiso   1.00
C162   C     0.85537   0.28485   0.40098   0.00000  Uiso   1.00
C163   C     0.87332   0.27007   0.10783   0.00000  Uiso   1.00
C164   C     0.81122   0.21521   0.39454   0.00000  Uiso   1.00
C165   C     0.87416   0.27034   0.05832   0.00000  Uiso   1.00
C166   C     0.81093   0.21448   0.44412   0.00000  Uiso   1.00
C167   C     0.83329   0.25002   0.02668   0.00000  Uiso   1.00
C168   C     0.83327   0.25004   0.47331   0.00000  Uiso   1.00
C169   C     0.73366   0.24998   0.23751   0.00000  Uiso   1.00
C170   C     0.93301   0.25000   0.26248   0.00000  Uiso   1.00
C171   C     0.67862   0.24996   0.23077   0.00000  Uiso   1.00
C172   C     0.98804   0.24996   0.26921   0.00000  Uiso   1.00
C173   C     0.82634   0.04526   0.28586   0.00000  Uiso   1.00
C174   C     0.83443   0.45480   0.21161   0.00000  Uiso   1.00
C175   C     0.81904   0.09096   0.28436   0.00000  Uiso   1.00
C176   C     0.82707   0.40907   0.21025   0.00000  Uiso   1.00
C177   C     0.84036   0.11601   0.25067   0.00000  Uiso   1.00
C178   C     0.84109   0.38418   0.25170   0.00000  Uiso   1.00
C179   C     0.87014   0.09573   0.21913   0.00000  Uiso   1.00
C180   C     0.86371   0.40486   0.29434   0.00000  Uiso   1.00
C181   C     0.87900   0.04972   0.22086   0.00000  Uiso   1.00
C182   C     0.87198   0.45094   0.29629   0.00000  Uiso   1.00
C183   C     0.85638   0.02447   0.25471   0.00000  Uiso   1.00
C184   C     0.85683   0.47591   0.25412   0.00000  Uiso   1.00
H185   H     0.99127   0.24996   0.19432   0.00000  Uiso   1.00
H186   H     0.67539   0.24995   0.30566   0.00000  Uiso   1.00
H187   H     0.80739   0.02584   0.31063   0.00000  Uiso   1.00
H188   H     0.82105   0.47402   0.17974   0.00000  Uiso   1.00
H189   H     0.79586   0.10663   0.30876   0.00000  Uiso   1.00
H190   H     0.80944   0.39332   0.17714   0.00000  Uiso   1.00
H191   H     0.88755   0.11598   0.19396   0.00000  Uiso   1.00
H192   H     0.87567   0.38496   0.32604   0.00000  Uiso   1.00
H193   H     0.75948   0.21419   0.02451   0.00000  Uiso   1.00
H194   H     0.87258   0.31425   0.47089   0.00000  Uiso   1.00
H195   H     0.76172   0.21417   0.11161   0.00000  Uiso   1.00
H196   H     0.87274   0.31235   0.38416   0.00000  Uiso   1.00
H197   H     0.90491   0.28590   0.13161   0.00000  Uiso   1.00
H198   H     0.79381   0.18771   0.37265   0.00000  Uiso   1.00
H199   H     0.90709   0.28586   0.04517   0.00000  Uiso   1.00
H200   H     0.79393   0.18585   0.45940   0.00000  Uiso   1.00
N201   N     0.83333   0.24999   0.12623   0.00000  Uiso   1.00
N202   N     0.83333   0.25001   0.37376   0.00000  Uiso   1.00
O203   O     0.83334   0.18453   0.28974   0.00000  Uiso   1.00
O204   O     0.83333   0.31547   0.21026   0.00000  Uiso   1.00
O205   O     0.83334   0.18453   0.21026   0.00000  Uiso   1.00
O206   O     0.83333   0.31547   0.28974   0.00000  Uiso   1.00
O207   O     0.75725   0.25000   0.28044   0.00000  Uiso   1.00
O208   O     0.90942   0.25000   0.21955   0.00000  Uiso   1.00
O209   O     0.75725   0.25000   0.20096   0.00000  Uiso   1.00
O210   O     0.90942   0.25000   0.29903   0.00000  Uiso   1.00
Zn211  Zn    0.83333   0.25000   0.30307   0.00000  Uiso   1.00
Zn212  Zn    0.83333   0.24999   0.19693   0.00000  Uiso   1.00
C213   C     0.91068   0.02921   0.18651   0.00000  Uiso   1.00
C214   C     0.95235   0.49973   0.20209   0.00000  Uiso   1.00
C215   C     0.98184   0.48089   0.16947   0.00000  Uiso   1.00
C216   C     0.97012   0.49122   0.12101   0.00000  Uiso   1.00
C217   C     0.92891   0.02047   0.10508   0.00000  Uiso   1.00
C218   C     0.89937   0.03946   0.13759   0.00000  Uiso   1.00
H219   H     0.96231   0.49135   0.23937   0.00000  Uiso   1.00
H220   H     0.68053   0.45829   0.18180   0.00000  Uiso   1.00
H221   H     0.99297   0.47658   0.09581   0.00000  Uiso   1.00
H222   H     0.91979   0.02840   0.06750   0.00000  Uiso   1.00
H223   H     0.86730   0.06179   0.12452   0.00000  Uiso   1.00
C224   C     0.89453   0.47182   0.34284   0.00000  Uiso   1.00
C225   C     0.93635   0.00257   0.34605   0.00000  Uiso   1.00
C226   C     0.95683   0.02200   0.38994   0.00000  Uiso   1.00
C227   C     0.93599   0.01090   0.43108   0.00000  Uiso   1.00
C228   C     0.89460   0.48033   0.42841   0.00000  Uiso   1.00
C229   C     0.87394   0.46084   0.38461   0.00000  Uiso   1.00
H230   H     0.95329   0.01159   0.31484   0.00000  Uiso   1.00
H231   H     0.98895   0.04567   0.39204   0.00000  Uiso   1.00
H232   H     0.95190   0.02598   0.46502   0.00000  Uiso   1.00
H233   H     0.87840   0.47180   0.46030   0.00000  Uiso   1.00
H234   H     0.84147   0.43758   0.38320   0.00000  Uiso   1.00
C235   C     0.16743   0.66381   0.24999   0.00000  Uiso   1.00
C236   C     0.16773   0.83626   0.25029   0.00000  Uiso   1.00
C237   C     0.12577   0.72969   0.04689   0.00000  Uiso   1.00
C238   C     0.18895   0.78560   0.45065   0.00000  Uiso   1.00
C239   C     0.12665   0.72994   0.09664   0.00000  Uiso   1.00
C240   C     0.18870   0.78485   0.40098   0.00000  Uiso   1.00
C241   C     0.20665   0.77007   0.10783   0.00000  Uiso   1.00
C242   C     0.14456   0.71521   0.39454   0.00000  Uiso   1.00
C243   C     0.20749   0.77034   0.05832   0.00000  Uiso   1.00
C244   C     0.14426   0.71448   0.44412   0.00000  Uiso   1.00
C245   C     0.16662   0.75002   0.02668   0.00000  Uiso   1.00
C246   C     0.16660   0.75004   0.47331   0.00000  Uiso   1.00
C247   C     0.06699   0.74998   0.23751   0.00000  Uiso   1.00
C248   C     0.26634   0.75000   0.26248   0.00000  Uiso   1.00
C249   C     0.01195   0.74996   0.23077   0.00000  Uiso   1.00
C250   C     0.32137   0.74996   0.26921   0.00000  Uiso   1.00
C251   C     0.15967   0.54526   0.28586   0.00000  Uiso   1.00
C252   C     0.16776   0.95480   0.21161   0.00000  Uiso   1.00
C253   C     0.15237   0.59096   0.28436   0.00000  Uiso   1.00
C254   C     0.16041   0.90907   0.21025   0.00000  Uiso   1.00
C255   C     0.17369   0.61601   0.25067   0.00000  Uiso   1.00
C256   C     0.17442   0.88418   0.25170   0.00000  Uiso   1.00
C257   C     0.20347   0.59573   0.21913   0.00000  Uiso   1.00
C258   C     0.19704   0.90486   0.29434   0.00000  Uiso   1.00
C259   C     0.21233   0.54972   0.22086   0.00000  Uiso   1.00
C260   C     0.20532   0.95094   0.29629   0.00000  Uiso   1.00
C261   C     0.18971   0.52447   0.25471   0.00000  Uiso   1.00
C262   C     0.19017   0.97591   0.25412   0.00000  Uiso   1.00
H263   H     0.32461   0.74996   0.19432   0.00000  Uiso   1.00
H264   H     0.00872   0.74995   0.30566   0.00000  Uiso   1.00
H265   H     0.14072   0.52584   0.31063   0.00000  Uiso   1.00
H266   H     0.15438   0.97402   0.17974   0.00000  Uiso   1.00
H267   H     0.12919   0.60663   0.30876   0.00000  Uiso   1.00
H268   H     0.14277   0.89332   0.17714   0.00000  Uiso   1.00
H269   H     0.22089   0.61598   0.19396   0.00000  Uiso   1.00
H270   H     0.20900   0.88496   0.32604   0.00000  Uiso   1.00
H271   H     0.09281   0.71419   0.02451   0.00000  Uiso   1.00
H272   H     0.20591   0.81425   0.47089   0.00000  Uiso   1.00
H273   H     0.09506   0.71417   0.11161   0.00000  Uiso   1.00
H274   H     0.20608   0.81235   0.38416   0.00000  Uiso   1.00
H275   H     0.23824   0.78590   0.13161   0.00000  Uiso   1.00
H276   H     0.12715   0.68771   0.37265   0.00000  Uiso   1.00
H277   H     0.24042   0.78586   0.04517   0.00000  Uiso   1.00
H278   H     0.12726   0.68585   0.45940   0.00000  Uiso   1.00
N279   N     0.16667   0.74999   0.12623   0.00000  Uiso   1.00
N280   N     0.16667   0.75001   0.37376   0.00000  Uiso   1.00
O281   O     0.16667   0.68453   0.28974   0.00000  Uiso   1.00
O282   O     0.16666   0.81547   0.21026   0.00000  Uiso   1.00
O283   O     0.16667   0.68453   0.21026   0.00000  Uiso   1.00
O284   O     0.16666   0.81547   0.28974   0.00000  Uiso   1.00
O285   O     0.09058   0.75000   0.28044   0.00000  Uiso   1.00
O286   O     0.24275   0.75000   0.21955   0.00000  Uiso   1.00
O287   O     0.09058   0.75000   0.20096   0.00000  Uiso   1.00
O288   O     0.24275   0.75000   0.29903   0.00000  Uiso   1.00
Zn289  Zn    0.16667   0.75000   0.30307   0.00000  Uiso   1.00
Zn290  Zn    0.16667   0.74999   0.19693   0.00000  Uiso   1.00
C291   C     0.24401   0.52921   0.18651   0.00000  Uiso   1.00
C292   C     0.28568   0.99973   0.20209   0.00000  Uiso   1.00
C293   C     0.31517   0.98089   0.16947   0.00000  Uiso   1.00
C294   C     0.30345   0.99122   0.12101   0.00000  Uiso   1.00
C295   C     0.26224   0.52047   0.10508   0.00000  Uiso   1.00
C296   C     0.23270   0.53946   0.13759   0.00000  Uiso   1.00
H297   H     0.29564   0.99135   0.23937   0.00000  Uiso   1.00
H298   H     0.01386   0.95829   0.18180   0.00000  Uiso   1.00
H299   H     0.32630   0.97658   0.09581   0.00000  Uiso   1.00
H300   H     0.25313   0.52840   0.06750   0.00000  Uiso   1.00
H301   H     0.20063   0.56179   0.12452   0.00000  Uiso   1.00
C302   C     0.22786   0.97182   0.34284   0.00000  Uiso   1.00
C303   C     0.26968   0.50257   0.34605   0.00000  Uiso   1.00
C304   C     0.29017   0.52200   0.38994   0.00000  Uiso   1.00
C305   C     0.26932   0.51090   0.43108   0.00000  Uiso   1.00
C306   C     0.22793   0.98033   0.42841   0.00000  Uiso   1.00
C307   C     0.20728   0.96084   0.38461   0.00000  Uiso   1.00
H308   H     0.28662   0.51159   0.31484   0.00000  Uiso   1.00
H309   H     0.32228   0.54567   0.39204   0.00000  Uiso   1.00
H310   H     0.28523   0.52598   0.46502   0.00000  Uiso   1.00
H311   H     0.21173   0.97180   0.46030   0.00000  Uiso   1.00
H312   H     0.17480   0.93758   0.38320   0.00000  Uiso   1.00
C313   C     0.50076   0.66381   0.24999   0.00000  Uiso   1.00
C314   C     0.50106   0.83626   0.25029   0.00000  Uiso   1.00
C315   C     0.45910   0.72969   0.04689   0.00000  Uiso   1.00
C316   C     0.52228   0.78560   0.45065   0.00000  Uiso   1.00
C317   C     0.45998   0.72994   0.09664   0.00000  Uiso   1.00
C318   C     0.52203   0.78485   0.40098   0.00000  Uiso   1.00
C319   C     0.53999   0.77007   0.10783   0.00000  Uiso   1.00
C320   C     0.47789   0.71521   0.39454   0.00000  Uiso   1.00
C321   C     0.54082   0.77034   0.05832   0.00000  Uiso   1.00
C322   C     0.47759   0.71448   0.44412   0.00000  Uiso   1.00
C323   C     0.49995   0.75002   0.02668   0.00000  Uiso   1.00
C324   C     0.49994   0.75004   0.47331   0.00000  Uiso   1.00
C325   C     0.40032   0.74998   0.23751   0.00000  Uiso   1.00
C326   C     0.59968   0.75000   0.26248   0.00000  Uiso   1.00
C327   C     0.34529   0.74996   0.23077   0.00000  Uiso   1.00
C328   C     0.65471   0.74996   0.26921   0.00000  Uiso   1.00
C329   C     0.49300   0.54526   0.28586   0.00000  Uiso   1.00
C330   C     0.50110   0.95480   0.21161   0.00000  Uiso   1.00
C331   C     0.48570   0.59096   0.28436   0.00000  Uiso   1.00
C332   C     0.49374   0.90907   0.21025   0.00000  Uiso   1.00
C333   C     0.50702   0.61601   0.25067   0.00000  Uiso   1.00
C334   C     0.50775   0.88418   0.25170   0.00000  Uiso   1.00
C335   C     0.53681   0.59573   0.21913   0.00000  Uiso   1.00
C336   C     0.53038   0.90486   0.29434   0.00000  Uiso   1.00
C337   C     0.54566   0.54972   0.22086   0.00000  Uiso   1.00
C338   C     0.53865   0.95094   0.29629   0.00000  Uiso   1.00
C339   C     0.52304   0.52447   0.25471   0.00000  Uiso   1.00
C340   C     0.52350   0.97591   0.25412   0.00000  Uiso   1.00
H341   H     0.65794   0.74996   0.19432   0.00000  Uiso   1.00
H342   H     0.34206   0.74995   0.30566   0.00000  Uiso   1.00
H343   H     0.47406   0.52584   0.31063   0.00000  Uiso   1.00
H344   H     0.48771   0.97402   0.17974   0.00000  Uiso   1.00
H345   H     0.46253   0.60663   0.30876   0.00000  Uiso   1.00
H346   H     0.47611   0.89332   0.17714   0.00000  Uiso   1.00
H347   H     0.55422   0.61598   0.19396   0.00000  Uiso   1.00
H348   H     0.54233   0.88496   0.32604   0.00000  Uiso   1.00
H349   H     0.42615   0.71419   0.02451   0.00000  Uiso   1.00
H350   H     0.53925   0.81425   0.47089   0.00000  Uiso   1.00
H351   H     0.42839   0.71417   0.11161   0.00000  Uiso   1.00
H352   H     0.53941   0.81235   0.38416   0.00000  Uiso   1.00
H353   H     0.57158   0.78590   0.13161   0.00000  Uiso   1.00
H354   H     0.46048   0.68771   0.37265   0.00000  Uiso   1.00
H355   H     0.57375   0.78586   0.04517   0.00000  Uiso   1.00
H356   H     0.46059   0.68585   0.45940   0.00000  Uiso   1.00
N357   N     0.50000   0.74999   0.12623   0.00000  Uiso   1.00
N358   N     0.50000   0.75001   0.37376   0.00000  Uiso   1.00
O359   O     0.50000   0.68453   0.28974   0.00000  Uiso   1.00
O360   O     0.50000   0.81547   0.21026   0.00000  Uiso   1.00
O361   O     0.50000   0.68453   0.21026   0.00000  Uiso   1.00
O362   O     0.50000   0.81547   0.28974   0.00000  Uiso   1.00
O363   O     0.42392   0.75000   0.28044   0.00000  Uiso   1.00
O364   O     0.57608   0.75000   0.21955   0.00000  Uiso   1.00
O365   O     0.42392   0.75000   0.20096   0.00000  Uiso   1.00
O366   O     0.57608   0.75000   0.29903   0.00000  Uiso   1.00
Zn367  Zn    0.50000   0.75000   0.30307   0.00000  Uiso   1.00
Zn368  Zn    0.50000   0.74999   0.19693   0.00000  Uiso   1.00
C369   C     0.57735   0.52921   0.18651   0.00000  Uiso   1.00
C370   C     0.61901   0.99973   0.20209   0.00000  Uiso   1.00
C371   C     0.64850   0.98089   0.16947   0.00000  Uiso   1.00
C372   C     0.63678   0.99122   0.12101   0.00000  Uiso   1.00
C373   C     0.59557   0.52047   0.10508   0.00000  Uiso   1.00
C374   C     0.56603   0.53946   0.13759   0.00000  Uiso   1.00
H375   H     0.62897   0.99135   0.23937   0.00000  Uiso   1.00
H376   H     0.34719   0.95829   0.18180   0.00000  Uiso   1.00
H377   H     0.65963   0.97658   0.09581   0.00000  Uiso   1.00
H378   H     0.58646   0.52840   0.06750   0.00000  Uiso   1.00
H379   H     0.53397   0.56179   0.12452   0.00000  Uiso   1.00
C380   C     0.56119   0.97182   0.34284   0.00000  Uiso   1.00
C381   C     0.60302   0.50257   0.34605   0.00000  Uiso   1.00
C382   C     0.62350   0.52200   0.38994   0.00000  Uiso   1.00
C383   C     0.60266   0.51090   0.43108   0.00000  Uiso   1.00
C384   C     0.56126   0.98033   0.42841   0.00000  Uiso   1.00
C385   C     0.54061   0.96084   0.38461   0.00000  Uiso   1.00
H386   H     0.61995   0.51159   0.31484   0.00000  Uiso   1.00
H387   H     0.65562   0.54567   0.39204   0.00000  Uiso   1.00
H388   H     0.61857   0.52598   0.46502   0.00000  Uiso   1.00
H389   H     0.54507   0.97180   0.46030   0.00000  Uiso   1.00
H390   H     0.50814   0.93758   0.38320   0.00000  Uiso   1.00
C391   C     0.83409   0.66381   0.24999   0.00000  Uiso   1.00
C392   C     0.83439   0.83626   0.25029   0.00000  Uiso   1.00
C393   C     0.79244   0.72969   0.04689   0.00000  Uiso   1.00
C394   C     0.85561   0.78560   0.45065   0.00000  Uiso   1.00
C395   C     0.79331   0.72994   0.09664   0.00000  Uiso   1.00
C396   C     0.85537   0.78485   0.40098   0.00000  Uiso   1.00
C397   C     0.87332   0.77007   0.10783   0.00000  Uiso   1.00
C398   C     0.81122   0.71521   0.39454   0.00000  Uiso   1.00
C399   C     0.87416   0.77034   0.05832   0.00000  Uiso   1.00
C400   C     0.81093   0.71448   0.44412   0.00000  Uiso   1.00
C401   C     0.83329   0.75002   0.02668   0.00000  Uiso   1.00
C402   C     0.83327   0.75004   0.47331   0.00000  Uiso   1.00
C403   C     0.73366   0.74998   0.23751   0.00000  Uiso   1.00
C404   C     0.93301   0.75000   0.26248   0.00000  Uiso   1.00
C405   C     0.67862   0.74996   0.23077   0.00000  Uiso   1.00
C406   C     0.98804   0.74996   0.26921   0.00000  Uiso   1.00
C407   C     0.82634   0.54526   0.28586   0.00000  Uiso   1.00
C408   C     0.83443   0.95480   0.21161   0.00000  Uiso   1.00
C409   C     0.81904   0.59096   0.28436   0.00000  Uiso   1.00
C410   C     0.82707   0.90907   0.21025   0.00000  Uiso   1.00
C411   C     0.84036   0.61601   0.25067   0.00000  Uiso   1.00
C412   C     0.84109   0.88418   0.25170   0.00000  Uiso   1.00
C413   C     0.87014   0.59573   0.21913   0.00000  Uiso   1.00
C414   C     0.86371   0.90486   0.29434   0.00000  Uiso   1.00
C415   C     0.87900   0.54972   0.22086   0.00000  Uiso   1.00
C416   C     0.87198   0.95094   0.29629   0.00000  Uiso   1.00
C417   C     0.85638   0.52447   0.25471   0.00000  Uiso   1.00
C418   C     0.85683   0.97591   0.25412   0.00000  Uiso   1.00
H419   H     0.99127   0.74996   0.19432   0.00000  Uiso   1.00
H420   H     0.67539   0.74995   0.30566   0.00000  Uiso   1.00
H421   H     0.80739   0.52584   0.31063   0.00000  Uiso   1.00
H422   H     0.82105   0.97402   0.17974   0.00000  Uiso   1.00
H423   H     0.79586   0.60663   0.30876   0.00000  Uiso   1.00
H424   H     0.80944   0.89332   0.17714   0.00000  Uiso   1.00
H425   H     0.88755   0.61598   0.19396   0.00000  Uiso   1.00
H426   H     0.87567   0.88496   0.32604   0.00000  Uiso   1.00
H427   H     0.75948   0.71419   0.02451   0.00000  Uiso   1.00
H428   H     0.87258   0.81425   0.47089   0.00000  Uiso   1.00
H429   H     0.76172   0.71417   0.11161   0.00000  Uiso   1.00
H430   H     0.87274   0.81235   0.38416   0.00000  Uiso   1.00
H431   H     0.90491   0.78590   0.13161   0.00000  Uiso   1.00
H432   H     0.79381   0.68771   0.37265   0.00000  Uiso   1.00
H433   H     0.90709   0.78586   0.04517   0.00000  Uiso   1.00
H434   H     0.79393   0.68585   0.45940   0.00000  Uiso   1.00
N435   N     0.83333   0.74999   0.12623   0.00000  Uiso   1.00
N436   N     0.83333   0.75001   0.37376   0.00000  Uiso   1.00
O437   O     0.83334   0.68453   0.28974   0.00000  Uiso   1.00
O438   O     0.83333   0.81547   0.21026   0.00000  Uiso   1.00
O439   O     0.83334   0.68453   0.21026   0.00000  Uiso   1.00
O440   O     0.83333   0.81547   0.28974   0.00000  Uiso   1.00
O441   O     0.75725   0.75000   0.28044   0.00000  Uiso   1.00
O442   O     0.90942   0.75000   0.21955   0.00000  Uiso   1.00
O443   O     0.75725   0.75000   0.20096   0.00000  Uiso   1.00
O444   O     0.90942   0.75000   0.29903   0.00000  Uiso   1.00
Zn445  Zn    0.83333   0.75000   0.30307   0.00000  Uiso   1.00
Zn446  Zn    0.83333   0.74999   0.19693   0.00000  Uiso   1.00
C447   C     0.91068   0.52921   0.18651   0.00000  Uiso   1.00
C448   C     0.95235   0.99973   0.20209   0.00000  Uiso   1.00
C449   C     0.98184   0.98089   0.16947   0.00000  Uiso   1.00
C450   C     0.97012   0.99122   0.12101   0.00000  Uiso   1.00
C451   C     0.92891   0.52047   0.10508   0.00000  Uiso   1.00
C452   C     0.89937   0.53946   0.13759   0.00000  Uiso   1.00
H453   H     0.96231   0.99135   0.23937   0.00000  Uiso   1.00
H454   H     0.68053   0.95829   0.18180   0.00000  Uiso   1.00
H455   H     0.99297   0.97658   0.09581   0.00000  Uiso   1.00
H456   H     0.91979   0.52840   0.06750   0.00000  Uiso   1.00
H457   H     0.86730   0.56179   0.12452   0.00000  Uiso   1.00
C458   C     0.89453   0.97182   0.34284   0.00000  Uiso   1.00
C459   C     0.93635   0.50257   0.34605   0.00000  Uiso   1.00
C460   C     0.95683   0.52200   0.38994   0.00000  Uiso   1.00
C461   C     0.93599   0.51090   0.43108   0.00000  Uiso   1.00
C462   C     0.89460   0.98033   0.42841   0.00000  Uiso   1.00
C463   C     0.87394   0.96084   0.38461   0.00000  Uiso   1.00
H464   H     0.95329   0.51159   0.31484   0.00000  Uiso   1.00
H465   H     0.98895   0.54567   0.39204   0.00000  Uiso   1.00
H466   H     0.95190   0.52598   0.46502   0.00000  Uiso   1.00
H467   H     0.87840   0.97180   0.46030   0.00000  Uiso   1.00
H468   H     0.84147   0.93758   0.38320   0.00000  Uiso   1.00
C469   C     0.16743   0.16381   0.74999   0.00000  Uiso   1.00
C470   C     0.16773   0.33626   0.75029   0.00000  Uiso   1.00
C471   C     0.12577   0.22969   0.54689   0.00000  Uiso   1.00
C472   C     0.18895   0.28560   0.95065   0.00000  Uiso   1.00
C473   C     0.12665   0.22994   0.59664   0.00000  Uiso   1.00
C474   C     0.18870   0.28485   0.90098   0.00000  Uiso   1.00
C475   C     0.20665   0.27007   0.60783   0.00000  Uiso   1.00
C476   C     0.14456   0.21521   0.89454   0.00000  Uiso   1.00
C477   C     0.20749   0.27034   0.55832   0.00000  Uiso   1.00
C478   C     0.14426   0.21448   0.94412   0.00000  Uiso   1.00
C479   C     0.16662   0.25002   0.52668   0.00000  Uiso   1.00
C480   C     0.16660   0.25004   0.97331   0.00000  Uiso   1.00
C481   C     0.06699   0.24998   0.73751   0.00000  Uiso   1.00
C482   C     0.26634   0.25000   0.76248   0.00000  Uiso   1.00
C483   C     0.01195   0.24996   0.73077   0.00000  Uiso   1.00
C484   C     0.32137   0.24996   0.76921   0.00000  Uiso   1.00
C485   C     0.15967   0.04526   0.78586   0.00000  Uiso   1.00
C486   C     0.16776   0.45480   0.71161   0.00000  Uiso   1.00
C487   C     0.15237   0.09096   0.78436   0.00000  Uiso   1.00
C488   C     0.16041   0.40907   0.71025   0.00000  Uiso   1.00
C489   C     0.17369   0.11601   0.75067   0.00000  Uiso   1.00
C490   C     0.17442   0.38418   0.75170   0.00000  Uiso   1.00
C491   C     0.20347   0.09573   0.71913   0.00000  Uiso   1.00
C492   C     0.19704   0.40486   0.79434   0.00000  Uiso   1.00
C493   C     0.21233   0.04972   0.72086   0.00000  Uiso   1.00
C494   C     0.20532   0.45094   0.79629   0.00000  Uiso   1.00
C495   C     0.18971   0.02447   0.75471   0.00000  Uiso   1.00
C496   C     0.19017   0.47591   0.75412   0.00000  Uiso   1.00
H497   H     0.32461   0.24996   0.69432   0.00000  Uiso   1.00
H498   H     0.00872   0.24995   0.80566   0.00000  Uiso   1.00
H499   H     0.14072   0.02584   0.81063   0.00000  Uiso   1.00
H500   H     0.15438   0.47402   0.67974   0.00000  Uiso   1.00
H501   H     0.12919   0.10663   0.80876   0.00000  Uiso   1.00
H502   H     0.14277   0.39332   0.67714   0.00000  Uiso   1.00
H503   H     0.22089   0.11598   0.69396   0.00000  Uiso   1.00
H504   H     0.20900   0.38496   0.82604   0.00000  Uiso   1.00
H505   H     0.09281   0.21419   0.52451   0.00000  Uiso   1.00
H506   H     0.20591   0.31425   0.97089   0.00000  Uiso   1.00
H507   H     0.09506   0.21417   0.61161   0.00000  Uiso   1.00
H508   H     0.20608   0.31235   0.88416   0.00000  Uiso   1.00
H509   H     0.23824   0.28590   0.63161   0.00000  Uiso   1.00
H510   H     0.12715   0.18771   0.87265   0.00000  Uiso   1.00
H511   H     0.24042   0.28586   0.54517   0.00000  Uiso   1.00
H512   H     0.12726   0.18585   0.95940   0.00000  Uiso   1.00
N513   N     0.16667   0.24999   0.62623   0.00000  Uiso   1.00
N514   N     0.16667   0.25001   0.87376   0.00000  Uiso   1.00
O515   O     0.16667   0.18453   0.78974   0.00000  Uiso   1.00
O516   O     0.16666   0.31547   0.71026   0.00000  Uiso   1.00
O517   O     0.16667   0.18453   0.71026   0.00000  Uiso   1.00
O518   O     0.16666   0.31547   0.78974   0.00000  Uiso   1.00
O519   O     0.09058   0.25000   0.78044   0.00000  Uiso   1.00
O520   O     0.24275   0.25000   0.71955   0.00000  Uiso   1.00
O521   O     0.09058   0.25000   0.70096   0.00000  Uiso   1.00
O522   O     0.24275   0.25000   0.79903   0.00000  Uiso   1.00
Zn523  Zn    0.16667   0.25000   0.80307   0.00000  Uiso   1.00
Zn524  Zn    0.16667   0.24999   0.69693   0.00000  Uiso   1.00
C525   C     0.24401   0.02921   0.68651   0.00000  Uiso   1.00
C526   C     0.28568   0.49973   0.70209   0.00000  Uiso   1.00
C527   C     0.31517   0.48089   0.66947   0.00000  Uiso   1.00
C528   C     0.30345   0.49122   0.62101   0.00000  Uiso   1.00
C529   C     0.26224   0.02047   0.60508   0.00000  Uiso   1.00
C530   C     0.23270   0.03946   0.63759   0.00000  Uiso   1.00
H531   H     0.29564   0.49135   0.73937   0.00000  Uiso   1.00
H532   H     0.01386   0.45829   0.68180   0.00000  Uiso   1.00
H533   H     0.32630   0.47658   0.59581   0.00000  Uiso   1.00
H534   H     0.25313   0.02840   0.56750   0.00000  Uiso   1.00
H535   H     0.20063   0.06179   0.62452   0.00000  Uiso   1.00
C536   C     0.22786   0.47182   0.84284   0.00000  Uiso   1.00
C537   C     0.26968   0.00257   0.84605   0.00000  Uiso   1.00
C538   C     0.29017   0.02200   0.88994   0.00000  Uiso   1.00
C539   C     0.26932   0.01090   0.93108   0.00000  Uiso   1.00
C540   C     0.22793   0.48033   0.92841   0.00000  Uiso   1.00
C541   C     0.20728   0.46084   0.88461   0.00000  Uiso   1.00
H542   H     0.28662   0.01159   0.81484   0.00000  Uiso   1.00
H543   H     0.32228   0.04567   0.89204   0.00000  Uiso   1.00
H544   H     0.28523   0.02598   0.96502   0.00000  Uiso   1.00
H545   H     0.21173   0.47180   0.96030   0.00000  Uiso   1.00
H546   H     0.17480   0.43758   0.88320   0.00000  Uiso   1.00
C547   C     0.50076   0.16381   0.74999   0.00000  Uiso   1.00
C548   C     0.50106   0.33626   0.75029   0.00000  Uiso   1.00
C549   C     0.45910   0.22969   0.54689   0.00000  Uiso   1.00
C550   C     0.52228   0.28560   0.95065   0.00000  Uiso   1.00
C551   C     0.45998   0.22994   0.59664   0.00000  Uiso   1.00
C552   C     0.52203   0.28485   0.90098   0.00000  Uiso   1.00
C553   C     0.53999   0.27007   0.60783   0.00000  Uiso   1.00
C554   C     0.47789   0.21521   0.89454   0.00000  Uiso   1.00
C555   C     0.54082   0.27034   0.55832   0.00000  Uiso   1.00
C556   C     0.47759   0.21448   0.94412   0.00000  Uiso   1.00
C557   C     0.49995   0.25002   0.52668   0.00000  Uiso   1.00
C558   C     0.49994   0.25004   0.97331   0.00000  Uiso   1.00
C559   C     0.40032   0.24998   0.73751   0.00000  Uiso   1.00
C560   C     0.59968   0.25000   0.76248   0.00000  Uiso   1.00
C561   C     0.34529   0.24996   0.73077   0.00000  Uiso   1.00
C562   C     0.65471   0.24996   0.76921   0.00000  Uiso   1.00
C563   C     0.49300   0.04526   0.78586   0.00000  Uiso   1.00
C564   C     0.50110   0.45480   0.71161   0.00000  Uiso   1.00
C565   C     0.48570   0.09096   0.78436   0.00000  Uiso   1.00
C566   C     0.49374   0.40907   0.71025   0.00000  Uiso   1.00
C567   C     0.50702   0.11601   0.75067   0.00000  Uiso   1.00
C568   C     0.50775   0.38418   0.75170   0.00000  Uiso   1.00
C569   C     0.53681   0.09573   0.71913   0.00000  Uiso   1.00
C570   C     0.53038   0.40486   0.79434   0.00000  Uiso   1.00
C571   C     0.54566   0.04972   0.72086   0.00000  Uiso   1.00
C572   C     0.53865   0.45094   0.79629   0.00000  Uiso   1.00
C573   C     0.52304   0.02447   0.75471   0.00000  Uiso   1.00
C574   C     0.52350   0.47591   0.75412   0.00000  Uiso   1.00
H575   H     0.65794   0.24996   0.69432   0.00000  Uiso   1.00
H576   H     0.34206   0.24995   0.80566   0.00000  Uiso   1.00
H577   H     0.47406   0.02584   0.81063   0.00000  Uiso   1.00
H578   H     0.48771   0.47402   0.67974   0.00000  Uiso   1.00
H579   H     0.46253   0.10663   0.80876   0.00000  Uiso   1.00
H580   H     0.47611   0.39332   0.67714   0.00000  Uiso   1.00
H581   H     0.55422   0.11598   0.69396   0.00000  Uiso   1.00
H582   H     0.54233   0.38496   0.82604   0.00000  Uiso   1.00
H583   H     0.42615   0.21419   0.52451   0.00000  Uiso   1.00
H584   H     0.53925   0.31425   0.97089   0.00000  Uiso   1.00
H585   H     0.42839   0.21417   0.61161   0.00000  Uiso   1.00
H586   H     0.53941   0.31235   0.88416   0.00000  Uiso   1.00
H587   H     0.57158   0.28590   0.63161   0.00000  Uiso   1.00
H588   H     0.46048   0.18771   0.87265   0.00000  Uiso   1.00
H589   H     0.57375   0.28586   0.54517   0.00000  Uiso   1.00
H590   H     0.46059   0.18585   0.95940   0.00000  Uiso   1.00
N591   N     0.50000   0.24999   0.62623   0.00000  Uiso   1.00
N592   N     0.50000   0.25001   0.87376   0.00000  Uiso   1.00
O593   O     0.50000   0.18453   0.78974   0.00000  Uiso   1.00
O594   O     0.50000   0.31547   0.71026   0.00000  Uiso   1.00
O595   O     0.50000   0.18453   0.71026   0.00000  Uiso   1.00
O596   O     0.50000   0.31547   0.78974   0.00000  Uiso   1.00
O597   O     0.42392   0.25000   0.78044   0.00000  Uiso   1.00
O598   O     0.57608   0.25000   0.71955   0.00000  Uiso   1.00
O599   O     0.42392   0.25000   0.70096   0.00000  Uiso   1.00
O600   O     0.57608   0.25000   0.79903   0.00000  Uiso   1.00
Zn601  Zn    0.50000   0.25000   0.80307   0.00000  Uiso   1.00
Zn602  Zn    0.50000   0.24999   0.69693   0.00000  Uiso   1.00
C603   C     0.57735   0.02921   0.68651   0.00000  Uiso   1.00
C604   C     0.61901   0.49973   0.70209   0.00000  Uiso   1.00
C605   C     0.64850   0.48089   0.66947   0.00000  Uiso   1.00
C606   C     0.63678   0.49122   0.62101   0.00000  Uiso   1.00
C607   C     0.59557   0.02047   0.60508   0.00000  Uiso   1.00
C608   C     0.56603   0.03946   0.63759   0.00000  Uiso   1.00
H609   H     0.62897   0.49135   0.73937   0.00000  Uiso   1.00
H610   H     0.34719   0.45829   0.68180   0.00000  Uiso   1.00
H611   H     0.65963   0.47658   0.59581   0.00000  Uiso   1.00
H612   H     0.58646   0.02840   0.56750   0.00000  Uiso   1.00
H613   H     0.53397   0.06179   0.62452   0.00000  Uiso   1.00
C614   C     0.56119   0.47182   0.84284   0.00000  Uiso   1.00
C615   C     0.60302   0.00257   0.84605   0.00000  Uiso   1.00
C616   C     0.62350   0.02200   0.88994   0.00000  Uiso   1.00
C617   C     0.60266   0.01090   0.93108   0.00000  Uiso   1.00
C618   C     0.56126   0.48033   0.92841   0.00000  Uiso   1.00
C619   C     0.54061   0.46084   0.88461   0.00000  Uiso   1.00
H620   H     0.61995   0.01159   0.81484   0.00000  Uiso   1.00
H621   H     0.65562   0.04567   0.89204   0.00000  Uiso   1.00
H622   H     0.61857   0.02598   0.96502   0.00000  Uiso   1.00
H623   H     0.54507   0.47180   0.96030   0.00000  Uiso   1.00
H624   H     0.50814   0.43758   0.88320   0.00000  Uiso   1.00
C625   C     0.83409   0.16381   0.74999   0.00000  Uiso   1.00
C626   C     0.83439   0.33626   0.75029   0.00000  Uiso   1.00
C627   C     0.79244   0.22969   0.54689   0.00000  Uiso   1.00
C628   C     0.85561   0.28560   0.95065   0.00000  Uiso   1.00
C629   C     0.79331   0.22994   0.59664   0.00000  Uiso   1.00
C630   C     0.85537   0.28485   0.90098   0.00000  Uiso   1.00
C631   C     0.87332   0.27007   0.60783   0.00000  Uiso   1.00
C632   C     0.81122   0.21521   0.89454   0.00000  Uiso   1.00
C633   C     0.87416   0.27034   0.55832   0.00000  Uiso   1.00
C634   C     0.81093   0.21448   0.94412   0.00000  Uiso   1.00
C635   C     0.83329   0.25002   0.52668   0.00000  Uiso   1.00
C636   C     0.83327   0.25004   0.97331   0.00000  Uiso   1.00
C637   C     0.73366   0.24998   0.73751   0.00000  Uiso   1.00
C638   C     0.93301   0.25000   0.76248   0.00000  Uiso   1.00
C639   C     0.67862   0.24996   0.73077   0.00000  Uiso   1.00
C640   C     0.98804   0.24996   0.76921   0.00000  Uiso   1.00
C641   C     0.82634   0.04526   0.78586   0.00000  Uiso   1.00
C642   C     0.83443   0.45480   0.71161   0.00000  Uiso   1.00
C643   C     0.81904   0.09096   0.78436   0.00000  Uiso   1.00
C644   C     0.82707   0.40907   0.71025   0.00000  Uiso   1.00
C645   C     0.84036   0.11601   0.75067   0.00000  Uiso   1.00
C646   C     0.84109   0.38418   0.75170   0.00000  Uiso   1.00
C647   C     0.87014   0.09573   0.71913   0.00000  Uiso   1.00
C648   C     0.86371   0.40486   0.79434   0.00000  Uiso   1.00
C649   C     0.87900   0.04972   0.72086   0.00000  Uiso   1.00
C650   C     0.87198   0.45094   0.79629   0.00000  Uiso   1.00
C651   C     0.85638   0.02447   0.75471   0.00000  Uiso   1.00
C652   C     0.85683   0.47591   0.75412   0.00000  Uiso   1.00
H653   H     0.99127   0.24996   0.69432   0.00000  Uiso   1.00
H654   H     0.67539   0.24995   0.80566   0.00000  Uiso   1.00
H655   H     0.80739   0.02584   0.81063   0.00000  Uiso   1.00
H656   H     0.82105   0.47402   0.67974   0.00000  Uiso   1.00
H657   H     0.79586   0.10663   0.80876   0.00000  Uiso   1.00
H658   H     0.80944   0.39332   0.67714   0.00000  Uiso   1.00
H659   H     0.88755   0.11598   0.69396   0.00000  Uiso   1.00
H660   H     0.87567   0.38496   0.82604   0.00000  Uiso   1.00
H661   H     0.75948   0.21419   0.52451   0.00000  Uiso   1.00
H662   H     0.87258   0.31425   0.97089   0.00000  Uiso   1.00
H663   H     0.76172   0.21417   0.61161   0.00000  Uiso   1.00
H664   H     0.87274   0.31235   0.88416   0.00000  Uiso   1.00
H665   H     0.90491   0.28590   0.63161   0.00000  Uiso   1.00
H666   H     0.79381   0.18771   0.87265   0.00000  Uiso   1.00
H667   H     0.90709   0.28586   0.54517   0.00000  Uiso   1.00
H668   H     0.79393   0.18585   0.95940   0.00000  Uiso   1.00
N669   N     0.83333   0.24999   0.62623   0.00000  Uiso   1.00
N670   N     0.83333   0.25001   0.87376   0.00000  Uiso   1.00
O671   O     0.83334   0.18453   0.78974   0.00000  Uiso   1.00
O672   O     0.83333   0.31547   0.71026   0.00000  Uiso   1.00
O673   O     0.83334   0.18453   0.71026   0.00000  Uiso   1.00
O674   O     0.83333   0.31547   0.78974   0.00000  Uiso   1.00
O675   O     0.75725   0.25000   0.78044   0.00000  Uiso   1.00
O676   O     0.90942   0.25000   0.71955   0.00000  Uiso   1.00
O677   O     0.75725   0.25000   0.70096   0.00000  Uiso   1.00
O678   O     0.90942   0.25000   0.79903   0.00000  Uiso   1.00
Zn679  Zn    0.83333   0.25000   0.80307   0.00000  Uiso   1.00
Zn680  Zn    0.83333   0.24999   0.69693   0.00000  Uiso   1.00
C681   C     0.91068   0.02921   0.68651   0.00000  Uiso   1.00
C682   C     0.95235   0.49973   0.70209   0.00000  Uiso   1.00
C683   C     0.98184   0.48089   0.66947   0.00000  Uiso   1.00
C684   C     0.97012   0.49122   0.62101   0.00000  Uiso   1.00
C685   C     0.92891   0.02047   0.60508   0.00000  Uiso   1.00
C686   C     0.89937   0.03946   0.63759   0.00000  Uiso   1.00
H687   H     0.96231   0.49135   0.73937   0.00000  Uiso   1.00
H688   H     0.68053   0.45829   0.68180   0.00000  Uiso   1.00
H689   H     0.99297   0.47658   0.59581   0.00000  Uiso   1.00
H690   H     0.91979   0.02840   0.56750   0.00000  Uiso   1.00
H691   H     0.86730   0.06179   0.62452   0.00000  Uiso   1.00
C692   C     0.89453   0.47182   0.84284   0.00000  Uiso   1.00
C693   C     0.93635   0.00257   0.84605   0.00000  Uiso   1.00
C694   C     0.95683   0.02200   0.88994   0.00000  Uiso   1.00
C695   C     0.93599   0.01090   0.93108   0.00000  Uiso   1.00
C696   C     0.89460   0.48033   0.92841   0.00000  Uiso   1.00
C697   C     0.87394   0.46084   0.88461   0.00000  Uiso   1.00
H698   H     0.95329   0.01159   0.81484   0.00000  Uiso   1.00
H699   H     0.98895   0.04567   0.89204   0.00000  Uiso   1.00
H700   H     0.95190   0.02598   0.96502   0.00000  Uiso   1.00
H701   H     0.87840   0.47180   0.96030   0.00000  Uiso   1.00
H702   H     0.84147   0.43758   0.88320   0.00000  Uiso   1.00
C703   C     0.16743   0.66381   0.74999   0.00000  Uiso   1.00
C704   C     0.16773   0.83626   0.75029   0.00000  Uiso   1.00
C705   C     0.12577   0.72969   0.54689   0.00000  Uiso   1.00
C706   C     0.18895   0.78560   0.95065   0.00000  Uiso   1.00
C707   C     0.12665   0.72994   0.59664   0.00000  Uiso   1.00
C708   C     0.18870   0.78485   0.90098   0.00000  Uiso   1.00
C709   C     0.20665   0.77007   0.60783   0.00000  Uiso   1.00
C710   C     0.14456   0.71521   0.89454   0.00000  Uiso   1.00
C711   C     0.20749   0.77034   0.55832   0.00000  Uiso   1.00
C712   C     0.14426   0.71448   0.94412   0.00000  Uiso   1.00
C713   C     0.16662   0.75002   0.52668   0.00000  Uiso   1.00
C714   C     0.16660   0.75004   0.97331   0.00000  Uiso   1.00
C715   C     0.06699   0.74998   0.73751   0.00000  Uiso   1.00
C716   C     0.26634   0.75000   0.76248   0.00000  Uiso   1.00
C717   C     0.01195   0.74996   0.73077   0.00000  Uiso   1.00
C718   C     0.32137   0.74996   0.76921   0.00000  Uiso   1.00
C719   C     0.15967   0.54526   0.78586   0.00000  Uiso   1.00
C720   C     0.16776   0.95480   0.71161   0.00000  Uiso   1.00
C721   C     0.15237   0.59096   0.78436   0.00000  Uiso   1.00
C722   C     0.16041   0.90907   0.71025   0.00000  Uiso   1.00
C723   C     0.17369   0.61601   0.75067   0.00000  Uiso   1.00
C724   C     0.17442   0.88418   0.75170   0.00000  Uiso   1.00
C725   C     0.20347   0.59573   0.71913   0.00000  Uiso   1.00
C726   C     0.19704   0.90486   0.79434   0.00000  Uiso   1.00
C727   C     0.21233   0.54972   0.72086   0.00000  Uiso   1.00
C728   C     0.20532   0.95094   0.79629   0.00000  Uiso   1.00
C729   C     0.18971   0.52447   0.75471   0.00000  Uiso   1.00
C730   C     0.19017   0.97591   0.75412   0.00000  Uiso   1.00
H731   H     0.32461   0.74996   0.69432   0.00000  Uiso   1.00
H732   H     0.00872   0.74995   0.80566   0.00000  Uiso   1.00
H733   H     0.14072   0.52584   0.81063   0.00000  Uiso   1.00
H734   H     0.15438   0.97402   0.67974   0.00000  Uiso   1.00
H735   H     0.12919   0.60663   0.80876   0.00000  Uiso   1.00
H736   H     0.14277   0.89332   0.67714   0.00000  Uiso   1.00
H737   H     0.22089   0.61598   0.69396   0.00000  Uiso   1.00
H738   H     0.20900   0.88496   0.82604   0.00000  Uiso   1.00
H739   H     0.09281   0.71419   0.52451   0.00000  Uiso   1.00
H740   H     0.20591   0.81425   0.97089   0.00000  Uiso   1.00
H741   H     0.09506   0.71417   0.61161   0.00000  Uiso   1.00
H742   H     0.20608   0.81235   0.88416   0.00000  Uiso   1.00
H743   H     0.23824   0.78590   0.63161   0.00000  Uiso   1.00
H744   H     0.12715   0.68771   0.87265   0.00000  Uiso   1.00
H745   H     0.24042   0.78586   0.54517   0.00000  Uiso   1.00
H746   H     0.12726   0.68585   0.95940   0.00000  Uiso   1.00
N747   N     0.16667   0.74999   0.62623   0.00000  Uiso   1.00
N748   N     0.16667   0.75001   0.87376   0.00000  Uiso   1.00
O749   O     0.16667   0.68453   0.78974   0.00000  Uiso   1.00
O750   O     0.16666   0.81547   0.71026   0.00000  Uiso   1.00
O751   O     0.16667   0.68453   0.71026   0.00000  Uiso   1.00
O752   O     0.16666   0.81547   0.78974   0.00000  Uiso   1.00
O753   O     0.09058   0.75000   0.78044   0.00000  Uiso   1.00
O754   O     0.24275   0.75000   0.71955   0.00000  Uiso   1.00
O755   O     0.09058   0.75000   0.70096   0.00000  Uiso   1.00
O756   O     0.24275   0.75000   0.79903   0.00000  Uiso   1.00
Zn757  Zn    0.16667   0.75000   0.80307   0.00000  Uiso   1.00
Zn758  Zn    0.16667   0.74999   0.69693   0.00000  Uiso   1.00
C759   C     0.24401   0.52921   0.68651   0.00000  Uiso   1.00
C760   C     0.28568   0.99973   0.70209   0.00000  Uiso   1.00
C761   C     0.31517   0.98089   0.66947   0.00000  Uiso   1.00
C762   C     0.30345   0.99122   0.62101   0.00000  Uiso   1.00
C763   C     0.26224   0.52047   0.60508   0.00000  Uiso   1.00
C764   C     0.23270   0.53946   0.63759   0.00000  Uiso   1.00
H765   H     0.29564   0.99135   0.73937   0.00000  Uiso   1.00
H766   H     0.01386   0.95829   0.68180   0.00000  Uiso   1.00
H767   H     0.32630   0.97658   0.59581   0.00000  Uiso   1.00
H768   H     0.25313   0.52840   0.56750   0.00000  Uiso   1.00
H769   H     0.20063   0.56179   0.62452   0.00000  Uiso   1.00
C770   C     0.22786   0.97182   0.84284   0.00000  Uiso   1.00
C771   C     0.26968   0.50257   0.84605   0.00000  Uiso   1.00
C772   C     0.29017   0.52200   0.88994   0.00000  Uiso   1.00
C773   C     0.26932   0.51090   0.93108   0.00000  Uiso   1.00
C774   C     0.22793   0.98033   0.92841   0.00000  Uiso   1.00
C775   C     0.20728   0.96084   0.88461   0.00000  Uiso   1.00
H776   H     0.28662   0.51159   0.81484   0.00000  Uiso   1.00
H777   H     0.32228   0.54567   0.89204   0.00000  Uiso   1.00
H778   H     0.28523   0.52598   0.96502   0.00000  Uiso   1.00
H779   H     0.21173   0.97180   0.96030   0.00000  Uiso   1.00
H780   H     0.17480   0.93758   0.88320   0.00000  Uiso   1.00
C781   C     0.50076   0.66381   0.74999   0.00000  Uiso   1.00
C782   C     0.50106   0.83626   0.75029   0.00000  Uiso   1.00
C783   C     0.45910   0.72969   0.54689   0.00000  Uiso   1.00
C784   C     0.52228   0.78560   0.95065   0.00000  Uiso   1.00
C785   C     0.45998   0.72994   0.59664   0.00000  Uiso   1.00
C786   C     0.52203   0.78485   0.90098   0.00000  Uiso   1.00
C787   C     0.53999   0.77007   0.60783   0.00000  Uiso   1.00
C788   C     0.47789   0.71521   0.89454   0.00000  Uiso   1.00
C789   C     0.54082   0.77034   0.55832   0.00000  Uiso   1.00
C790   C     0.47759   0.71448   0.94412   0.00000  Uiso   1.00
C791   C     0.49995   0.75002   0.52668   0.00000  Uiso   1.00
C792   C     0.49994   0.75004   0.97331   0.00000  Uiso   1.00
C793   C     0.40032   0.74998   0.73751   0.00000  Uiso   1.00
C794   C     0.59968   0.75000   0.76248   0.00000  Uiso   1.00
C795   C     0.34529   0.74996   0.73077   0.00000  Uiso   1.00
C796   C     0.65471   0.74996   0.76921   0.00000  Uiso   1.00
C797   C     0.49300   0.54526   0.78586   0.00000  Uiso   1.00
C798   C     0.50110   0.95480   0.71161   0.00000  Uiso   1.00
C799   C     0.48570   0.59096   0.78436   0.00000  Uiso   1.00
C800   C     0.49374   0.90907   0.71025   0.00000  Uiso   1.00
C801   C     0.50702   0.61601   0.75067   0.00000  Uiso   1.00
C802   C     0.50775   0.88418   0.75170   0.00000  Uiso   1.00
C803   C     0.53681   0.59573   0.71913   0.00000  Uiso   1.00
C804   C     0.53038   0.90486   0.79434   0.00000  Uiso   1.00
C805   C     0.54566   0.54972   0.72086   0.00000  Uiso   1.00
C806   C     0.53865   0.95094   0.79629   0.00000  Uiso   1.00
C807   C     0.52304   0.52447   0.75471   0.00000  Uiso   1.00
C808   C     0.52350   0.97591   0.75412   0.00000  Uiso   1.00
H809   H     0.65794   0.74996   0.69432   0.00000  Uiso   1.00
H810   H     0.34206   0.74995   0.80566   0.00000  Uiso   1.00
H811   H     0.47406   0.52584   0.81063   0.00000  Uiso   1.00
H812   H     0.48771   0.97402   0.67974   0.00000  Uiso   1.00
H813   H     0.46253   0.60663   0.80876   0.00000  Uiso   1.00
H814   H     0.47611   0.89332   0.67714   0.00000  Uiso   1.00
H815   H     0.55422   0.61598   0.69396   0.00000  Uiso   1.00
H816   H     0.54233   0.88496   0.82604   0.00000  Uiso   1.00
H817   H     0.42615   0.71419   0.52451   0.00000  Uiso   1.00
H818   H     0.53925   0.81425   0.97089   0.00000  Uiso   1.00
H819   H     0.42839   0.71417   0.61161   0.00000  Uiso   1.00
H820   H     0.53941   0.81235   0.88416   0.00000  Uiso   1.00
H821   H     0.57158   0.78590   0.63161   0.00000  Uiso   1.00
H822   H     0.46048   0.68771   0.87265   0.00000  Uiso   1.00
H823   H     0.57375   0.78586   0.54517   0.00000  Uiso   1.00
H824   H     0.46059   0.68585   0.95940   0.00000  Uiso   1.00
N825   N     0.50000   0.74999   0.62623   0.00000  Uiso   1.00
N826   N     0.50000   0.75001   0.87376   0.00000  Uiso   1.00
O827   O     0.50000   0.68453   0.78974   0.00000  Uiso   1.00
O828   O     0.50000   0.81547   0.71026   0.00000  Uiso   1.00
O829   O     0.50000   0.68453   0.71026   0.00000  Uiso   1.00
O830   O     0.50000   0.81547   0.78974   0.00000  Uiso   1.00
O831   O     0.42392   0.75000   0.78044   0.00000  Uiso   1.00
O832   O     0.57608   0.75000   0.71955   0.00000  Uiso   1.00
O833   O     0.42392   0.75000   0.70096   0.00000  Uiso   1.00
O834   O     0.57608   0.75000   0.79903   0.00000  Uiso   1.00
Zn835  Zn    0.50000   0.75000   0.80307   0.00000  Uiso   1.00
Zn836  Zn    0.50000   0.74999   0.69693   0.00000  Uiso   1.00
C837   C     0.57735   0.52921   0.68651   0.00000  Uiso   1.00
C838   C     0.61901   0.99973   0.70209   0.00000  Uiso   1.00
C839   C     0.64850   0.98089   0.66947   0.00000  Uiso   1.00
C840   C     0.63678   0.99122   0.62101   0.00000  Uiso   1.00
C841   C     0.59557   0.52047   0.60508   0.00000  Uiso   1.00
C842   C     0.56603   0.53946   0.63759   0.00000  Uiso   1.00
H843   H     0.62897   0.99135   0.73937   0.00000  Uiso   1.00
H844   H     0.34719   0.95829   0.68180   0.00000  Uiso   1.00
H845   H     0.65963   0.97658   0.59581   0.00000  Uiso   1.00
H846   H     0.58646   0.52840   0.56750   0.00000  Uiso   1.00
H847   H     0.53397   0.56179   0.62452   0.00000  Uiso   1.00
C848   C     0.56119   0.97182   0.84284   0.00000  Uiso   1.00
C849   C     0.60302   0.50257   0.84605   0.00000  Uiso   1.00
C850   C     0.62350   0.52200   0.88994   0.00000  Uiso   1.00
C851   C     0.60266   0.51090   0.93108   0.00000  Uiso   1.00
C852   C     0.56126   0.98033   0.92841   0.00000  Uiso   1.00
C853   C     0.54061   0.96084   0.88461   0.00000  Uiso   1.00
H854   H     0.61995   0.51159   0.81484   0.00000  Uiso   1.00
H855   H     0.65562   0.54567   0.89204   0.00000  Uiso   1.00
H856   H     0.61857   0.52598   0.96502   0.00000  Uiso   1.00
H857   H     0.54507   0.97180   0.96030   0.00000  Uiso   1.00
H858   H     0.50814   0.93758   0.88320   0.00000  Uiso   1.00
C859   C     0.83409   0.66381   0.74999   0.00000  Uiso   1.00
C860   C     0.83439   0.83626   0.75029   0.00000  Uiso   1.00
C861   C     0.79244   0.72969   0.54689   0.00000  Uiso   1.00
C862   C     0.85561   0.78560   0.95065   0.00000  Uiso   1.00
C863   C     0.79331   0.72994   0.59664   0.00000  Uiso   1.00
C864   C     0.85537   0.78485   0.90098   0.00000  Uiso   1.00
C865   C     0.87332   0.77007   0.60783   0.00000  Uiso   1.00
C866   C     0.81122   0.71521   0.89454   0.00000  Uiso   1.00
C867   C     0.87416   0.77034   0.55832   0.00000  Uiso   1.00
C868   C     0.81093   0.71448   0.94412   0.00000  Uiso   1.00
C869   C     0.83329   0.75002   0.52668   0.00000  Uiso   1.00
C870   C     0.83327   0.75004   0.97331   0.00000  Uiso   1.00
C871   C     0.73366   0.74998   0.73751   0.00000  Uiso   1.00
C872   C     0.93301   0.75000   0.76248   0.00000  Uiso   1.00
C873   C     0.67862   0.74996   0.73077   0.00000  Uiso   1.00
C874   C     0.98804   0.74996   0.76921   0.00000  Uiso   1.00
C875   C     0.82634   0.54526   0.78586   0.00000  Uiso   1.00
C876   C     0.83443   0.95480   0.71161   0.00000  Uiso   1.00
C877   C     0.81904   0.59096   0.78436   0.00000  Uiso   1.00
C878   C     0.82707   0.90907   0.71025   0.00000  Uiso   1.00
C879   C     0.84036   0.61601   0.75067   0.00000  Uiso   1.00
C880   C     0.84109   0.88418   0.75170   0.00000  Uiso   1.00
C881   C     0.87014   0.59573   0.71913   0.00000  Uiso   1.00
C882   C     0.86371   0.90486   0.79434   0.00000  Uiso   1.00
C883   C     0.87900   0.54972   0.72086   0.00000  Uiso   1.00
C884   C     0.87198   0.95094   0.79629   0.00000  Uiso   1.00
C885   C     0.85638   0.52447   0.75471   0.00000  Uiso   1.00
C886   C     0.85683   0.97591   0.75412   0.00000  Uiso   1.00
H887   H     0.99127   0.74996   0.69432   0.00000  Uiso   1.00
H888   H     0.67539   0.74995   0.80566   0.00000  Uiso   1.00
H889   H     0.80739   0.52584   0.81063   0.00000  Uiso   1.00
H890   H     0.82105   0.97402   0.67974   0.00000  Uiso   1.00
H891   H     0.79586   0.60663   0.80876   0.00000  Uiso   1.00
H892   H     0.80944   0.89332   0.67714   0.00000  Uiso   1.00
H893   H     0.88755   0.61598   0.69396   0.00000  Uiso   1.00
H894   H     0.87567   0.88496   0.82604   0.00000  Uiso   1.00
H895   H     0.75948   0.71419   0.52451   0.00000  Uiso   1.00
H896   H     0.87258   0.81425   0.97089   0.00000  Uiso   1.00
H897   H     0.76172   0.71417   0.61161   0.00000  Uiso   1.00
H898   H     0.87274   0.81235   0.88416   0.00000  Uiso   1.00
H899   H     0.90491   0.78590   0.63161   0.00000  Uiso   1.00
H900   H     0.79381   0.68771   0.87265   0.00000  Uiso   1.00
H901   H     0.90709   0.78586   0.54517   0.00000  Uiso   1.00
H902   H     0.79393   0.68585   0.95940   0.00000  Uiso   1.00
N903   N     0.83333   0.74999   0.62623   0.00000  Uiso   1.00
N904   N     0.83333   0.75001   0.87376   0.00000  Uiso   1.00
O905   O     0.83334   0.68453   0.78974   0.00000  Uiso   1.00
O906   O     0.83333   0.81547   0.71026   0.00000  Uiso   1.00
O907   O     0.83334   0.68453   0.71026   0.00000  Uiso   1.00
O908   O     0.83333   0.81547   0.78974   0.00000  Uiso   1.00
O909   O     0.75725   0.75000   0.78044   0.00000  Uiso   1.00
O910   O     0.90942   0.75000   0.71955   0.00000  Uiso   1.00
O911   O     0.75725   0.75000   0.70096   0.00000  Uiso   1.00
O912   O     0.90942   0.75000   0.79903   0.00000  Uiso   1.00
Zn913  Zn    0.83333   0.75000   0.80307   0.00000  Uiso   1.00
Zn914  Zn    0.83333   0.74999   0.69693   0.00000  Uiso   1.00
C915   C     0.91068   0.52921   0.68651   0.00000  Uiso   1.00
C916   C     0.95235   0.99973   0.70209   0.00000  Uiso   1.00
C917   C     0.98184   0.98089   0.66947   0.00000  Uiso   1.00
C918   C     0.97012   0.99122   0.62101   0.00000  Uiso   1.00
C919   C     0.92891   0.52047   0.60508   0.00000  Uiso   1.00
C920   C     0.89937   0.53946   0.63759   0.00000  Uiso   1.00
H921   H     0.96231   0.99135   0.73937   0.00000  Uiso   1.00
H922   H     0.68053   0.95829   0.68180   0.00000  Uiso   1.00
H923   H     0.99297   0.97658   0.59581   0.00000  Uiso   1.00
H924   H     0.91979   0.52840   0.56750   0.00000  Uiso   1.00
H925   H     0.86730   0.56179   0.62452   0.00000  Uiso   1.00
C926   C     0.89453   0.97182   0.84284   0.00000  Uiso   1.00
C927   C     0.93635   0.50257   0.84605   0.00000  Uiso   1.00
C928   C     0.95683   0.52200   0.88994   0.00000  Uiso   1.00
C929   C     0.93599   0.51090   0.93108   0.00000  Uiso   1.00
C930   C     0.89460   0.98033   0.92841   0.00000  Uiso   1.00
C931   C     0.87394   0.96084   0.88461   0.00000  Uiso   1.00
H932   H     0.95329   0.51159   0.81484   0.00000  Uiso   1.00
H933   H     0.98895   0.54567   0.89204   0.00000  Uiso   1.00
H934   H     0.95190   0.52598   0.96502   0.00000  Uiso   1.00
H935   H     0.87840   0.97180   0.96030   0.00000  Uiso   1.00
H936   H     0.84147   0.93758   0.88320   0.00000  Uiso   1.00
loop_
_geom_bond_atom_site_label_1
_geom_bond_atom_site_label_2
_geom_bond_distance
_geom_bond_site_symmetry_2
_ccdc_geom_bond_type
C1     C21     1.436   .     S
C1     O47     1.285   .     A
C1     O49     1.285   .     A
C2     O50     1.285   .     A
C2     C22     1.440   .     S
C2     O48     1.287   .     A
C3     C5      1.407   .     A
C3     C11     1.410   .     A
C3     H37     1.082   .     S
C4     C12     1.410   .     A
C4     C6      1.407   .     A
C4     H38     1.082   .     S
C5     N45     1.363   .     A
C5     H39     1.082   .     S
C6     H40     1.082   .     S
C6     N46     1.363   .     A
C7     N45     1.363   .     A
C7     C9      1.406   .     A
C7     H41     1.082   .     S
C8     H42     1.082   .     S
C8     N46     1.363   .     A
C8     C10     1.406   .     A
C9     H43     1.082   .     S
C9     C11     1.410   .     A
C10    H44     1.082   .     S
C10    C12     1.410   .     A
C11    C480    1.512   1_554 S
C12    C479    1.512   .     S
C13    O51     1.275   .     A
C13    O53     1.278   .     A
C13    C15     1.401   .     S
C14    O52     1.275   .     A
C14    O54     1.278   .     A
C14    C16     1.401   .     S
C15    C172    1.330   1_455 S
C15    H185    1.088   1_455 S
C16    C93     1.330   .     S
C16    H108    1.088   .     S
C17    C27     1.401   .     A
C17    H31     1.084   .     S
C17    C19     1.377   .     A
C18    C20     1.377   .     A
C18    C28     1.401   .     A
C18    H32     1.084   .     S
C19    C21     1.392   .     A
C19    H33     1.084   .     S
C20    H34     1.084   .     S
C20    C22     1.393   .     A
C21    C23     1.398   .     A
C22    C24     1.400   .     A
C23    C25     1.392   .     A
C23    H35     1.085   .     S
C24    H36     1.084   .     S
C24    C26     1.391   .     A
C25    C57     1.491   .     S
C25    C27     1.415   .     A
C26    C28     1.415   .     A
C26    C68     1.492   .     S
C27    C262    1.449   1_545 S
C28    C261    1.449   .     S
H29    C93     1.088   .     S
H30    C172    1.088   1_455 S
N45    Zn56    2.003   .     S
N46    Zn55    2.003   .     S
O47    Zn55    1.988   .     S
O48    Zn56    1.988   .     S
O49    Zn56    1.992   .     S
O50    Zn55    1.992   .     S
O51    Zn55    1.967   .     S
O52    Zn56    1.967   .     S
O53    Zn56    1.980   .     S
O54    Zn55    1.980   .     S
C57    C62     1.408   .     A
C57    C292    1.407   1_545 S
C58    C59     1.398   .     A
C58    H63     1.079   .     S
C58    C291    1.407   .     S
C59    C60     1.397   .     A
C59    H142    1.083   .     S
C60    H65     1.082   .     S
C60    C295    1.397   .     S
C61    H66     1.083   .     S
C61    C62     1.398   .     A
C61    C294    1.397   1_545 S
C62    H67     1.083   .     S
H64    C215    1.083   1_455 S
C68    C73     1.408   .     A
C68    C303    1.407   .     S
C69    C70     1.398   .     A
C69    H74     1.079   .     S
C69    C302    1.407   1_545 S
C70    C71     1.397   .     A
C70    H75     1.082   .     S
C71    H76     1.082   .     S
C71    C306    1.396   1_545 S
C72    H77     1.082   .     S
C72    C73     1.398   .     A
C72    C305    1.396   .     S
C73    H78     1.083   .     S
C79    C99     1.436   .     S
C79    O125    1.285   .     A
C79    O127    1.285   .     A
C80    O128    1.285   .     A
C80    C100    1.440   .     S
C80    O126    1.287   .     A
C81    C83     1.407   .     A
C81    C89     1.410   .     A
C81    H115    1.082   .     S
C82    C90     1.410   .     A
C82    C84     1.407   .     A
C82    H116    1.082   .     S
C83    N123    1.363   .     A
C83    H117    1.082   .     S
C84    H118    1.082   .     S
C84    N124    1.363   .     A
C85    N123    1.363   .     A
C85    C87     1.406   .     A
C85    H119    1.082   .     S
C86    H120    1.082   .     S
C86    N124    1.363   .     A
C86    C88     1.406   .     A
C87    H121    1.082   .     S
C87    C89     1.410   .     A
C88    H122    1.082   .     S
C88    C90     1.410   .     A
C89    C558    1.512   1_554 S
C90    C557    1.512   .     S
C91    O129    1.275   .     A
C91    O131    1.278   .     A
C91    C93     1.401   .     S
C92    O130    1.275   .     A
C92    O132    1.278   .     A
C92    C94     1.401   .     S
C94    C171    1.330   .     S
C94    H186    1.088   .     S
C95    C105    1.401   .     A
C95    H109    1.084   .     S
C95    C97     1.377   .     A
C96    C98     1.377   .     A
C96    C106    1.401   .     A
C96    H110    1.084   .     S
C97    C99     1.392   .     A
C97    H111    1.084   .     S
C98    H112    1.084   .     S
C98    C100    1.393   .     A
C99    C101    1.398   .     A
C100   C102    1.400   .     A
C101   C103    1.392   .     A
C101   H113    1.085   .     S
C102   H114    1.084   .     S
C102   C104    1.391   .     A
C103   C135    1.491   .     S
C103   C105    1.415   .     A
C104   C106    1.415   .     A
C104   C146    1.492   .     S
C105   C340    1.449   1_545 S
C106   C339    1.449   .     S
H107   C171    1.088   .     S
N123   Zn134   2.003   .     S
N124   Zn133   2.003   .     S
O125   Zn133   1.988   .     S
O126   Zn134   1.988   .     S
O127   Zn134   1.992   .     S
O128   Zn133   1.992   .     S
O129   Zn133   1.967   .     S
O130   Zn134   1.967   .     S
O131   Zn134   1.980   .     S
O132   Zn133   1.980   .     S
C135   C140    1.408   .     A
C135   C370    1.407   1_545 S
C136   C137    1.398   .     A
C136   H141    1.079   .     S
C136   C369    1.407   .     S
C137   C138    1.397   .     A
C137   H220    1.083   .     S
C138   H143    1.082   .     S
C138   C373    1.397   .     S
C139   H144    1.083   .     S
C139   C140    1.398   .     A
C139   C372    1.397   1_545 S
C140   H145    1.083   .     S
C146   C151    1.408   .     A
C146   C381    1.407   .     S
C147   C148    1.398   .     A
C147   H152    1.079   .     S
C147   C380    1.407   1_545 S
C148   C149    1.397   .     A
C148   H153    1.082   .     S
C149   H154    1.082   .     S
C149   C384    1.396   1_545 S
C150   H155    1.082   .     S
C150   C151    1.398   .     A
C150   C383    1.396   .     S
C151   H156    1.083   .     S
C157   C177    1.436   .     S
C157   O203    1.285   .     A
C157   O205    1.285   .     A
C158   O206    1.285   .     A
C158   C178    1.440   .     S
C158   O204    1.287   .     A
C159   C161    1.407   .     A
C159   C167    1.410   .     A
C159   H193    1.082   .     S
C160   C168    1.410   .     A
C160   C162    1.407   .     A
C160   H194    1.082   .     S
C161   N201    1.363   .     A
C161   H195    1.082   .     S
C162   H196    1.082   .     S
C162   N202    1.363   .     A
C163   N201    1.363   .     A
C163   C165    1.406   .     A
C163   H197    1.082   .     S
C164   H198    1.082   .     S
C164   N202    1.363   .     A
C164   C166    1.406   .     A
C165   H199    1.082   .     S
C165   C167    1.410   .     A
C166   H200    1.082   .     S
C166   C168    1.410   .     A
C167   C636    1.512   1_554 S
C168   C635    1.512   .     S
C169   O207    1.275   .     A
C169   O209    1.278   .     A
C169   C171    1.401   .     S
C170   O208    1.275   .     A
C170   O210    1.278   .     A
C170   C172    1.401   .     S
C172   C15     1.330   1_655 S
C172   H30     1.088   1_655 S
C173   C183    1.401   .     A
C173   H187    1.084   .     S
C173   C175    1.377   .     A
C174   C176    1.377   .     A
C174   C184    1.401   .     A
C174   H188    1.084   .     S
C175   C177    1.392   .     A
C175   H189    1.084   .     S
C176   H190    1.084   .     S
C176   C178    1.393   .     A
C177   C179    1.398   .     A
C178   C180    1.400   .     A
C179   C181    1.392   .     A
C179   H191    1.085   .     S
C180   H192    1.084   .     S
C180   C182    1.391   .     A
C181   C213    1.491   .     S
C181   C183    1.415   .     A
C182   C184    1.415   .     A
C182   C224    1.492   .     S
C183   C418    1.449   1_545 S
C184   C417    1.449   .     S
H185   C15     1.088   1_655 S
N201   Zn212   2.003   .     S
N202   Zn211   2.003   .     S
O203   Zn211   1.988   .     S
O204   Zn212   1.988   .     S
O205   Zn212   1.992   .     S
O206   Zn211   1.992   .     S
O207   Zn211   1.967   .     S
O208   Zn212   1.967   .     S
O209   Zn212   1.980   .     S
O210   Zn211   1.980   .     S
C213   C218    1.408   .     A
C213   C448    1.407   1_545 S
C214   C215    1.398   .     A
C214   H219    1.079   .     S
C214   C447    1.407   .     S
C215   C216    1.397   .     A
C215   H64     1.083   1_655 S
C216   H221    1.082   .     S
C216   C451    1.397   .     S
C217   H222    1.083   .     S
C217   C218    1.398   .     A
C217   C450    1.397   1_545 S
C218   H223    1.083   .     S
C224   C229    1.408   .     A
C224   C459    1.407   .     S
C225   C226    1.398   .     A
C225   H230    1.079   .     S
C225   C458    1.407   1_545 S
C226   C227    1.397   .     A
C226   H231    1.082   .     S
C227   H232    1.082   .     S
C227   C462    1.396   1_545 S
C228   H233    1.082   .     S
C228   C229    1.398   .     A
C228   C461    1.396   .     S
C229   H234    1.083   .     S
C235   C255    1.436   .     S
C235   O281    1.285   .     A
C235   O283    1.285   .     A
C236   O284    1.285   .     A
C236   C256    1.440   .     S
C236   O282    1.287   .     A
C237   C239    1.407   .     A
C237   C245    1.410   .     A
C237   H271    1.082   .     S
C238   C246    1.410   .     A
C238   C240    1.407   .     A
C238   H272    1.082   .     S
C239   N279    1.363   .     A
C239   H273    1.082   .     S
C240   H274    1.082   .     S
C240   N280    1.363   .     A
C241   N279    1.363   .     A
C241   C243    1.406   .     A
C241   H275    1.082   .     S
C242   H276    1.082   .     S
C242   N280    1.363   .     A
C242   C244    1.406   .     A
C243   H277    1.082   .     S
C243   C245    1.410   .     A
C244   H278    1.082   .     S
C244   C246    1.410   .     A
C245   C714    1.512   1_554 S
C246   C713    1.512   .     S
C247   O285    1.275   .     A
C247   O287    1.278   .     A
C247   C249    1.401   .     S
C248   O286    1.275   .     A
C248   O288    1.278   .     A
C248   C250    1.401   .     S
C249   C406    1.330   1_455 S
C249   H419    1.088   1_455 S
C250   C327    1.330   .     S
C250   H342    1.088   .     S
C251   C261    1.401   .     A
C251   H265    1.084   .     S
C251   C253    1.377   .     A
C252   C254    1.377   .     A
C252   C262    1.401   .     A
C252   H266    1.084   .     S
C253   C255    1.392   .     A
C253   H267    1.084   .     S
C254   H268    1.084   .     S
C254   C256    1.393   .     A
C255   C257    1.398   .     A
C256   C258    1.400   .     A
C257   C259    1.392   .     A
C257   H269    1.085   .     S
C258   H270    1.084   .     S
C258   C260    1.391   .     A
C259   C291    1.491   .     S
C259   C261    1.415   .     A
C260   C262    1.415   .     A
C260   C302    1.492   .     S
C262   C27     1.449   1_565 S
H263   C327    1.088   .     S
H264   C406    1.088   1_455 S
N279   Zn290   2.003   .     S
N280   Zn289   2.003   .     S
O281   Zn289   1.988   .     S
O282   Zn290   1.988   .     S
O283   Zn290   1.992   .     S
O284   Zn289   1.992   .     S
O285   Zn289   1.967   .     S
O286   Zn290   1.967   .     S
O287   Zn290   1.980   .     S
O288   Zn289   1.980   .     S
C291   C296    1.408   .     A
C292   C293    1.398   .     A
C292   H297    1.079   .     S
C292   C57     1.407   1_565 S
C293   C294    1.397   .     A
C293   H376    1.083   .     S
C294   H299    1.082   .     S
C294   C61     1.397   1_565 S
C295   H300    1.083   .     S
C295   C296    1.398   .     A
C296   H301    1.083   .     S
H298   C449    1.083   1_455 S
C302   C307    1.408   .     A
C302   C69     1.407   1_565 S
C303   C304    1.398   .     A
C303   H308    1.079   .     S
C304   C305    1.397   .     A
C304   H309    1.082   .     S
C305   H310    1.082   .     S
C306   H311    1.082   .     S
C306   C307    1.398   .     A
C306   C71     1.396   1_565 S
C307   H312    1.083   .     S
C313   C333    1.436   .     S
C313   O359    1.285   .     A
C313   O361    1.285   .     A
C314   O362    1.285   .     A
C314   C334    1.440   .     S
C314   O360    1.287   .     A
C315   C317    1.407   .     A
C315   C323    1.410   .     A
C315   H349    1.082   .     S
C316   C324    1.410   .     A
C316   C318    1.407   .     A
C316   H350    1.082   .     S
C317   N357    1.363   .     A
C317   H351    1.082   .     S
C318   H352    1.082   .     S
C318   N358    1.363   .     A
C319   N357    1.363   .     A
C319   C321    1.406   .     A
C319   H353    1.082   .     S
C320   H354    1.082   .     S
C320   N358    1.363   .     A
C320   C322    1.406   .     A
C321   H355    1.082   .     S
C321   C323    1.410   .     A
C322   H356    1.082   .     S
C322   C324    1.410   .     A
C323   C792    1.512   1_554 S
C324   C791    1.512   .     S
C325   O363    1.275   .     A
C325   O365    1.278   .     A
C325   C327    1.401   .     S
C326   O364    1.275   .     A
C326   O366    1.278   .     A
C326   C328    1.401   .     S
C328   C405    1.330   .     S
C328   H420    1.088   .     S
C329   C339    1.401   .     A
C329   H343    1.084   .     S
C329   C331    1.377   .     A
C330   C332    1.377   .     A
C330   C340    1.401   .     A
C330   H344    1.084   .     S
C331   C333    1.392   .     A
C331   H345    1.084   .     S
C332   H346    1.084   .     S
C332   C334    1.393   .     A
C333   C335    1.398   .     A
C334   C336    1.400   .     A
C335   C337    1.392   .     A
C335   H347    1.085   .     S
C336   H348    1.084   .     S
C336   C338    1.391   .     A
C337   C369    1.491   .     S
C337   C339    1.415   .     A
C338   C340    1.415   .     A
C338   C380    1.492   .     S
C340   C105    1.449   1_565 S
H341   C405    1.088   .     S
N357   Zn368   2.003   .     S
N358   Zn367   2.003   .     S
O359   Zn367   1.988   .     S
O360   Zn368   1.988   .     S
O361   Zn368   1.992   .     S
O362   Zn367   1.992   .     S
O363   Zn367   1.967   .     S
O364   Zn368   1.967   .     S
O365   Zn368   1.980   .     S
O366   Zn367   1.980   .     S
C369   C374    1.408   .     A
C370   C371    1.398   .     A
C370   H375    1.079   .     S
C370   C135    1.407   1_565 S
C371   C372    1.397   .     A
C371   H454    1.083   .     S
C372   H377    1.082   .     S
C372   C139    1.397   1_565 S
C373   H378    1.083   .     S
C373   C374    1.398   .     A
C374   H379    1.083   .     S
C380   C385    1.408   .     A
C380   C147    1.407   1_565 S
C381   C382    1.398   .     A
C381   H386    1.079   .     S
C382   C383    1.397   .     A
C382   H387    1.082   .     S
C383   H388    1.082   .     S
C384   H389    1.082   .     S
C384   C385    1.398   .     A
C384   C149    1.396   1_565 S
C385   H390    1.083   .     S
C391   C411    1.436   .     S
C391   O437    1.285   .     A
C391   O439    1.285   .     A
C392   O440    1.285   .     A
C392   C412    1.440   .     S
C392   O438    1.287   .     A
C393   C395    1.407   .     A
C393   C401    1.410   .     A
C393   H427    1.082   .     S
C394   C402    1.410   .     A
C394   C396    1.407   .     A
C394   H428    1.082   .     S
C395   N435    1.363   .     A
C395   H429    1.082   .     S
C396   H430    1.082   .     S
C396   N436    1.363   .     A
C397   N435    1.363   .     A
C397   C399    1.406   .     A
C397   H431    1.082   .     S
C398   H432    1.082   .     S
C398   N436    1.363   .     A
C398   C400    1.406   .     A
C399   H433    1.082   .     S
C399   C401    1.410   .     A
C400   H434    1.082   .     S
C400   C402    1.410   .     A
C401   C870    1.512   1_554 S
C402   C869    1.512   .     S
C403   O441    1.275   .     A
C403   O443    1.278   .     A
C403   C405    1.401   .     S
C404   O442    1.275   .     A
C404   O444    1.278   .     A
C404   C406    1.401   .     S
C406   C249    1.330   1_655 S
C406   H264    1.088   1_655 S
C407   C417    1.401   .     A
C407   H421    1.084   .     S
C407   C409    1.377   .     A
C408   C410    1.377   .     A
C408   C418    1.401   .     A
C408   H422    1.084   .     S
C409   C411    1.392   .     A
C409   H423    1.084   .     S
C410   H424    1.084   .     S
C410   C412    1.393   .     A
C411   C413    1.398   .     A
C412   C414    1.400   .     A
C413   C415    1.392   .     A
C413   H425    1.085   .     S
C414   H426    1.084   .     S
C414   C416    1.391   .     A
C415   C447    1.491   .     S
C415   C417    1.415   .     A
C416   C418    1.415   .     A
C416   C458    1.492   .     S
C418   C183    1.449   1_565 S
H419   C249    1.088   1_655 S
N435   Zn446   2.003   .     S
N436   Zn445   2.003   .     S
O437   Zn445   1.988   .     S
O438   Zn446   1.988   .     S
O439   Zn446   1.992   .     S
O440   Zn445   1.992   .     S
O441   Zn445   1.967   .     S
O442   Zn446   1.967   .     S
O443   Zn446   1.980   .     S
O444   Zn445   1.980   .     S
C447   C452    1.408   .     A
C448   C449    1.398   .     A
C448   H453    1.079   .     S
C448   C213    1.407   1_565 S
C449   C450    1.397   .     A
C449   H298    1.083   1_655 S
C450   H455    1.082   .     S
C450   C217    1.397   1_565 S
C451   H456    1.083   .     S
C451   C452    1.398   .     A
C452   H457    1.083   .     S
C458   C463    1.408   .     A
C458   C225    1.407   1_565 S
C459   C460    1.398   .     A
C459   H464    1.079   .     S
C460   C461    1.397   .     A
C460   H465    1.082   .     S
C461   H466    1.082   .     S
C462   H467    1.082   .     S
C462   C463    1.398   .     A
C462   C227    1.396   1_565 S
C463   H468    1.083   .     S
C469   C489    1.436   .     S
C469   O515    1.285   .     A
C469   O517    1.285   .     A
C470   O518    1.285   .     A
C470   C490    1.440   .     S
C470   O516    1.287   .     A
C471   C473    1.407   .     A
C471   C479    1.410   .     A
C471   H505    1.082   .     S
C472   C480    1.410   .     A
C472   C474    1.407   .     A
C472   H506    1.082   .     S
C473   N513    1.363   .     A
C473   H507    1.082   .     S
C474   H508    1.082   .     S
C474   N514    1.363   .     A
C475   N513    1.363   .     A
C475   C477    1.406   .     A
C475   H509    1.082   .     S
C476   H510    1.082   .     S
C476   N514    1.363   .     A
C476   C478    1.406   .     A
C477   H511    1.082   .     S
C477   C479    1.410   .     A
C478   H512    1.082   .     S
C478   C480    1.410   .     A
C480   C11     1.512   1_556 S
C481   O519    1.275   .     A
C481   O521    1.278   .     A
C481   C483    1.401   .     S
C482   O520    1.275   .     A
C482   O522    1.278   .     A
C482   C484    1.401   .     S
C483   C640    1.330   1_455 S
C483   H653    1.088   1_455 S
C484   C561    1.330   .     S
C484   H576    1.088   .     S
C485   C495    1.401   .     A
C485   H499    1.084   .     S
C485   C487    1.377   .     A
C486   C488    1.377   .     A
C486   C496    1.401   .     A
C486   H500    1.084   .     S
C487   C489    1.392   .     A
C487   H501    1.084   .     S
C488   H502    1.084   .     S
C488   C490    1.393   .     A
C489   C491    1.398   .     A
C490   C492    1.400   .     A
C491   C493    1.392   .     A
C491   H503    1.085   .     S
C492   H504    1.084   .     S
C492   C494    1.391   .     A
C493   C525    1.491   .     S
C493   C495    1.415   .     A
C494   C496    1.415   .     A
C494   C536    1.492   .     S
C495   C730    1.449   1_545 S
C496   C729    1.449   .     S
H497   C561    1.088   .     S
H498   C640    1.088   1_455 S
N513   Zn524   2.003   .     S
N514   Zn523   2.003   .     S
O515   Zn523   1.988   .     S
O516   Zn524   1.988   .     S
O517   Zn524   1.992   .     S
O518   Zn523   1.992   .     S
O519   Zn523   1.967   .     S
O520   Zn524   1.967   .     S
O521   Zn524   1.980   .     S
O522   Zn523   1.980   .     S
C525   C530    1.408   .     A
C525   C760    1.407   1_545 S
C526   C527    1.398   .     A
C526   H531    1.079   .     S
C526   C759    1.407   .     S
C527   C528    1.397   .     A
C527   H610    1.083   .     S
C528   H533    1.082   .     S
C528   C763    1.397   .     S
C529   H534    1.083   .     S
C529   C530    1.398   .     A
C529   C762    1.397   1_545 S
C530   H535    1.083   .     S
H532   C683    1.083   1_455 S
C536   C541    1.408   .     A
C536   C771    1.407   .     S
C537   C538    1.398   .     A
C537   H542    1.079   .     S
C537   C770    1.407   1_545 S
C538   C539    1.397   .     A
C538   H543    1.082   .     S
C539   H544    1.082   .     S
C539   C774    1.396   1_545 S
C540   H545    1.082   .     S
C540   C541    1.398   .     A
C540   C773    1.396   .     S
C541   H546    1.083   .     S
C547   C567    1.436   .     S
C547   O593    1.285   .     A
C547   O595    1.285   .     A
C548   O596    1.285   .     A
C548   C568    1.440   .     S
C548   O594    1.287   .     A
C549   C551    1.407   .     A
C549   C557    1.410   .     A
C549   H583    1.082   .     S
C550   C558    1.410   .     A
C550   C552    1.407   .     A
C550   H584    1.082   .     S
C551   N591    1.363   .     A
C551   H585    1.082   .     S
C552   H586    1.082   .     S
C552   N592    1.363   .     A
C553   N591    1.363   .     A
C553   C555    1.406   .     A
C553   H587    1.082   .     S
C554   H588    1.082   .     S
C554   N592    1.363   .     A
C554   C556    1.406   .     A
C555   H589    1.082   .     S
C555   C557    1.410   .     A
C556   H590    1.082   .     S
C556   C558    1.410   .     A
C558   C89     1.512   1_556 S
C559   O597    1.275   .     A
C559   O599    1.278   .     A
C559   C561    1.401   .     S
C560   O598    1.275   .     A
C560   O600    1.278   .     A
C560   C562    1.401   .     S
C562   C639    1.330   .     S
C562   H654    1.088   .     S
C563   C573    1.401   .     A
C563   H577    1.084   .     S
C563   C565    1.377   .     A
C564   C566    1.377   .     A
C564   C574    1.401   .     A
C564   H578    1.084   .     S
C565   C567    1.392   .     A
C565   H579    1.084   .     S
C566   H580    1.084   .     S
C566   C568    1.393   .     A
C567   C569    1.398   .     A
C568   C570    1.400   .     A
C569   C571    1.392   .     A
C569   H581    1.085   .     S
C570   H582    1.084   .     S
C570   C572    1.391   .     A
C571   C603    1.491   .     S
C571   C573    1.415   .     A
C572   C574    1.415   .     A
C572   C614    1.492   .     S
C573   C808    1.449   1_545 S
C574   C807    1.449   .     S
H575   C639    1.088   .     S
N591   Zn602   2.003   .     S
N592   Zn601   2.003   .     S
O593   Zn601   1.988   .     S
O594   Zn602   1.988   .     S
O595   Zn602   1.992   .     S
O596   Zn601   1.992   .     S
O597   Zn601   1.967   .     S
O598   Zn602   1.967   .     S
O599   Zn602   1.980   .     S
O600   Zn601   1.980   .     S
C603   C608    1.408   .     A
C603   C838    1.407   1_545 S
C604   C605    1.398   .     A
C604   H609    1.079   .     S
C604   C837    1.407   .     S
C605   C606    1.397   .     A
C605   H688    1.083   .     S
C606   H611    1.082   .     S
C606   C841    1.397   .     S
C607   H612    1.083   .     S
C607   C608    1.398   .     A
C607   C840    1.397   1_545 S
C608   H613    1.083   .     S
C614   C619    1.408   .     A
C614   C849    1.407   .     S
C615   C616    1.398   .     A
C615   H620    1.079   .     S
C615   C848    1.407   1_545 S
C616   C617    1.397   .     A
C616   H621    1.082   .     S
C617   H622    1.082   .     S
C617   C852    1.396   1_545 S
C618   H623    1.082   .     S
C618   C619    1.398   .     A
C618   C851    1.396   .     S
C619   H624    1.083   .     S
C625   C645    1.436   .     S
C625   O671    1.285   .     A
C625   O673    1.285   .     A
C626   O674    1.285   .     A
C626   C646    1.440   .     S
C626   O672    1.287   .     A
C627   C629    1.407   .     A
C627   C635    1.410   .     A
C627   H661    1.082   .     S
C628   C636    1.410   .     A
C628   C630    1.407   .     A
C628   H662    1.082   .     S
C629   N669    1.363   .     A
C629   H663    1.082   .     S
C630   H664    1.082   .     S
C630   N670    1.363   .     A
C631   N669    1.363   .     A
C631   C633    1.406   .     A
C631   H665    1.082   .     S
C632   H666    1.082   .     S
C632   N670    1.363   .     A
C632   C634    1.406   .     A
C633   H667    1.082   .     S
C633   C635    1.410   .     A
C634   H668    1.082   .     S
C634   C636    1.410   .     A
C636   C167    1.512   1_556 S
C637   O675    1.275   .     A
C637   O677    1.278   .     A
C637   C639    1.401   .     S
C638   O676    1.275   .     A
C638   O678    1.278   .     A
C638   C640    1.401   .     S
C640   C483    1.330   1_655 S
C640   H498    1.088   1_655 S
C641   C651    1.401   .     A
C641   H655    1.084   .     S
C641   C643    1.377   .     A
C642   C644    1.377   .     A
C642   C652    1.401   .     A
C642   H656    1.084   .     S
C643   C645    1.392   .     A
C643   H657    1.084   .     S
C644   H658    1.084   .     S
C644   C646    1.393   .     A
C645   C647    1.398   .     A
C646   C648    1.400   .     A
C647   C649    1.392   .     A
C647   H659    1.085   .     S
C648   H660    1.084   .     S
C648   C650    1.391   .     A
C649   C681    1.491   .     S
C649   C651    1.415   .     A
C650   C652    1.415   .     A
C650   C692    1.492   .     S
C651   C886    1.449   1_545 S
C652   C885    1.449   .     S
H653   C483    1.088   1_655 S
N669   Zn680   2.003   .     S
N670   Zn679   2.003   .     S
O671   Zn679   1.988   .     S
O672   Zn680   1.988   .     S
O673   Zn680   1.992   .     S
O674   Zn679   1.992   .     S
O675   Zn679   1.967   .     S
O676   Zn680   1.967   .     S
O677   Zn680   1.980   .     S
O678   Zn679   1.980   .     S
C681   C686    1.408   .     A
C681   C916    1.407   1_545 S
C682   C683    1.398   .     A
C682   H687    1.079   .     S
C682   C915    1.407   .     S
C683   C684    1.397   .     A
C683   H532    1.083   1_655 S
C684   H689    1.082   .     S
C684   C919    1.397   .     S
C685   H690    1.083   .     S
C685   C686    1.398   .     A
C685   C918    1.397   1_545 S
C686   H691    1.083   .     S
C692   C697    1.408   .     A
C692   C927    1.407   .     S
C693   C694    1.398   .     A
C693   H698    1.079   .     S
C693   C926    1.407   1_545 S
C694   C695    1.397   .     A
C694   H699    1.082   .     S
C695   H700    1.082   .     S
C695   C930    1.396   1_545 S
C696   H701    1.082   .     S
C696   C697    1.398   .     A
C696   C929    1.396   .     S
C697   H702    1.083   .     S
C703   C723    1.436   .     S
C703   O749    1.285   .     A
C703   O751    1.285   .     A
C704   O752    1.285   .     A
C704   C724    1.440   .     S
C704   O750    1.287   .     A
C705   C707    1.407   .     A
C705   C713    1.410   .     A
C705   H739    1.082   .     S
C706   C714    1.410   .     A
C706   C708    1.407   .     A
C706   H740    1.082   .     S
C707   N747    1.363   .     A
C707   H741    1.082   .     S
C708   H742    1.082   .     S
C708   N748    1.363   .     A
C709   N747    1.363   .     A
C709   C711    1.406   .     A
C709   H743    1.082   .     S
C710   H744    1.082   .     S
C710   N748    1.363   .     A
C710   C712    1.406   .     A
C711   H745    1.082   .     S
C711   C713    1.410   .     A
C712   H746    1.082   .     S
C712   C714    1.410   .     A
C714   C245    1.512   1_556 S
C715   O753    1.275   .     A
C715   O755    1.278   .     A
C715   C717    1.401   .     S
C716   O754    1.275   .     A
C716   O756    1.278   .     A
C716   C718    1.401   .     S
C717   C874    1.330   1_455 S
C717   H887    1.088   1_455 S
C718   C795    1.330   .     S
C718   H810    1.088   .     S
C719   C729    1.401   .     A
C719   H733    1.084   .     S
C719   C721    1.377   .     A
C720   C722    1.377   .     A
C720   C730    1.401   .     A
C720   H734    1.084   .     S
C721   C723    1.392   .     A
C721   H735    1.084   .     S
C722   H736    1.084   .     S
C722   C724    1.393   .     A
C723   C725    1.398   .     A
C724   C726    1.400   .     A
C725   C727    1.392   .     A
C725   H737    1.085   .     S
C726   H738    1.084   .     S
C726   C728    1.391   .     A
C727   C759    1.491   .     S
C727   C729    1.415   .     A
C728   C730    1.415   .     A
C728   C770    1.492   .     S
C730   C495    1.449   1_565 S
H731   C795    1.088   .     S
H732   C874    1.088   1_455 S
N747   Zn758   2.003   .     S
N748   Zn757   2.003   .     S
O749   Zn757   1.988   .     S
O750   Zn758   1.988   .     S
O751   Zn758   1.992   .     S
O752   Zn757   1.992   .     S
O753   Zn757   1.967   .     S
O754   Zn758   1.967   .     S
O755   Zn758   1.980   .     S
O756   Zn757   1.980   .     S
C759   C764    1.408   .     A
C760   C761    1.398   .     A
C760   H765    1.079   .     S
C760   C525    1.407   1_565 S
C761   C762    1.397   .     A
C761   H844    1.083   .     S
C762   H767    1.082   .     S
C762   C529    1.397   1_565 S
C763   H768    1.083   .     S
C763   C764    1.398   .     A
C764   H769    1.083   .     S
H766   C917    1.083   1_455 S
C770   C775    1.408   .     A
C770   C537    1.407   1_565 S
C771   C772    1.398   .     A
C771   H776    1.079   .     S
C772   C773    1.397   .     A
C772   H777    1.082   .     S
C773   H778    1.082   .     S
C774   H779    1.082   .     S
C774   C775    1.398   .     A
C774   C539    1.396   1_565 S
C775   H780    1.083   .     S
C781   C801    1.436   .     S
C781   O827    1.285   .     A
C781   O829    1.285   .     A
C782   O830    1.285   .     A
C782   C802    1.440   .     S
C782   O828    1.287   .     A
C783   C785    1.407   .     A
C783   C791    1.410   .     A
C783   H817    1.082   .     S
C784   C792    1.410   .     A
C784   C786    1.407   .     A
C784   H818    1.082   .     S
C785   N825    1.363   .     A
C785   H819    1.082   .     S
C786   H820    1.082   .     S
C786   N826    1.363   .     A
C787   N825    1.363   .     A
C787   C789    1.406   .     A
C787   H821    1.082   .     S
C788   H822    1.082   .     S
C788   N826    1.363   .     A
C788   C790    1.406   .     A
C789   H823    1.082   .     S
C789   C791    1.410   .     A
C790   H824    1.082   .     S
C790   C792    1.410   .     A
C792   C323    1.512   1_556 S
C793   O831    1.275   .     A
C793   O833    1.278   .     A
C793   C795    1.401   .     S
C794   O832    1.275   .     A
C794   O834    1.278   .     A
C794   C796    1.401   .     S
C796   C873    1.330   .     S
C796   H888    1.088   .     S
C797   C807    1.401   .     A
C797   H811    1.084   .     S
C797   C799    1.377   .     A
C798   C800    1.377   .     A
C798   C808    1.401   .     A
C798   H812    1.084   .     S
C799   C801    1.392   .     A
C799   H813    1.084   .     S
C800   H814    1.084   .     S
C800   C802    1.393   .     A
C801   C803    1.398   .     A
C802   C804    1.400   .     A
C803   C805    1.392   .     A
C803   H815    1.085   .     S
C804   H816    1.084   .     S
C804   C806    1.391   .     A
C805   C837    1.491   .     S
C805   C807    1.415   .     A
C806   C808    1.415   .     A
C806   C848    1.492   .     S
C808   C573    1.449   1_565 S
H809   C873    1.088   .     S
N825   Zn836   2.003   .     S
N826   Zn835   2.003   .     S
O827   Zn835   1.988   .     S
O828   Zn836   1.988   .     S
O829   Zn836   1.992   .     S
O830   Zn835   1.992   .     S
O831   Zn835   1.967   .     S
O832   Zn836   1.967   .     S
O833   Zn836   1.980   .     S
O834   Zn835   1.980   .     S
C837   C842    1.408   .     A
C838   C839    1.398   .     A
C838   H843    1.079   .     S
C838   C603    1.407   1_565 S
C839   C840    1.397   .     A
C839   H922    1.083   .     S
C840   H845    1.082   .     S
C840   C607    1.397   1_565 S
C841   H846    1.083   .     S
C841   C842    1.398   .     A
C842   H847    1.083   .     S
C848   C853    1.408   .     A
C848   C615    1.407   1_565 S
C849   C850    1.398   .     A
C849   H854    1.079   .     S
C850   C851    1.397   .     A
C850   H855    1.082   .     S
C851   H856    1.082   .     S
C852   H857    1.082   .     S
C852   C853    1.398   .     A
C852   C617    1.396   1_565 S
C853   H858    1.083   .     S
C859   C879    1.436   .     S
C859   O905    1.285   .     A
C859   O907    1.285   .     A
C860   O908    1.285   .     A
C860   C880    1.440   .     S
C860   O906    1.287   .     A
C861   C863    1.407   .     A
C861   C869    1.410   .     A
C861   H895    1.082   .     S
C862   C870    1.410   .     A
C862   C864    1.407   .     A
C862   H896    1.082   .     S
C863   N903    1.363   .     A
C863   H897    1.082   .     S
C864   H898    1.082   .     S
C864   N904    1.363   .     A
C865   N903    1.363   .     A
C865   C867    1.406   .     A
C865   H899    1.082   .     S
C866   H900    1.082   .     S
C866   N904    1.363   .     A
C866   C868    1.406   .     A
C867   H901    1.082   .     S
C867   C869    1.410   .     A
C868   H902    1.082   .     S
C868   C870    1.410   .     A
C870   C401    1.512   1_556 S
C871   O909    1.275   .     A
C871   O911    1.278   .     A
C871   C873    1.401   .     S
C872   O910    1.275   .     A
C872   O912    1.278   .     A
C872   C874    1.401   .     S
C874   C717    1.330   1_655 S
C874   H732    1.088   1_655 S
C875   C885    1.401   .     A
C875   H889    1.084   .     S
C875   C877    1.377   .     A
C876   C878    1.377   .     A
C876   C886    1.401   .     A
C876   H890    1.084   .     S
C877   C879    1.392   .     A
C877   H891    1.084   .     S
C878   H892    1.084   .     S
C878   C880    1.393   .     A
C879   C881    1.398   .     A
C880   C882    1.400   .     A
C881   C883    1.392   .     A
C881   H893    1.085   .     S
C882   H894    1.084   .     S
C882   C884    1.391   .     A
C883   C915    1.491   .     S
C883   C885    1.415   .     A
C884   C886    1.415   .     A
C884   C926    1.492   .     S
C886   C651    1.449   1_565 S
H887   C717    1.088   1_655 S
N903   Zn914   2.003   .     S
N904   Zn913   2.003   .     S
O905   Zn913   1.988   .     S
O906   Zn914   1.988   .     S
O907   Zn914   1.992   .     S
O908   Zn913   1.992   .     S
O909   Zn913   1.967   .     S
O910   Zn914   1.967   .     S
O911   Zn914   1.980   .     S
O912   Zn913   1.980   .     S
C915   C920    1.408   .     A
C916   C917    1.398   .     A
C916   H921    1.079   .     S
C916   C681    1.407   1_565 S
C917   C918    1.397   .     A
C917   H766    1.083   1_655 S
C918   H923    1.082   .     S
C918   C685    1.397   1_565 S
C919   H924    1.083   .     S
C919   C920    1.398   .     A
C920   H925    1.083   .     S
C926   C931    1.408   .     A
C926   C693    1.407   1_565 S
C927   C928    1.398   .     A
C927   H932    1.079   .     S
C928   C929    1.397   .     A
C928   H933    1.082   .     S
C929   H934    1.082   .     S
C930   H935    1.082   .     S
C930   C931    1.398   .     A
C930   C695    1.396   1_565 S
C931   H936    1.083   .     S
