data_str_m3_o1_o16_pcu_sym.36
_audit_creation_date              2020-01-03
_audit_creation_method            'Materials Studio'
_symmetry_space_group_name_H-M    'P1'
_symmetry_Int_Tables_number       1
_symmetry_cell_setting            triclinic
loop_
_symmetry_equiv_pos_as_xyz
  x,y,z
_cell_length_a                    29.5292
_cell_length_b                    32.1402
_cell_length_c                    26.2386
_cell_angle_alpha                 90.0935
_cell_angle_beta                  69.7278
_cell_angle_gamma                 89.9423
loop_
_atom_site_label
_atom_site_type_symbol
_atom_site_fract_x
_atom_site_fract_y
_atom_site_fract_z
_atom_site_U_iso_or_equiv
_atom_site_adp_type
_atom_site_occupancy
C1     C     0.16666   0.24670   0.25004   0.00000  Uiso   1.00
C2     C     0.12196   0.17034   0.41142   0.00000  Uiso   1.00
C3     C     0.20294   0.31199   0.26226   0.00000  Uiso   1.00
C4     C     0.13979   0.16839   0.35222   0.00000  Uiso   1.00
C5     C     0.20299   0.02129   0.26217   0.00000  Uiso   1.00
C6     C     0.16672   0.04247   0.24993   0.00000  Uiso   1.00
C7     C     0.13043   0.02132   0.23772   0.00000  Uiso   1.00
C8     C     0.13040   0.31202   0.23778   0.00000  Uiso   1.00
C9     C     0.16666   0.29084   0.25004   0.00000  Uiso   1.00
C10    C     0.31886   0.13868   0.21921   0.00000  Uiso   1.00
C11    C     0.03349   0.13870   0.21919   0.00000  Uiso   1.00
C12    C     0.14334   0.17371   0.49259   0.00000  Uiso   1.00
C13    C     0.01451   0.19473   0.28067   0.00000  Uiso   1.00
C14    C     0.29995   0.19479   0.28054   0.00000  Uiso   1.00
C15    C     0.16668   0.08662   0.24996   0.00000  Uiso   1.00
C16    C     0.19361   0.16782   0.14771   0.00000  Uiso   1.00
C17    C     0.25551   0.21489   0.00983   0.00000  Uiso   1.00
C18    C     0.21015   0.17510   0.08932   0.00000  Uiso   1.00
C19    C     0.07834   0.15071   0.44069   0.00000  Uiso   1.00
C20    C     0.06614   0.14408   0.49612   0.00000  Uiso   1.00
C21    C     0.09874   0.15434   0.02182   0.00000  Uiso   1.00
C22    C     0.15175   0.18625   0.43871   0.00000  Uiso   1.00
C23    C     0.17990   0.18112   0.01486   0.00000  Uiso   1.00
C24    C     0.22011   0.20646   0.48690   0.00000  Uiso   1.00
C25    C     0.22398   0.22363   0.43688   0.00000  Uiso   1.00
C26    C     0.19015   0.21373   0.41305   0.00000  Uiso   1.00
C27    C     0.17797   0.16333   0.06382   0.00000  Uiso   1.00
C28    C     0.25035   0.20021   0.06157   0.00000  Uiso   1.00
H29    H     0.23103   0.03753   0.27204   0.00000  Uiso   1.00
H30    H     0.15009   0.14130   0.08442   0.00000  Uiso   1.00
H31    H     0.05454   0.13919   0.42040   0.00000  Uiso   1.00
H32    H     0.08759   0.14781   0.06472   0.00000  Uiso   1.00
H33    H     0.03224   0.12927   0.01881   0.00000  Uiso   1.00
H34    H     0.19401   0.22812   0.37452   0.00000  Uiso   1.00
H35    H     0.23094   0.29571   0.27222   0.00000  Uiso   1.00
H36    H     0.10241   0.03758   0.22779   0.00000  Uiso   1.00
H37    H     0.10236   0.29578   0.22790   0.00000  Uiso   1.00
H38    H     0.30831   0.11633   0.19454   0.00000  Uiso   1.00
H39    H     0.05927   0.11636   0.19451   0.00000  Uiso   1.00
H40    H     0.02509   0.21716   0.30522   0.00000  Uiso   1.00
H41    H     0.27438   0.21742   0.30474   0.00000  Uiso   1.00
H42    H     0.25359   0.24417   0.41571   0.00000  Uiso   1.00
H43    H     0.28615   0.23436   0.48851   0.00000  Uiso   1.00
I44    I     0.30272   0.22059   0.09492   0.00000  Uiso   1.00
N45    N     0.04760   0.16668   0.25001   0.00000  Uiso   1.00
N46    N     0.28573   0.16665   0.25001   0.00000  Uiso   1.00
O47    O     0.12846   0.22775   0.25000   0.00000  Uiso   1.00
O48    O     0.20490   0.22774   0.25000   0.00000  Uiso   1.00
O49    O     0.10947   0.16666   0.32681   0.00000  Uiso   1.00
O50    O     0.18591   0.16665   0.32681   0.00000  Uiso   1.00
O51    O     0.12843   0.10559   0.25000   0.00000  Uiso   1.00
O52    O     0.20488   0.10558   0.25000   0.00000  Uiso   1.00
O53    O     0.14742   0.16668   0.17319   0.00000  Uiso   1.00
O54    O     0.22387   0.16667   0.17319   0.00000  Uiso   1.00
Zn55   Zn    0.11562   0.16667   0.25000   0.00000  Uiso   1.00
Zn56   Zn    0.21771   0.16666   0.25000   0.00000  Uiso   1.00
C57    C     0.49999   0.24670   0.25004   0.00000  Uiso   1.00
C58    C     0.45529   0.17034   0.41142   0.00000  Uiso   1.00
C59    C     0.53628   0.31199   0.26226   0.00000  Uiso   1.00
C60    C     0.47312   0.16839   0.35222   0.00000  Uiso   1.00
C61    C     0.53632   0.02129   0.26217   0.00000  Uiso   1.00
C62    C     0.50005   0.04247   0.24993   0.00000  Uiso   1.00
C63    C     0.46376   0.02132   0.23772   0.00000  Uiso   1.00
C64    C     0.46373   0.31202   0.23778   0.00000  Uiso   1.00
C65    C     0.49999   0.29084   0.25004   0.00000  Uiso   1.00
C66    C     0.65219   0.13868   0.21921   0.00000  Uiso   1.00
C67    C     0.36682   0.13870   0.21919   0.00000  Uiso   1.00
C68    C     0.47667   0.17371   0.49259   0.00000  Uiso   1.00
C69    C     0.34785   0.19473   0.28067   0.00000  Uiso   1.00
C70    C     0.63328   0.19479   0.28054   0.00000  Uiso   1.00
C71    C     0.50002   0.08662   0.24996   0.00000  Uiso   1.00
C72    C     0.52694   0.16782   0.14771   0.00000  Uiso   1.00
C73    C     0.58884   0.21489   0.00983   0.00000  Uiso   1.00
C74    C     0.54349   0.17510   0.08932   0.00000  Uiso   1.00
C75    C     0.41167   0.15071   0.44069   0.00000  Uiso   1.00
C76    C     0.39948   0.14408   0.49612   0.00000  Uiso   1.00
C77    C     0.43207   0.15434   0.02182   0.00000  Uiso   1.00
C78    C     0.48508   0.18625   0.43871   0.00000  Uiso   1.00
C79    C     0.51324   0.18112   0.01486   0.00000  Uiso   1.00
C80    C     0.55344   0.20646   0.48690   0.00000  Uiso   1.00
C81    C     0.55731   0.22363   0.43688   0.00000  Uiso   1.00
C82    C     0.52348   0.21373   0.41305   0.00000  Uiso   1.00
C83    C     0.51130   0.16333   0.06382   0.00000  Uiso   1.00
C84    C     0.58369   0.20021   0.06157   0.00000  Uiso   1.00
H85    H     0.56436   0.03753   0.27204   0.00000  Uiso   1.00
H86    H     0.48343   0.14130   0.08442   0.00000  Uiso   1.00
H87    H     0.38787   0.13919   0.42040   0.00000  Uiso   1.00
H88    H     0.42092   0.14781   0.06472   0.00000  Uiso   1.00
H89    H     0.36557   0.12927   0.01881   0.00000  Uiso   1.00
H90    H     0.52735   0.22812   0.37452   0.00000  Uiso   1.00
H91    H     0.56427   0.29571   0.27222   0.00000  Uiso   1.00
H92    H     0.43575   0.03758   0.22779   0.00000  Uiso   1.00
H93    H     0.43570   0.29578   0.22790   0.00000  Uiso   1.00
H94    H     0.64164   0.11633   0.19454   0.00000  Uiso   1.00
H95    H     0.39260   0.11636   0.19451   0.00000  Uiso   1.00
H96    H     0.35842   0.21716   0.30522   0.00000  Uiso   1.00
H97    H     0.60772   0.21742   0.30474   0.00000  Uiso   1.00
H98    H     0.58693   0.24417   0.41571   0.00000  Uiso   1.00
H99    H     0.61948   0.23436   0.48851   0.00000  Uiso   1.00
I100   I     0.63605   0.22059   0.09492   0.00000  Uiso   1.00
N101   N     0.38093   0.16668   0.25001   0.00000  Uiso   1.00
N102   N     0.61906   0.16665   0.25001   0.00000  Uiso   1.00
O103   O     0.46179   0.22775   0.25000   0.00000  Uiso   1.00
O104   O     0.53823   0.22774   0.25000   0.00000  Uiso   1.00
O105   O     0.44280   0.16666   0.32681   0.00000  Uiso   1.00
O106   O     0.51924   0.16665   0.32681   0.00000  Uiso   1.00
O107   O     0.46177   0.10559   0.25000   0.00000  Uiso   1.00
O108   O     0.53821   0.10558   0.25000   0.00000  Uiso   1.00
O109   O     0.48076   0.16668   0.17319   0.00000  Uiso   1.00
O110   O     0.55720   0.16667   0.17319   0.00000  Uiso   1.00
Zn111  Zn    0.44896   0.16667   0.25000   0.00000  Uiso   1.00
Zn112  Zn    0.55104   0.16666   0.25000   0.00000  Uiso   1.00
C113   C     0.83333   0.24670   0.25004   0.00000  Uiso   1.00
C114   C     0.78862   0.17034   0.41142   0.00000  Uiso   1.00
C115   C     0.86961   0.31199   0.26226   0.00000  Uiso   1.00
C116   C     0.80646   0.16839   0.35222   0.00000  Uiso   1.00
C117   C     0.86966   0.02129   0.26217   0.00000  Uiso   1.00
C118   C     0.83338   0.04247   0.24993   0.00000  Uiso   1.00
C119   C     0.79710   0.02132   0.23772   0.00000  Uiso   1.00
C120   C     0.79707   0.31202   0.23778   0.00000  Uiso   1.00
C121   C     0.83332   0.29084   0.25004   0.00000  Uiso   1.00
C122   C     0.98552   0.13868   0.21921   0.00000  Uiso   1.00
C123   C     0.70015   0.13870   0.21919   0.00000  Uiso   1.00
C124   C     0.81000   0.17371   0.49259   0.00000  Uiso   1.00
C125   C     0.68118   0.19473   0.28067   0.00000  Uiso   1.00
C126   C     0.96661   0.19479   0.28054   0.00000  Uiso   1.00
C127   C     0.83335   0.08662   0.24996   0.00000  Uiso   1.00
C128   C     0.86027   0.16782   0.14771   0.00000  Uiso   1.00
C129   C     0.92218   0.21489   0.00983   0.00000  Uiso   1.00
C130   C     0.87682   0.17510   0.08932   0.00000  Uiso   1.00
C131   C     0.74500   0.15071   0.44069   0.00000  Uiso   1.00
C132   C     0.73281   0.14408   0.49612   0.00000  Uiso   1.00
C133   C     0.76540   0.15434   0.02182   0.00000  Uiso   1.00
C134   C     0.81841   0.18625   0.43871   0.00000  Uiso   1.00
C135   C     0.84657   0.18112   0.01486   0.00000  Uiso   1.00
C136   C     0.88678   0.20646   0.48690   0.00000  Uiso   1.00
C137   C     0.89064   0.22363   0.43688   0.00000  Uiso   1.00
C138   C     0.85682   0.21373   0.41305   0.00000  Uiso   1.00
C139   C     0.84463   0.16333   0.06382   0.00000  Uiso   1.00
C140   C     0.91702   0.20021   0.06157   0.00000  Uiso   1.00
H141   H     0.89769   0.03753   0.27204   0.00000  Uiso   1.00
H142   H     0.81676   0.14130   0.08442   0.00000  Uiso   1.00
H143   H     0.72120   0.13919   0.42040   0.00000  Uiso   1.00
H144   H     0.75426   0.14781   0.06472   0.00000  Uiso   1.00
H145   H     0.69890   0.12927   0.01881   0.00000  Uiso   1.00
H146   H     0.86068   0.22812   0.37452   0.00000  Uiso   1.00
H147   H     0.89761   0.29571   0.27222   0.00000  Uiso   1.00
H148   H     0.76908   0.03758   0.22779   0.00000  Uiso   1.00
H149   H     0.76903   0.29578   0.22790   0.00000  Uiso   1.00
H150   H     0.97497   0.11633   0.19454   0.00000  Uiso   1.00
H151   H     0.72593   0.11636   0.19451   0.00000  Uiso   1.00
H152   H     0.69176   0.21716   0.30522   0.00000  Uiso   1.00
H153   H     0.94105   0.21742   0.30474   0.00000  Uiso   1.00
H154   H     0.92026   0.24417   0.41571   0.00000  Uiso   1.00
H155   H     0.95281   0.23436   0.48851   0.00000  Uiso   1.00
I156   I     0.96939   0.22059   0.09492   0.00000  Uiso   1.00
N157   N     0.71426   0.16668   0.25001   0.00000  Uiso   1.00
N158   N     0.95239   0.16665   0.25001   0.00000  Uiso   1.00
O159   O     0.79512   0.22775   0.25000   0.00000  Uiso   1.00
O160   O     0.87157   0.22774   0.25000   0.00000  Uiso   1.00
O161   O     0.77613   0.16666   0.32681   0.00000  Uiso   1.00
O162   O     0.85258   0.16665   0.32681   0.00000  Uiso   1.00
O163   O     0.79510   0.10559   0.25000   0.00000  Uiso   1.00
O164   O     0.87154   0.10558   0.25000   0.00000  Uiso   1.00
O165   O     0.81409   0.16668   0.17319   0.00000  Uiso   1.00
O166   O     0.89053   0.16667   0.17319   0.00000  Uiso   1.00
Zn167  Zn    0.78229   0.16667   0.25000   0.00000  Uiso   1.00
Zn168  Zn    0.88438   0.16666   0.25000   0.00000  Uiso   1.00
C169   C     0.16666   0.58004   0.25004   0.00000  Uiso   1.00
C170   C     0.12196   0.50367   0.41142   0.00000  Uiso   1.00
C171   C     0.20294   0.64532   0.26226   0.00000  Uiso   1.00
C172   C     0.13979   0.50172   0.35222   0.00000  Uiso   1.00
C173   C     0.20299   0.35462   0.26217   0.00000  Uiso   1.00
C174   C     0.16672   0.37581   0.24993   0.00000  Uiso   1.00
C175   C     0.13043   0.35465   0.23772   0.00000  Uiso   1.00
C176   C     0.13040   0.64536   0.23778   0.00000  Uiso   1.00
C177   C     0.16666   0.62418   0.25004   0.00000  Uiso   1.00
C178   C     0.31886   0.47201   0.21921   0.00000  Uiso   1.00
C179   C     0.03349   0.47203   0.21919   0.00000  Uiso   1.00
C180   C     0.14334   0.50704   0.49259   0.00000  Uiso   1.00
C181   C     0.01451   0.52806   0.28067   0.00000  Uiso   1.00
C182   C     0.29995   0.52812   0.28054   0.00000  Uiso   1.00
C183   C     0.16668   0.41996   0.24996   0.00000  Uiso   1.00
C184   C     0.19361   0.50116   0.14771   0.00000  Uiso   1.00
C185   C     0.25551   0.54822   0.00983   0.00000  Uiso   1.00
C186   C     0.21015   0.50844   0.08932   0.00000  Uiso   1.00
C187   C     0.07834   0.48404   0.44069   0.00000  Uiso   1.00
C188   C     0.06614   0.47741   0.49612   0.00000  Uiso   1.00
C189   C     0.09874   0.48768   0.02182   0.00000  Uiso   1.00
C190   C     0.15175   0.51958   0.43871   0.00000  Uiso   1.00
C191   C     0.17990   0.51446   0.01486   0.00000  Uiso   1.00
C192   C     0.22011   0.53979   0.48690   0.00000  Uiso   1.00
C193   C     0.22398   0.55696   0.43688   0.00000  Uiso   1.00
C194   C     0.19015   0.54706   0.41305   0.00000  Uiso   1.00
C195   C     0.17797   0.49666   0.06382   0.00000  Uiso   1.00
C196   C     0.25035   0.53354   0.06157   0.00000  Uiso   1.00
H197   H     0.23103   0.37087   0.27204   0.00000  Uiso   1.00
H198   H     0.15009   0.47463   0.08442   0.00000  Uiso   1.00
H199   H     0.05454   0.47252   0.42040   0.00000  Uiso   1.00
H200   H     0.08759   0.48114   0.06472   0.00000  Uiso   1.00
H201   H     0.03224   0.46260   0.01881   0.00000  Uiso   1.00
H202   H     0.19401   0.56146   0.37452   0.00000  Uiso   1.00
H203   H     0.23094   0.62905   0.27222   0.00000  Uiso   1.00
H204   H     0.10241   0.37092   0.22779   0.00000  Uiso   1.00
H205   H     0.10236   0.62911   0.22790   0.00000  Uiso   1.00
H206   H     0.30831   0.44967   0.19454   0.00000  Uiso   1.00
H207   H     0.05927   0.44969   0.19451   0.00000  Uiso   1.00
H208   H     0.02509   0.55049   0.30522   0.00000  Uiso   1.00
H209   H     0.27438   0.55076   0.30474   0.00000  Uiso   1.00
H210   H     0.25359   0.57750   0.41571   0.00000  Uiso   1.00
H211   H     0.28615   0.56769   0.48851   0.00000  Uiso   1.00
I212   I     0.30272   0.55393   0.09492   0.00000  Uiso   1.00
N213   N     0.04760   0.50001   0.25001   0.00000  Uiso   1.00
N214   N     0.28573   0.49998   0.25001   0.00000  Uiso   1.00
O215   O     0.12846   0.56108   0.25000   0.00000  Uiso   1.00
O216   O     0.20490   0.56107   0.25000   0.00000  Uiso   1.00
O217   O     0.10947   0.50000   0.32681   0.00000  Uiso   1.00
O218   O     0.18591   0.49999   0.32681   0.00000  Uiso   1.00
O219   O     0.12843   0.43893   0.25000   0.00000  Uiso   1.00
O220   O     0.20488   0.43892   0.25000   0.00000  Uiso   1.00
O221   O     0.14742   0.50001   0.17319   0.00000  Uiso   1.00
O222   O     0.22387   0.50000   0.17319   0.00000  Uiso   1.00
Zn223  Zn    0.11562   0.50001   0.25000   0.00000  Uiso   1.00
Zn224  Zn    0.21771   0.49999   0.25000   0.00000  Uiso   1.00
C225   C     0.49999   0.58004   0.25004   0.00000  Uiso   1.00
C226   C     0.45529   0.50367   0.41142   0.00000  Uiso   1.00
C227   C     0.53628   0.64532   0.26226   0.00000  Uiso   1.00
C228   C     0.47312   0.50172   0.35222   0.00000  Uiso   1.00
C229   C     0.53632   0.35462   0.26217   0.00000  Uiso   1.00
C230   C     0.50005   0.37581   0.24993   0.00000  Uiso   1.00
C231   C     0.46376   0.35465   0.23772   0.00000  Uiso   1.00
C232   C     0.46373   0.64536   0.23778   0.00000  Uiso   1.00
C233   C     0.49999   0.62418   0.25004   0.00000  Uiso   1.00
C234   C     0.65219   0.47201   0.21921   0.00000  Uiso   1.00
C235   C     0.36682   0.47203   0.21919   0.00000  Uiso   1.00
C236   C     0.47667   0.50704   0.49259   0.00000  Uiso   1.00
C237   C     0.34785   0.52806   0.28067   0.00000  Uiso   1.00
C238   C     0.63328   0.52812   0.28054   0.00000  Uiso   1.00
C239   C     0.50002   0.41996   0.24996   0.00000  Uiso   1.00
C240   C     0.52694   0.50116   0.14771   0.00000  Uiso   1.00
C241   C     0.58884   0.54822   0.00983   0.00000  Uiso   1.00
C242   C     0.54349   0.50844   0.08932   0.00000  Uiso   1.00
C243   C     0.41167   0.48404   0.44069   0.00000  Uiso   1.00
C244   C     0.39948   0.47741   0.49612   0.00000  Uiso   1.00
C245   C     0.43207   0.48768   0.02182   0.00000  Uiso   1.00
C246   C     0.48508   0.51958   0.43871   0.00000  Uiso   1.00
C247   C     0.51324   0.51446   0.01486   0.00000  Uiso   1.00
C248   C     0.55344   0.53979   0.48690   0.00000  Uiso   1.00
C249   C     0.55731   0.55696   0.43688   0.00000  Uiso   1.00
C250   C     0.52348   0.54706   0.41305   0.00000  Uiso   1.00
C251   C     0.51130   0.49666   0.06382   0.00000  Uiso   1.00
C252   C     0.58369   0.53354   0.06157   0.00000  Uiso   1.00
H253   H     0.56436   0.37087   0.27204   0.00000  Uiso   1.00
H254   H     0.48343   0.47463   0.08442   0.00000  Uiso   1.00
H255   H     0.38787   0.47252   0.42040   0.00000  Uiso   1.00
H256   H     0.42092   0.48114   0.06472   0.00000  Uiso   1.00
H257   H     0.36557   0.46260   0.01881   0.00000  Uiso   1.00
H258   H     0.52735   0.56146   0.37452   0.00000  Uiso   1.00
H259   H     0.56427   0.62905   0.27222   0.00000  Uiso   1.00
H260   H     0.43575   0.37092   0.22779   0.00000  Uiso   1.00
H261   H     0.43570   0.62911   0.22790   0.00000  Uiso   1.00
H262   H     0.64164   0.44967   0.19454   0.00000  Uiso   1.00
H263   H     0.39260   0.44969   0.19451   0.00000  Uiso   1.00
H264   H     0.35842   0.55049   0.30522   0.00000  Uiso   1.00
H265   H     0.60772   0.55076   0.30474   0.00000  Uiso   1.00
H266   H     0.58693   0.57750   0.41571   0.00000  Uiso   1.00
H267   H     0.61948   0.56769   0.48851   0.00000  Uiso   1.00
I268   I     0.63605   0.55393   0.09492   0.00000  Uiso   1.00
N269   N     0.38093   0.50001   0.25001   0.00000  Uiso   1.00
N270   N     0.61906   0.49998   0.25001   0.00000  Uiso   1.00
O271   O     0.46179   0.56108   0.25000   0.00000  Uiso   1.00
O272   O     0.53823   0.56107   0.25000   0.00000  Uiso   1.00
O273   O     0.44280   0.50000   0.32681   0.00000  Uiso   1.00
O274   O     0.51924   0.49999   0.32681   0.00000  Uiso   1.00
O275   O     0.46177   0.43893   0.25000   0.00000  Uiso   1.00
O276   O     0.53821   0.43892   0.25000   0.00000  Uiso   1.00
O277   O     0.48076   0.50001   0.17319   0.00000  Uiso   1.00
O278   O     0.55720   0.50000   0.17319   0.00000  Uiso   1.00
Zn279  Zn    0.44896   0.50001   0.25000   0.00000  Uiso   1.00
Zn280  Zn    0.55104   0.49999   0.25000   0.00000  Uiso   1.00
C281   C     0.83333   0.58004   0.25004   0.00000  Uiso   1.00
C282   C     0.78862   0.50367   0.41142   0.00000  Uiso   1.00
C283   C     0.86961   0.64532   0.26226   0.00000  Uiso   1.00
C284   C     0.80646   0.50172   0.35222   0.00000  Uiso   1.00
C285   C     0.86966   0.35462   0.26217   0.00000  Uiso   1.00
C286   C     0.83338   0.37581   0.24993   0.00000  Uiso   1.00
C287   C     0.79710   0.35465   0.23772   0.00000  Uiso   1.00
C288   C     0.79707   0.64536   0.23778   0.00000  Uiso   1.00
C289   C     0.83332   0.62418   0.25004   0.00000  Uiso   1.00
C290   C     0.98552   0.47201   0.21921   0.00000  Uiso   1.00
C291   C     0.70015   0.47203   0.21919   0.00000  Uiso   1.00
C292   C     0.81000   0.50704   0.49259   0.00000  Uiso   1.00
C293   C     0.68118   0.52806   0.28067   0.00000  Uiso   1.00
C294   C     0.96661   0.52812   0.28054   0.00000  Uiso   1.00
C295   C     0.83335   0.41996   0.24996   0.00000  Uiso   1.00
C296   C     0.86027   0.50116   0.14771   0.00000  Uiso   1.00
C297   C     0.92218   0.54822   0.00983   0.00000  Uiso   1.00
C298   C     0.87682   0.50844   0.08932   0.00000  Uiso   1.00
C299   C     0.74500   0.48404   0.44069   0.00000  Uiso   1.00
C300   C     0.73281   0.47741   0.49612   0.00000  Uiso   1.00
C301   C     0.76540   0.48768   0.02182   0.00000  Uiso   1.00
C302   C     0.81841   0.51958   0.43871   0.00000  Uiso   1.00
C303   C     0.84657   0.51446   0.01486   0.00000  Uiso   1.00
C304   C     0.88678   0.53979   0.48690   0.00000  Uiso   1.00
C305   C     0.89064   0.55696   0.43688   0.00000  Uiso   1.00
C306   C     0.85682   0.54706   0.41305   0.00000  Uiso   1.00
C307   C     0.84463   0.49666   0.06382   0.00000  Uiso   1.00
C308   C     0.91702   0.53354   0.06157   0.00000  Uiso   1.00
H309   H     0.89769   0.37087   0.27204   0.00000  Uiso   1.00
H310   H     0.81676   0.47463   0.08442   0.00000  Uiso   1.00
H311   H     0.72120   0.47252   0.42040   0.00000  Uiso   1.00
H312   H     0.75426   0.48114   0.06472   0.00000  Uiso   1.00
H313   H     0.69890   0.46260   0.01881   0.00000  Uiso   1.00
H314   H     0.86068   0.56146   0.37452   0.00000  Uiso   1.00
H315   H     0.89761   0.62905   0.27222   0.00000  Uiso   1.00
H316   H     0.76908   0.37092   0.22779   0.00000  Uiso   1.00
H317   H     0.76903   0.62911   0.22790   0.00000  Uiso   1.00
H318   H     0.97497   0.44967   0.19454   0.00000  Uiso   1.00
H319   H     0.72593   0.44969   0.19451   0.00000  Uiso   1.00
H320   H     0.69176   0.55049   0.30522   0.00000  Uiso   1.00
H321   H     0.94105   0.55076   0.30474   0.00000  Uiso   1.00
H322   H     0.92026   0.57750   0.41571   0.00000  Uiso   1.00
H323   H     0.95281   0.56769   0.48851   0.00000  Uiso   1.00
I324   I     0.96939   0.55393   0.09492   0.00000  Uiso   1.00
N325   N     0.71426   0.50001   0.25001   0.00000  Uiso   1.00
N326   N     0.95239   0.49998   0.25001   0.00000  Uiso   1.00
O327   O     0.79512   0.56108   0.25000   0.00000  Uiso   1.00
O328   O     0.87157   0.56107   0.25000   0.00000  Uiso   1.00
O329   O     0.77613   0.50000   0.32681   0.00000  Uiso   1.00
O330   O     0.85258   0.49999   0.32681   0.00000  Uiso   1.00
O331   O     0.79510   0.43893   0.25000   0.00000  Uiso   1.00
O332   O     0.87154   0.43892   0.25000   0.00000  Uiso   1.00
O333   O     0.81409   0.50001   0.17319   0.00000  Uiso   1.00
O334   O     0.89053   0.50000   0.17319   0.00000  Uiso   1.00
Zn335  Zn    0.78229   0.50001   0.25000   0.00000  Uiso   1.00
Zn336  Zn    0.88438   0.49999   0.25000   0.00000  Uiso   1.00
C337   C     0.16666   0.91337   0.25004   0.00000  Uiso   1.00
C338   C     0.12196   0.83701   0.41142   0.00000  Uiso   1.00
C339   C     0.20294   0.97866   0.26226   0.00000  Uiso   1.00
C340   C     0.13979   0.83505   0.35222   0.00000  Uiso   1.00
C341   C     0.20299   0.68795   0.26217   0.00000  Uiso   1.00
C342   C     0.16672   0.70914   0.24993   0.00000  Uiso   1.00
C343   C     0.13043   0.68798   0.23772   0.00000  Uiso   1.00
C344   C     0.13040   0.97869   0.23778   0.00000  Uiso   1.00
C345   C     0.16666   0.95751   0.25004   0.00000  Uiso   1.00
C346   C     0.31886   0.80534   0.21921   0.00000  Uiso   1.00
C347   C     0.03349   0.80537   0.21919   0.00000  Uiso   1.00
C348   C     0.14334   0.84037   0.49259   0.00000  Uiso   1.00
C349   C     0.01451   0.86140   0.28067   0.00000  Uiso   1.00
C350   C     0.29995   0.86146   0.28054   0.00000  Uiso   1.00
C351   C     0.16668   0.75329   0.24996   0.00000  Uiso   1.00
C352   C     0.19361   0.83449   0.14771   0.00000  Uiso   1.00
C353   C     0.25551   0.88155   0.00983   0.00000  Uiso   1.00
C354   C     0.21015   0.84177   0.08932   0.00000  Uiso   1.00
C355   C     0.07834   0.81738   0.44069   0.00000  Uiso   1.00
C356   C     0.06614   0.81075   0.49612   0.00000  Uiso   1.00
C357   C     0.09874   0.82101   0.02182   0.00000  Uiso   1.00
C358   C     0.15175   0.85291   0.43871   0.00000  Uiso   1.00
C359   C     0.17990   0.84779   0.01486   0.00000  Uiso   1.00
C360   C     0.22011   0.87312   0.48690   0.00000  Uiso   1.00
C361   C     0.22398   0.89030   0.43688   0.00000  Uiso   1.00
C362   C     0.19015   0.88040   0.41305   0.00000  Uiso   1.00
C363   C     0.17797   0.83000   0.06382   0.00000  Uiso   1.00
C364   C     0.25035   0.86687   0.06157   0.00000  Uiso   1.00
H365   H     0.23103   0.70420   0.27204   0.00000  Uiso   1.00
H366   H     0.15009   0.80796   0.08442   0.00000  Uiso   1.00
H367   H     0.05454   0.80585   0.42040   0.00000  Uiso   1.00
H368   H     0.08759   0.81447   0.06472   0.00000  Uiso   1.00
H369   H     0.03224   0.79593   0.01881   0.00000  Uiso   1.00
H370   H     0.19401   0.89479   0.37452   0.00000  Uiso   1.00
H371   H     0.23094   0.96238   0.27222   0.00000  Uiso   1.00
H372   H     0.10241   0.70425   0.22779   0.00000  Uiso   1.00
H373   H     0.10236   0.96244   0.22790   0.00000  Uiso   1.00
H374   H     0.30831   0.78300   0.19454   0.00000  Uiso   1.00
H375   H     0.05927   0.78302   0.19451   0.00000  Uiso   1.00
H376   H     0.02509   0.88383   0.30522   0.00000  Uiso   1.00
H377   H     0.27438   0.88409   0.30474   0.00000  Uiso   1.00
H378   H     0.25359   0.91084   0.41571   0.00000  Uiso   1.00
H379   H     0.28615   0.90103   0.48851   0.00000  Uiso   1.00
I380   I     0.30272   0.88726   0.09492   0.00000  Uiso   1.00
N381   N     0.04760   0.83334   0.25001   0.00000  Uiso   1.00
N382   N     0.28573   0.83331   0.25001   0.00000  Uiso   1.00
O383   O     0.12846   0.89442   0.25000   0.00000  Uiso   1.00
O384   O     0.20490   0.89441   0.25000   0.00000  Uiso   1.00
O385   O     0.10947   0.83333   0.32681   0.00000  Uiso   1.00
O386   O     0.18591   0.83332   0.32681   0.00000  Uiso   1.00
O387   O     0.12843   0.77226   0.25000   0.00000  Uiso   1.00
O388   O     0.20488   0.77225   0.25000   0.00000  Uiso   1.00
O389   O     0.14742   0.83335   0.17319   0.00000  Uiso   1.00
O390   O     0.22387   0.83334   0.17319   0.00000  Uiso   1.00
Zn391  Zn    0.11562   0.83334   0.25000   0.00000  Uiso   1.00
Zn392  Zn    0.21771   0.83333   0.25000   0.00000  Uiso   1.00
C393   C     0.49999   0.91337   0.25004   0.00000  Uiso   1.00
C394   C     0.45529   0.83701   0.41142   0.00000  Uiso   1.00
C395   C     0.53628   0.97866   0.26226   0.00000  Uiso   1.00
C396   C     0.47312   0.83505   0.35222   0.00000  Uiso   1.00
C397   C     0.53632   0.68795   0.26217   0.00000  Uiso   1.00
C398   C     0.50005   0.70914   0.24993   0.00000  Uiso   1.00
C399   C     0.46376   0.68798   0.23772   0.00000  Uiso   1.00
C400   C     0.46373   0.97869   0.23778   0.00000  Uiso   1.00
C401   C     0.49999   0.95751   0.25004   0.00000  Uiso   1.00
C402   C     0.65219   0.80534   0.21921   0.00000  Uiso   1.00
C403   C     0.36682   0.80537   0.21919   0.00000  Uiso   1.00
C404   C     0.47667   0.84037   0.49259   0.00000  Uiso   1.00
C405   C     0.34785   0.86140   0.28067   0.00000  Uiso   1.00
C406   C     0.63328   0.86146   0.28054   0.00000  Uiso   1.00
C407   C     0.50002   0.75329   0.24996   0.00000  Uiso   1.00
C408   C     0.52694   0.83449   0.14771   0.00000  Uiso   1.00
C409   C     0.58884   0.88155   0.00983   0.00000  Uiso   1.00
C410   C     0.54349   0.84177   0.08932   0.00000  Uiso   1.00
C411   C     0.41167   0.81738   0.44069   0.00000  Uiso   1.00
C412   C     0.39948   0.81075   0.49612   0.00000  Uiso   1.00
C413   C     0.43207   0.82101   0.02182   0.00000  Uiso   1.00
C414   C     0.48508   0.85291   0.43871   0.00000  Uiso   1.00
C415   C     0.51324   0.84779   0.01486   0.00000  Uiso   1.00
C416   C     0.55344   0.87312   0.48690   0.00000  Uiso   1.00
C417   C     0.55731   0.89030   0.43688   0.00000  Uiso   1.00
C418   C     0.52348   0.88040   0.41305   0.00000  Uiso   1.00
C419   C     0.51130   0.83000   0.06382   0.00000  Uiso   1.00
C420   C     0.58369   0.86687   0.06157   0.00000  Uiso   1.00
H421   H     0.56436   0.70420   0.27204   0.00000  Uiso   1.00
H422   H     0.48343   0.80796   0.08442   0.00000  Uiso   1.00
H423   H     0.38787   0.80585   0.42040   0.00000  Uiso   1.00
H424   H     0.42092   0.81447   0.06472   0.00000  Uiso   1.00
H425   H     0.36557   0.79593   0.01881   0.00000  Uiso   1.00
H426   H     0.52735   0.89479   0.37452   0.00000  Uiso   1.00
H427   H     0.56427   0.96238   0.27222   0.00000  Uiso   1.00
H428   H     0.43575   0.70425   0.22779   0.00000  Uiso   1.00
H429   H     0.43570   0.96244   0.22790   0.00000  Uiso   1.00
H430   H     0.64164   0.78300   0.19454   0.00000  Uiso   1.00
H431   H     0.39260   0.78302   0.19451   0.00000  Uiso   1.00
H432   H     0.35842   0.88383   0.30522   0.00000  Uiso   1.00
H433   H     0.60772   0.88409   0.30474   0.00000  Uiso   1.00
H434   H     0.58693   0.91084   0.41571   0.00000  Uiso   1.00
H435   H     0.61948   0.90103   0.48851   0.00000  Uiso   1.00
I436   I     0.63605   0.88726   0.09492   0.00000  Uiso   1.00
N437   N     0.38093   0.83334   0.25001   0.00000  Uiso   1.00
N438   N     0.61906   0.83331   0.25001   0.00000  Uiso   1.00
O439   O     0.46179   0.89442   0.25000   0.00000  Uiso   1.00
O440   O     0.53823   0.89441   0.25000   0.00000  Uiso   1.00
O441   O     0.44280   0.83333   0.32681   0.00000  Uiso   1.00
O442   O     0.51924   0.83332   0.32681   0.00000  Uiso   1.00
O443   O     0.46177   0.77226   0.25000   0.00000  Uiso   1.00
O444   O     0.53821   0.77225   0.25000   0.00000  Uiso   1.00
O445   O     0.48076   0.83335   0.17319   0.00000  Uiso   1.00
O446   O     0.55720   0.83334   0.17319   0.00000  Uiso   1.00
Zn447  Zn    0.44896   0.83334   0.25000   0.00000  Uiso   1.00
Zn448  Zn    0.55104   0.83333   0.25000   0.00000  Uiso   1.00
C449   C     0.83333   0.91337   0.25004   0.00000  Uiso   1.00
C450   C     0.78862   0.83701   0.41142   0.00000  Uiso   1.00
C451   C     0.86961   0.97866   0.26226   0.00000  Uiso   1.00
C452   C     0.80646   0.83505   0.35222   0.00000  Uiso   1.00
C453   C     0.86966   0.68795   0.26217   0.00000  Uiso   1.00
C454   C     0.83338   0.70914   0.24993   0.00000  Uiso   1.00
C455   C     0.79710   0.68798   0.23772   0.00000  Uiso   1.00
C456   C     0.79707   0.97869   0.23778   0.00000  Uiso   1.00
C457   C     0.83332   0.95751   0.25004   0.00000  Uiso   1.00
C458   C     0.98552   0.80534   0.21921   0.00000  Uiso   1.00
C459   C     0.70015   0.80537   0.21919   0.00000  Uiso   1.00
C460   C     0.81000   0.84037   0.49259   0.00000  Uiso   1.00
C461   C     0.68118   0.86140   0.28067   0.00000  Uiso   1.00
C462   C     0.96661   0.86146   0.28054   0.00000  Uiso   1.00
C463   C     0.83335   0.75329   0.24996   0.00000  Uiso   1.00
C464   C     0.86027   0.83449   0.14771   0.00000  Uiso   1.00
C465   C     0.92218   0.88155   0.00983   0.00000  Uiso   1.00
C466   C     0.87682   0.84177   0.08932   0.00000  Uiso   1.00
C467   C     0.74500   0.81738   0.44069   0.00000  Uiso   1.00
C468   C     0.73281   0.81075   0.49612   0.00000  Uiso   1.00
C469   C     0.76540   0.82101   0.02182   0.00000  Uiso   1.00
C470   C     0.81841   0.85291   0.43871   0.00000  Uiso   1.00
C471   C     0.84657   0.84779   0.01486   0.00000  Uiso   1.00
C472   C     0.88678   0.87312   0.48690   0.00000  Uiso   1.00
C473   C     0.89064   0.89030   0.43688   0.00000  Uiso   1.00
C474   C     0.85682   0.88040   0.41305   0.00000  Uiso   1.00
C475   C     0.84463   0.83000   0.06382   0.00000  Uiso   1.00
C476   C     0.91702   0.86687   0.06157   0.00000  Uiso   1.00
H477   H     0.89769   0.70420   0.27204   0.00000  Uiso   1.00
H478   H     0.81676   0.80796   0.08442   0.00000  Uiso   1.00
H479   H     0.72120   0.80585   0.42040   0.00000  Uiso   1.00
H480   H     0.75426   0.81447   0.06472   0.00000  Uiso   1.00
H481   H     0.69890   0.79593   0.01881   0.00000  Uiso   1.00
H482   H     0.86068   0.89479   0.37452   0.00000  Uiso   1.00
H483   H     0.89761   0.96238   0.27222   0.00000  Uiso   1.00
H484   H     0.76908   0.70425   0.22779   0.00000  Uiso   1.00
H485   H     0.76903   0.96244   0.22790   0.00000  Uiso   1.00
H486   H     0.97497   0.78300   0.19454   0.00000  Uiso   1.00
H487   H     0.72593   0.78302   0.19451   0.00000  Uiso   1.00
H488   H     0.69176   0.88383   0.30522   0.00000  Uiso   1.00
H489   H     0.94105   0.88409   0.30474   0.00000  Uiso   1.00
H490   H     0.92026   0.91084   0.41571   0.00000  Uiso   1.00
H491   H     0.95281   0.90103   0.48851   0.00000  Uiso   1.00
I492   I     0.96939   0.88726   0.09492   0.00000  Uiso   1.00
N493   N     0.71426   0.83334   0.25001   0.00000  Uiso   1.00
N494   N     0.95239   0.83331   0.25001   0.00000  Uiso   1.00
O495   O     0.79512   0.89442   0.25000   0.00000  Uiso   1.00
O496   O     0.87157   0.89441   0.25000   0.00000  Uiso   1.00
O497   O     0.77613   0.83333   0.32681   0.00000  Uiso   1.00
O498   O     0.85258   0.83332   0.32681   0.00000  Uiso   1.00
O499   O     0.79510   0.77226   0.25000   0.00000  Uiso   1.00
O500   O     0.87154   0.77225   0.25000   0.00000  Uiso   1.00
O501   O     0.81409   0.83335   0.17319   0.00000  Uiso   1.00
O502   O     0.89053   0.83334   0.17319   0.00000  Uiso   1.00
Zn503  Zn    0.78229   0.83334   0.25000   0.00000  Uiso   1.00
Zn504  Zn    0.88438   0.83333   0.25000   0.00000  Uiso   1.00
C505   C     0.16666   0.24670   0.75004   0.00000  Uiso   1.00
C506   C     0.12196   0.17034   0.91142   0.00000  Uiso   1.00
C507   C     0.20294   0.31199   0.76226   0.00000  Uiso   1.00
C508   C     0.13979   0.16839   0.85222   0.00000  Uiso   1.00
C509   C     0.20299   0.02129   0.76217   0.00000  Uiso   1.00
C510   C     0.16672   0.04247   0.74993   0.00000  Uiso   1.00
C511   C     0.13043   0.02132   0.73772   0.00000  Uiso   1.00
C512   C     0.13040   0.31202   0.73778   0.00000  Uiso   1.00
C513   C     0.16666   0.29084   0.75004   0.00000  Uiso   1.00
C514   C     0.31886   0.13868   0.71921   0.00000  Uiso   1.00
C515   C     0.03349   0.13870   0.71919   0.00000  Uiso   1.00
C516   C     0.14334   0.17371   0.99259   0.00000  Uiso   1.00
C517   C     0.01451   0.19473   0.78067   0.00000  Uiso   1.00
C518   C     0.29995   0.19479   0.78054   0.00000  Uiso   1.00
C519   C     0.16668   0.08662   0.74996   0.00000  Uiso   1.00
C520   C     0.19361   0.16782   0.64771   0.00000  Uiso   1.00
C521   C     0.25551   0.21489   0.50983   0.00000  Uiso   1.00
C522   C     0.21015   0.17510   0.58932   0.00000  Uiso   1.00
C523   C     0.07834   0.15071   0.94069   0.00000  Uiso   1.00
C524   C     0.06614   0.14408   0.99612   0.00000  Uiso   1.00
C525   C     0.09874   0.15434   0.52182   0.00000  Uiso   1.00
C526   C     0.15175   0.18625   0.93871   0.00000  Uiso   1.00
C527   C     0.17990   0.18112   0.51486   0.00000  Uiso   1.00
C528   C     0.22011   0.20646   0.98690   0.00000  Uiso   1.00
C529   C     0.22398   0.22363   0.93688   0.00000  Uiso   1.00
C530   C     0.19015   0.21373   0.91305   0.00000  Uiso   1.00
C531   C     0.17797   0.16333   0.56382   0.00000  Uiso   1.00
C532   C     0.25035   0.20021   0.56157   0.00000  Uiso   1.00
H533   H     0.23103   0.03753   0.77204   0.00000  Uiso   1.00
H534   H     0.15009   0.14130   0.58442   0.00000  Uiso   1.00
H535   H     0.05454   0.13919   0.92040   0.00000  Uiso   1.00
H536   H     0.08759   0.14781   0.56472   0.00000  Uiso   1.00
H537   H     0.03224   0.12927   0.51881   0.00000  Uiso   1.00
H538   H     0.19401   0.22812   0.87452   0.00000  Uiso   1.00
H539   H     0.23094   0.29571   0.77222   0.00000  Uiso   1.00
H540   H     0.10241   0.03758   0.72779   0.00000  Uiso   1.00
H541   H     0.10236   0.29578   0.72790   0.00000  Uiso   1.00
H542   H     0.30831   0.11633   0.69454   0.00000  Uiso   1.00
H543   H     0.05927   0.11636   0.69451   0.00000  Uiso   1.00
H544   H     0.02509   0.21716   0.80522   0.00000  Uiso   1.00
H545   H     0.27438   0.21742   0.80474   0.00000  Uiso   1.00
H546   H     0.25359   0.24417   0.91571   0.00000  Uiso   1.00
H547   H     0.28615   0.23436   0.98851   0.00000  Uiso   1.00
I548   I     0.30272   0.22059   0.59492   0.00000  Uiso   1.00
N549   N     0.04760   0.16668   0.75001   0.00000  Uiso   1.00
N550   N     0.28573   0.16665   0.75001   0.00000  Uiso   1.00
O551   O     0.12846   0.22775   0.75000   0.00000  Uiso   1.00
O552   O     0.20490   0.22774   0.75000   0.00000  Uiso   1.00
O553   O     0.10947   0.16666   0.82681   0.00000  Uiso   1.00
O554   O     0.18591   0.16665   0.82681   0.00000  Uiso   1.00
O555   O     0.12843   0.10559   0.75000   0.00000  Uiso   1.00
O556   O     0.20488   0.10558   0.75000   0.00000  Uiso   1.00
O557   O     0.14742   0.16668   0.67319   0.00000  Uiso   1.00
O558   O     0.22387   0.16667   0.67319   0.00000  Uiso   1.00
Zn559  Zn    0.11562   0.16667   0.75000   0.00000  Uiso   1.00
Zn560  Zn    0.21771   0.16666   0.75000   0.00000  Uiso   1.00
C561   C     0.49999   0.24670   0.75004   0.00000  Uiso   1.00
C562   C     0.45529   0.17034   0.91142   0.00000  Uiso   1.00
C563   C     0.53628   0.31199   0.76226   0.00000  Uiso   1.00
C564   C     0.47312   0.16839   0.85222   0.00000  Uiso   1.00
C565   C     0.53632   0.02129   0.76217   0.00000  Uiso   1.00
C566   C     0.50005   0.04247   0.74993   0.00000  Uiso   1.00
C567   C     0.46376   0.02132   0.73772   0.00000  Uiso   1.00
C568   C     0.46373   0.31202   0.73778   0.00000  Uiso   1.00
C569   C     0.49999   0.29084   0.75004   0.00000  Uiso   1.00
C570   C     0.65219   0.13868   0.71921   0.00000  Uiso   1.00
C571   C     0.36682   0.13870   0.71919   0.00000  Uiso   1.00
C572   C     0.47667   0.17371   0.99259   0.00000  Uiso   1.00
C573   C     0.34785   0.19473   0.78067   0.00000  Uiso   1.00
C574   C     0.63328   0.19479   0.78054   0.00000  Uiso   1.00
C575   C     0.50002   0.08662   0.74996   0.00000  Uiso   1.00
C576   C     0.52694   0.16782   0.64771   0.00000  Uiso   1.00
C577   C     0.58884   0.21489   0.50983   0.00000  Uiso   1.00
C578   C     0.54349   0.17510   0.58932   0.00000  Uiso   1.00
C579   C     0.41167   0.15071   0.94069   0.00000  Uiso   1.00
C580   C     0.39948   0.14408   0.99612   0.00000  Uiso   1.00
C581   C     0.43207   0.15434   0.52182   0.00000  Uiso   1.00
C582   C     0.48508   0.18625   0.93871   0.00000  Uiso   1.00
C583   C     0.51324   0.18112   0.51486   0.00000  Uiso   1.00
C584   C     0.55344   0.20646   0.98690   0.00000  Uiso   1.00
C585   C     0.55731   0.22363   0.93688   0.00000  Uiso   1.00
C586   C     0.52348   0.21373   0.91305   0.00000  Uiso   1.00
C587   C     0.51130   0.16333   0.56382   0.00000  Uiso   1.00
C588   C     0.58369   0.20021   0.56157   0.00000  Uiso   1.00
H589   H     0.56436   0.03753   0.77204   0.00000  Uiso   1.00
H590   H     0.48343   0.14130   0.58442   0.00000  Uiso   1.00
H591   H     0.38787   0.13919   0.92040   0.00000  Uiso   1.00
H592   H     0.42092   0.14781   0.56472   0.00000  Uiso   1.00
H593   H     0.36557   0.12927   0.51881   0.00000  Uiso   1.00
H594   H     0.52735   0.22812   0.87452   0.00000  Uiso   1.00
H595   H     0.56427   0.29571   0.77222   0.00000  Uiso   1.00
H596   H     0.43575   0.03758   0.72779   0.00000  Uiso   1.00
H597   H     0.43570   0.29578   0.72790   0.00000  Uiso   1.00
H598   H     0.64164   0.11633   0.69454   0.00000  Uiso   1.00
H599   H     0.39260   0.11636   0.69451   0.00000  Uiso   1.00
H600   H     0.35842   0.21716   0.80522   0.00000  Uiso   1.00
H601   H     0.60772   0.21742   0.80474   0.00000  Uiso   1.00
H602   H     0.58693   0.24417   0.91571   0.00000  Uiso   1.00
H603   H     0.61948   0.23436   0.98851   0.00000  Uiso   1.00
I604   I     0.63605   0.22059   0.59492   0.00000  Uiso   1.00
N605   N     0.38093   0.16668   0.75001   0.00000  Uiso   1.00
N606   N     0.61906   0.16665   0.75001   0.00000  Uiso   1.00
O607   O     0.46179   0.22775   0.75000   0.00000  Uiso   1.00
O608   O     0.53823   0.22774   0.75000   0.00000  Uiso   1.00
O609   O     0.44280   0.16666   0.82681   0.00000  Uiso   1.00
O610   O     0.51924   0.16665   0.82681   0.00000  Uiso   1.00
O611   O     0.46177   0.10559   0.75000   0.00000  Uiso   1.00
O612   O     0.53821   0.10558   0.75000   0.00000  Uiso   1.00
O613   O     0.48076   0.16668   0.67319   0.00000  Uiso   1.00
O614   O     0.55720   0.16667   0.67319   0.00000  Uiso   1.00
Zn615  Zn    0.44896   0.16667   0.75000   0.00000  Uiso   1.00
Zn616  Zn    0.55104   0.16666   0.75000   0.00000  Uiso   1.00
C617   C     0.83333   0.24670   0.75004   0.00000  Uiso   1.00
C618   C     0.78862   0.17034   0.91142   0.00000  Uiso   1.00
C619   C     0.86961   0.31199   0.76226   0.00000  Uiso   1.00
C620   C     0.80646   0.16839   0.85222   0.00000  Uiso   1.00
C621   C     0.86966   0.02129   0.76217   0.00000  Uiso   1.00
C622   C     0.83338   0.04247   0.74993   0.00000  Uiso   1.00
C623   C     0.79710   0.02132   0.73772   0.00000  Uiso   1.00
C624   C     0.79707   0.31202   0.73778   0.00000  Uiso   1.00
C625   C     0.83332   0.29084   0.75004   0.00000  Uiso   1.00
C626   C     0.98552   0.13868   0.71921   0.00000  Uiso   1.00
C627   C     0.70015   0.13870   0.71919   0.00000  Uiso   1.00
C628   C     0.81000   0.17371   0.99259   0.00000  Uiso   1.00
C629   C     0.68118   0.19473   0.78067   0.00000  Uiso   1.00
C630   C     0.96661   0.19479   0.78054   0.00000  Uiso   1.00
C631   C     0.83335   0.08662   0.74996   0.00000  Uiso   1.00
C632   C     0.86027   0.16782   0.64771   0.00000  Uiso   1.00
C633   C     0.92218   0.21489   0.50983   0.00000  Uiso   1.00
C634   C     0.87682   0.17510   0.58932   0.00000  Uiso   1.00
C635   C     0.74500   0.15071   0.94069   0.00000  Uiso   1.00
C636   C     0.73281   0.14408   0.99612   0.00000  Uiso   1.00
C637   C     0.76540   0.15434   0.52182   0.00000  Uiso   1.00
C638   C     0.81841   0.18625   0.93871   0.00000  Uiso   1.00
C639   C     0.84657   0.18112   0.51486   0.00000  Uiso   1.00
C640   C     0.88678   0.20646   0.98690   0.00000  Uiso   1.00
C641   C     0.89064   0.22363   0.93688   0.00000  Uiso   1.00
C642   C     0.85682   0.21373   0.91305   0.00000  Uiso   1.00
C643   C     0.84463   0.16333   0.56382   0.00000  Uiso   1.00
C644   C     0.91702   0.20021   0.56157   0.00000  Uiso   1.00
H645   H     0.89769   0.03753   0.77204   0.00000  Uiso   1.00
H646   H     0.81676   0.14130   0.58442   0.00000  Uiso   1.00
H647   H     0.72120   0.13919   0.92040   0.00000  Uiso   1.00
H648   H     0.75426   0.14781   0.56472   0.00000  Uiso   1.00
H649   H     0.69890   0.12927   0.51881   0.00000  Uiso   1.00
H650   H     0.86068   0.22812   0.87452   0.00000  Uiso   1.00
H651   H     0.89761   0.29571   0.77222   0.00000  Uiso   1.00
H652   H     0.76908   0.03758   0.72779   0.00000  Uiso   1.00
H653   H     0.76903   0.29578   0.72790   0.00000  Uiso   1.00
H654   H     0.97497   0.11633   0.69454   0.00000  Uiso   1.00
H655   H     0.72593   0.11636   0.69451   0.00000  Uiso   1.00
H656   H     0.69176   0.21716   0.80522   0.00000  Uiso   1.00
H657   H     0.94105   0.21742   0.80474   0.00000  Uiso   1.00
H658   H     0.92026   0.24417   0.91571   0.00000  Uiso   1.00
H659   H     0.95281   0.23436   0.98851   0.00000  Uiso   1.00
I660   I     0.96939   0.22059   0.59492   0.00000  Uiso   1.00
N661   N     0.71426   0.16668   0.75001   0.00000  Uiso   1.00
N662   N     0.95239   0.16665   0.75001   0.00000  Uiso   1.00
O663   O     0.79512   0.22775   0.75000   0.00000  Uiso   1.00
O664   O     0.87157   0.22774   0.75000   0.00000  Uiso   1.00
O665   O     0.77613   0.16666   0.82681   0.00000  Uiso   1.00
O666   O     0.85258   0.16665   0.82681   0.00000  Uiso   1.00
O667   O     0.79510   0.10559   0.75000   0.00000  Uiso   1.00
O668   O     0.87154   0.10558   0.75000   0.00000  Uiso   1.00
O669   O     0.81409   0.16668   0.67319   0.00000  Uiso   1.00
O670   O     0.89053   0.16667   0.67319   0.00000  Uiso   1.00
Zn671  Zn    0.78229   0.16667   0.75000   0.00000  Uiso   1.00
Zn672  Zn    0.88438   0.16666   0.75000   0.00000  Uiso   1.00
C673   C     0.16666   0.58004   0.75004   0.00000  Uiso   1.00
C674   C     0.12196   0.50367   0.91142   0.00000  Uiso   1.00
C675   C     0.20294   0.64532   0.76226   0.00000  Uiso   1.00
C676   C     0.13979   0.50172   0.85222   0.00000  Uiso   1.00
C677   C     0.20299   0.35462   0.76217   0.00000  Uiso   1.00
C678   C     0.16672   0.37581   0.74993   0.00000  Uiso   1.00
C679   C     0.13043   0.35465   0.73772   0.00000  Uiso   1.00
C680   C     0.13040   0.64536   0.73778   0.00000  Uiso   1.00
C681   C     0.16666   0.62418   0.75004   0.00000  Uiso   1.00
C682   C     0.31886   0.47201   0.71921   0.00000  Uiso   1.00
C683   C     0.03349   0.47203   0.71919   0.00000  Uiso   1.00
C684   C     0.14334   0.50704   0.99259   0.00000  Uiso   1.00
C685   C     0.01451   0.52806   0.78067   0.00000  Uiso   1.00
C686   C     0.29995   0.52812   0.78054   0.00000  Uiso   1.00
C687   C     0.16668   0.41996   0.74996   0.00000  Uiso   1.00
C688   C     0.19361   0.50116   0.64771   0.00000  Uiso   1.00
C689   C     0.25551   0.54822   0.50983   0.00000  Uiso   1.00
C690   C     0.21015   0.50844   0.58932   0.00000  Uiso   1.00
C691   C     0.07834   0.48404   0.94069   0.00000  Uiso   1.00
C692   C     0.06614   0.47741   0.99612   0.00000  Uiso   1.00
C693   C     0.09874   0.48768   0.52182   0.00000  Uiso   1.00
C694   C     0.15175   0.51958   0.93871   0.00000  Uiso   1.00
C695   C     0.17990   0.51446   0.51486   0.00000  Uiso   1.00
C696   C     0.22011   0.53979   0.98690   0.00000  Uiso   1.00
C697   C     0.22398   0.55696   0.93688   0.00000  Uiso   1.00
C698   C     0.19015   0.54706   0.91305   0.00000  Uiso   1.00
C699   C     0.17797   0.49666   0.56382   0.00000  Uiso   1.00
C700   C     0.25035   0.53354   0.56157   0.00000  Uiso   1.00
H701   H     0.23103   0.37087   0.77204   0.00000  Uiso   1.00
H702   H     0.15009   0.47463   0.58442   0.00000  Uiso   1.00
H703   H     0.05454   0.47252   0.92040   0.00000  Uiso   1.00
H704   H     0.08759   0.48114   0.56472   0.00000  Uiso   1.00
H705   H     0.03224   0.46260   0.51881   0.00000  Uiso   1.00
H706   H     0.19401   0.56146   0.87452   0.00000  Uiso   1.00
H707   H     0.23094   0.62905   0.77222   0.00000  Uiso   1.00
H708   H     0.10241   0.37092   0.72779   0.00000  Uiso   1.00
H709   H     0.10236   0.62911   0.72790   0.00000  Uiso   1.00
H710   H     0.30831   0.44967   0.69454   0.00000  Uiso   1.00
H711   H     0.05927   0.44969   0.69451   0.00000  Uiso   1.00
H712   H     0.02509   0.55049   0.80522   0.00000  Uiso   1.00
H713   H     0.27438   0.55076   0.80474   0.00000  Uiso   1.00
H714   H     0.25359   0.57750   0.91571   0.00000  Uiso   1.00
H715   H     0.28615   0.56769   0.98851   0.00000  Uiso   1.00
I716   I     0.30272   0.55393   0.59492   0.00000  Uiso   1.00
N717   N     0.04760   0.50001   0.75001   0.00000  Uiso   1.00
N718   N     0.28573   0.49998   0.75001   0.00000  Uiso   1.00
O719   O     0.12846   0.56108   0.75000   0.00000  Uiso   1.00
O720   O     0.20490   0.56107   0.75000   0.00000  Uiso   1.00
O721   O     0.10947   0.50000   0.82681   0.00000  Uiso   1.00
O722   O     0.18591   0.49999   0.82681   0.00000  Uiso   1.00
O723   O     0.12843   0.43893   0.75000   0.00000  Uiso   1.00
O724   O     0.20488   0.43892   0.75000   0.00000  Uiso   1.00
O725   O     0.14742   0.50001   0.67319   0.00000  Uiso   1.00
O726   O     0.22387   0.50000   0.67319   0.00000  Uiso   1.00
Zn727  Zn    0.11562   0.50001   0.75000   0.00000  Uiso   1.00
Zn728  Zn    0.21771   0.49999   0.75000   0.00000  Uiso   1.00
C729   C     0.49999   0.58004   0.75004   0.00000  Uiso   1.00
C730   C     0.45529   0.50367   0.91142   0.00000  Uiso   1.00
C731   C     0.53628   0.64532   0.76226   0.00000  Uiso   1.00
C732   C     0.47312   0.50172   0.85222   0.00000  Uiso   1.00
C733   C     0.53632   0.35462   0.76217   0.00000  Uiso   1.00
C734   C     0.50005   0.37581   0.74993   0.00000  Uiso   1.00
C735   C     0.46376   0.35465   0.73772   0.00000  Uiso   1.00
C736   C     0.46373   0.64536   0.73778   0.00000  Uiso   1.00
C737   C     0.49999   0.62418   0.75004   0.00000  Uiso   1.00
C738   C     0.65219   0.47201   0.71921   0.00000  Uiso   1.00
C739   C     0.36682   0.47203   0.71919   0.00000  Uiso   1.00
C740   C     0.47667   0.50704   0.99259   0.00000  Uiso   1.00
C741   C     0.34785   0.52806   0.78067   0.00000  Uiso   1.00
C742   C     0.63328   0.52812   0.78054   0.00000  Uiso   1.00
C743   C     0.50002   0.41996   0.74996   0.00000  Uiso   1.00
C744   C     0.52694   0.50116   0.64771   0.00000  Uiso   1.00
C745   C     0.58884   0.54822   0.50983   0.00000  Uiso   1.00
C746   C     0.54349   0.50844   0.58932   0.00000  Uiso   1.00
C747   C     0.41167   0.48404   0.94069   0.00000  Uiso   1.00
C748   C     0.39948   0.47741   0.99612   0.00000  Uiso   1.00
C749   C     0.43207   0.48768   0.52182   0.00000  Uiso   1.00
C750   C     0.48508   0.51958   0.93871   0.00000  Uiso   1.00
C751   C     0.51324   0.51446   0.51486   0.00000  Uiso   1.00
C752   C     0.55344   0.53979   0.98690   0.00000  Uiso   1.00
C753   C     0.55731   0.55696   0.93688   0.00000  Uiso   1.00
C754   C     0.52348   0.54706   0.91305   0.00000  Uiso   1.00
C755   C     0.51130   0.49666   0.56382   0.00000  Uiso   1.00
C756   C     0.58369   0.53354   0.56157   0.00000  Uiso   1.00
H757   H     0.56436   0.37087   0.77204   0.00000  Uiso   1.00
H758   H     0.48343   0.47463   0.58442   0.00000  Uiso   1.00
H759   H     0.38787   0.47252   0.92040   0.00000  Uiso   1.00
H760   H     0.42092   0.48114   0.56472   0.00000  Uiso   1.00
H761   H     0.36557   0.46260   0.51881   0.00000  Uiso   1.00
H762   H     0.52735   0.56146   0.87452   0.00000  Uiso   1.00
H763   H     0.56427   0.62905   0.77222   0.00000  Uiso   1.00
H764   H     0.43575   0.37092   0.72779   0.00000  Uiso   1.00
H765   H     0.43570   0.62911   0.72790   0.00000  Uiso   1.00
H766   H     0.64164   0.44967   0.69454   0.00000  Uiso   1.00
H767   H     0.39260   0.44969   0.69451   0.00000  Uiso   1.00
H768   H     0.35842   0.55049   0.80522   0.00000  Uiso   1.00
H769   H     0.60772   0.55076   0.80474   0.00000  Uiso   1.00
H770   H     0.58693   0.57750   0.91571   0.00000  Uiso   1.00
H771   H     0.61948   0.56769   0.98851   0.00000  Uiso   1.00
I772   I     0.63605   0.55393   0.59492   0.00000  Uiso   1.00
N773   N     0.38093   0.50001   0.75001   0.00000  Uiso   1.00
N774   N     0.61906   0.49998   0.75001   0.00000  Uiso   1.00
O775   O     0.46179   0.56108   0.75000   0.00000  Uiso   1.00
O776   O     0.53823   0.56107   0.75000   0.00000  Uiso   1.00
O777   O     0.44280   0.50000   0.82681   0.00000  Uiso   1.00
O778   O     0.51924   0.49999   0.82681   0.00000  Uiso   1.00
O779   O     0.46177   0.43893   0.75000   0.00000  Uiso   1.00
O780   O     0.53821   0.43892   0.75000   0.00000  Uiso   1.00
O781   O     0.48076   0.50001   0.67319   0.00000  Uiso   1.00
O782   O     0.55720   0.50000   0.67319   0.00000  Uiso   1.00
Zn783  Zn    0.44896   0.50001   0.75000   0.00000  Uiso   1.00
Zn784  Zn    0.55104   0.49999   0.75000   0.00000  Uiso   1.00
C785   C     0.83333   0.58004   0.75004   0.00000  Uiso   1.00
C786   C     0.78862   0.50367   0.91142   0.00000  Uiso   1.00
C787   C     0.86961   0.64532   0.76226   0.00000  Uiso   1.00
C788   C     0.80646   0.50172   0.85222   0.00000  Uiso   1.00
C789   C     0.86966   0.35462   0.76217   0.00000  Uiso   1.00
C790   C     0.83338   0.37581   0.74993   0.00000  Uiso   1.00
C791   C     0.79710   0.35465   0.73772   0.00000  Uiso   1.00
C792   C     0.79707   0.64536   0.73778   0.00000  Uiso   1.00
C793   C     0.83332   0.62418   0.75004   0.00000  Uiso   1.00
C794   C     0.98552   0.47201   0.71921   0.00000  Uiso   1.00
C795   C     0.70015   0.47203   0.71919   0.00000  Uiso   1.00
C796   C     0.81000   0.50704   0.99259   0.00000  Uiso   1.00
C797   C     0.68118   0.52806   0.78067   0.00000  Uiso   1.00
C798   C     0.96661   0.52812   0.78054   0.00000  Uiso   1.00
C799   C     0.83335   0.41996   0.74996   0.00000  Uiso   1.00
C800   C     0.86027   0.50116   0.64771   0.00000  Uiso   1.00
C801   C     0.92218   0.54822   0.50983   0.00000  Uiso   1.00
C802   C     0.87682   0.50844   0.58932   0.00000  Uiso   1.00
C803   C     0.74500   0.48404   0.94069   0.00000  Uiso   1.00
C804   C     0.73281   0.47741   0.99612   0.00000  Uiso   1.00
C805   C     0.76540   0.48768   0.52182   0.00000  Uiso   1.00
C806   C     0.81841   0.51958   0.93871   0.00000  Uiso   1.00
C807   C     0.84657   0.51446   0.51486   0.00000  Uiso   1.00
C808   C     0.88678   0.53979   0.98690   0.00000  Uiso   1.00
C809   C     0.89064   0.55696   0.93688   0.00000  Uiso   1.00
C810   C     0.85682   0.54706   0.91305   0.00000  Uiso   1.00
C811   C     0.84463   0.49666   0.56382   0.00000  Uiso   1.00
C812   C     0.91702   0.53354   0.56157   0.00000  Uiso   1.00
H813   H     0.89769   0.37087   0.77204   0.00000  Uiso   1.00
H814   H     0.81676   0.47463   0.58442   0.00000  Uiso   1.00
H815   H     0.72120   0.47252   0.92040   0.00000  Uiso   1.00
H816   H     0.75426   0.48114   0.56472   0.00000  Uiso   1.00
H817   H     0.69890   0.46260   0.51881   0.00000  Uiso   1.00
H818   H     0.86068   0.56146   0.87452   0.00000  Uiso   1.00
H819   H     0.89761   0.62905   0.77222   0.00000  Uiso   1.00
H820   H     0.76908   0.37092   0.72779   0.00000  Uiso   1.00
H821   H     0.76903   0.62911   0.72790   0.00000  Uiso   1.00
H822   H     0.97497   0.44967   0.69454   0.00000  Uiso   1.00
H823   H     0.72593   0.44969   0.69451   0.00000  Uiso   1.00
H824   H     0.69176   0.55049   0.80522   0.00000  Uiso   1.00
H825   H     0.94105   0.55076   0.80474   0.00000  Uiso   1.00
H826   H     0.92026   0.57750   0.91571   0.00000  Uiso   1.00
H827   H     0.95281   0.56769   0.98851   0.00000  Uiso   1.00
I828   I     0.96939   0.55393   0.59492   0.00000  Uiso   1.00
N829   N     0.71426   0.50001   0.75001   0.00000  Uiso   1.00
N830   N     0.95239   0.49998   0.75001   0.00000  Uiso   1.00
O831   O     0.79512   0.56108   0.75000   0.00000  Uiso   1.00
O832   O     0.87157   0.56107   0.75000   0.00000  Uiso   1.00
O833   O     0.77613   0.50000   0.82681   0.00000  Uiso   1.00
O834   O     0.85258   0.49999   0.82681   0.00000  Uiso   1.00
O835   O     0.79510   0.43893   0.75000   0.00000  Uiso   1.00
O836   O     0.87154   0.43892   0.75000   0.00000  Uiso   1.00
O837   O     0.81409   0.50001   0.67319   0.00000  Uiso   1.00
O838   O     0.89053   0.50000   0.67319   0.00000  Uiso   1.00
Zn839  Zn    0.78229   0.50001   0.75000   0.00000  Uiso   1.00
Zn840  Zn    0.88438   0.49999   0.75000   0.00000  Uiso   1.00
C841   C     0.16666   0.91337   0.75004   0.00000  Uiso   1.00
C842   C     0.12196   0.83701   0.91142   0.00000  Uiso   1.00
C843   C     0.20294   0.97866   0.76226   0.00000  Uiso   1.00
C844   C     0.13979   0.83505   0.85222   0.00000  Uiso   1.00
C845   C     0.20299   0.68795   0.76217   0.00000  Uiso   1.00
C846   C     0.16672   0.70914   0.74993   0.00000  Uiso   1.00
C847   C     0.13043   0.68798   0.73772   0.00000  Uiso   1.00
C848   C     0.13040   0.97869   0.73778   0.00000  Uiso   1.00
C849   C     0.16666   0.95751   0.75004   0.00000  Uiso   1.00
C850   C     0.31886   0.80534   0.71921   0.00000  Uiso   1.00
C851   C     0.03349   0.80537   0.71919   0.00000  Uiso   1.00
C852   C     0.14334   0.84037   0.99259   0.00000  Uiso   1.00
C853   C     0.01451   0.86140   0.78067   0.00000  Uiso   1.00
C854   C     0.29995   0.86146   0.78054   0.00000  Uiso   1.00
C855   C     0.16668   0.75329   0.74996   0.00000  Uiso   1.00
C856   C     0.19361   0.83449   0.64771   0.00000  Uiso   1.00
C857   C     0.25551   0.88155   0.50983   0.00000  Uiso   1.00
C858   C     0.21015   0.84177   0.58932   0.00000  Uiso   1.00
C859   C     0.07834   0.81738   0.94069   0.00000  Uiso   1.00
C860   C     0.06614   0.81075   0.99612   0.00000  Uiso   1.00
C861   C     0.09874   0.82101   0.52182   0.00000  Uiso   1.00
C862   C     0.15175   0.85291   0.93871   0.00000  Uiso   1.00
C863   C     0.17990   0.84779   0.51486   0.00000  Uiso   1.00
C864   C     0.22011   0.87312   0.98690   0.00000  Uiso   1.00
C865   C     0.22398   0.89030   0.93688   0.00000  Uiso   1.00
C866   C     0.19015   0.88040   0.91305   0.00000  Uiso   1.00
C867   C     0.17797   0.83000   0.56382   0.00000  Uiso   1.00
C868   C     0.25035   0.86687   0.56157   0.00000  Uiso   1.00
H869   H     0.23103   0.70420   0.77204   0.00000  Uiso   1.00
H870   H     0.15009   0.80796   0.58442   0.00000  Uiso   1.00
H871   H     0.05454   0.80585   0.92040   0.00000  Uiso   1.00
H872   H     0.08759   0.81447   0.56472   0.00000  Uiso   1.00
H873   H     0.03224   0.79593   0.51881   0.00000  Uiso   1.00
H874   H     0.19401   0.89479   0.87452   0.00000  Uiso   1.00
H875   H     0.23094   0.96238   0.77222   0.00000  Uiso   1.00
H876   H     0.10241   0.70425   0.72779   0.00000  Uiso   1.00
H877   H     0.10236   0.96244   0.72790   0.00000  Uiso   1.00
H878   H     0.30831   0.78300   0.69454   0.00000  Uiso   1.00
H879   H     0.05927   0.78302   0.69451   0.00000  Uiso   1.00
H880   H     0.02509   0.88383   0.80522   0.00000  Uiso   1.00
H881   H     0.27438   0.88409   0.80474   0.00000  Uiso   1.00
H882   H     0.25359   0.91084   0.91571   0.00000  Uiso   1.00
H883   H     0.28615   0.90103   0.98851   0.00000  Uiso   1.00
I884   I     0.30272   0.88726   0.59492   0.00000  Uiso   1.00
N885   N     0.04760   0.83334   0.75001   0.00000  Uiso   1.00
N886   N     0.28573   0.83331   0.75001   0.00000  Uiso   1.00
O887   O     0.12846   0.89442   0.75000   0.00000  Uiso   1.00
O888   O     0.20490   0.89441   0.75000   0.00000  Uiso   1.00
O889   O     0.10947   0.83333   0.82681   0.00000  Uiso   1.00
O890   O     0.18591   0.83332   0.82681   0.00000  Uiso   1.00
O891   O     0.12843   0.77226   0.75000   0.00000  Uiso   1.00
O892   O     0.20488   0.77225   0.75000   0.00000  Uiso   1.00
O893   O     0.14742   0.83335   0.67319   0.00000  Uiso   1.00
O894   O     0.22387   0.83334   0.67319   0.00000  Uiso   1.00
Zn895  Zn    0.11562   0.83334   0.75000   0.00000  Uiso   1.00
Zn896  Zn    0.21771   0.83333   0.75000   0.00000  Uiso   1.00
C897   C     0.49999   0.91337   0.75004   0.00000  Uiso   1.00
C898   C     0.45529   0.83701   0.91142   0.00000  Uiso   1.00
C899   C     0.53628   0.97866   0.76226   0.00000  Uiso   1.00
C900   C     0.47312   0.83505   0.85222   0.00000  Uiso   1.00
C901   C     0.53632   0.68795   0.76217   0.00000  Uiso   1.00
C902   C     0.50005   0.70914   0.74993   0.00000  Uiso   1.00
C903   C     0.46376   0.68798   0.73772   0.00000  Uiso   1.00
C904   C     0.46373   0.97869   0.73778   0.00000  Uiso   1.00
C905   C     0.49999   0.95751   0.75004   0.00000  Uiso   1.00
C906   C     0.65219   0.80534   0.71921   0.00000  Uiso   1.00
C907   C     0.36682   0.80537   0.71919   0.00000  Uiso   1.00
C908   C     0.47667   0.84037   0.99259   0.00000  Uiso   1.00
C909   C     0.34785   0.86140   0.78067   0.00000  Uiso   1.00
C910   C     0.63328   0.86146   0.78054   0.00000  Uiso   1.00
C911   C     0.50002   0.75329   0.74996   0.00000  Uiso   1.00
C912   C     0.52694   0.83449   0.64771   0.00000  Uiso   1.00
C913   C     0.58884   0.88155   0.50983   0.00000  Uiso   1.00
C914   C     0.54349   0.84177   0.58932   0.00000  Uiso   1.00
C915   C     0.41167   0.81738   0.94069   0.00000  Uiso   1.00
C916   C     0.39948   0.81075   0.99612   0.00000  Uiso   1.00
C917   C     0.43207   0.82101   0.52182   0.00000  Uiso   1.00
C918   C     0.48508   0.85291   0.93871   0.00000  Uiso   1.00
C919   C     0.51324   0.84779   0.51486   0.00000  Uiso   1.00
C920   C     0.55344   0.87312   0.98690   0.00000  Uiso   1.00
C921   C     0.55731   0.89030   0.93688   0.00000  Uiso   1.00
C922   C     0.52348   0.88040   0.91305   0.00000  Uiso   1.00
C923   C     0.51130   0.83000   0.56382   0.00000  Uiso   1.00
C924   C     0.58369   0.86687   0.56157   0.00000  Uiso   1.00
H925   H     0.56436   0.70420   0.77204   0.00000  Uiso   1.00
H926   H     0.48343   0.80796   0.58442   0.00000  Uiso   1.00
H927   H     0.38787   0.80585   0.92040   0.00000  Uiso   1.00
H928   H     0.42092   0.81447   0.56472   0.00000  Uiso   1.00
H929   H     0.36557   0.79593   0.51881   0.00000  Uiso   1.00
H930   H     0.52735   0.89479   0.87452   0.00000  Uiso   1.00
H931   H     0.56427   0.96238   0.77222   0.00000  Uiso   1.00
H932   H     0.43575   0.70425   0.72779   0.00000  Uiso   1.00
H933   H     0.43570   0.96244   0.72790   0.00000  Uiso   1.00
H934   H     0.64164   0.78300   0.69454   0.00000  Uiso   1.00
H935   H     0.39260   0.78302   0.69451   0.00000  Uiso   1.00
H936   H     0.35842   0.88383   0.80522   0.00000  Uiso   1.00
H937   H     0.60772   0.88409   0.80474   0.00000  Uiso   1.00
H938   H     0.58693   0.91084   0.91571   0.00000  Uiso   1.00
H939   H     0.61948   0.90103   0.98851   0.00000  Uiso   1.00
I940   I     0.63605   0.88726   0.59492   0.00000  Uiso   1.00
N941   N     0.38093   0.83334   0.75001   0.00000  Uiso   1.00
N942   N     0.61906   0.83331   0.75001   0.00000  Uiso   1.00
O943   O     0.46179   0.89442   0.75000   0.00000  Uiso   1.00
O944   O     0.53823   0.89441   0.75000   0.00000  Uiso   1.00
O945   O     0.44280   0.83333   0.82681   0.00000  Uiso   1.00
O946   O     0.51924   0.83332   0.82681   0.00000  Uiso   1.00
O947   O     0.46177   0.77226   0.75000   0.00000  Uiso   1.00
O948   O     0.53821   0.77225   0.75000   0.00000  Uiso   1.00
O949   O     0.48076   0.83335   0.67319   0.00000  Uiso   1.00
O950   O     0.55720   0.83334   0.67319   0.00000  Uiso   1.00
Zn951  Zn    0.44896   0.83334   0.75000   0.00000  Uiso   1.00
Zn952  Zn    0.55104   0.83333   0.75000   0.00000  Uiso   1.00
C953   C     0.83333   0.91337   0.75004   0.00000  Uiso   1.00
C954   C     0.78862   0.83701   0.91142   0.00000  Uiso   1.00
C955   C     0.86961   0.97866   0.76226   0.00000  Uiso   1.00
C956   C     0.80646   0.83505   0.85222   0.00000  Uiso   1.00
C957   C     0.86966   0.68795   0.76217   0.00000  Uiso   1.00
C958   C     0.83338   0.70914   0.74993   0.00000  Uiso   1.00
C959   C     0.79710   0.68798   0.73772   0.00000  Uiso   1.00
C960   C     0.79707   0.97869   0.73778   0.00000  Uiso   1.00
C961   C     0.83332   0.95751   0.75004   0.00000  Uiso   1.00
C962   C     0.98552   0.80534   0.71921   0.00000  Uiso   1.00
C963   C     0.70015   0.80537   0.71919   0.00000  Uiso   1.00
C964   C     0.81000   0.84037   0.99259   0.00000  Uiso   1.00
C965   C     0.68118   0.86140   0.78067   0.00000  Uiso   1.00
C966   C     0.96661   0.86146   0.78054   0.00000  Uiso   1.00
C967   C     0.83335   0.75329   0.74996   0.00000  Uiso   1.00
C968   C     0.86027   0.83449   0.64771   0.00000  Uiso   1.00
C969   C     0.92218   0.88155   0.50983   0.00000  Uiso   1.00
C970   C     0.87682   0.84177   0.58932   0.00000  Uiso   1.00
C971   C     0.74500   0.81738   0.94069   0.00000  Uiso   1.00
C972   C     0.73281   0.81075   0.99612   0.00000  Uiso   1.00
C973   C     0.76540   0.82101   0.52182   0.00000  Uiso   1.00
C974   C     0.81841   0.85291   0.93871   0.00000  Uiso   1.00
C975   C     0.84657   0.84779   0.51486   0.00000  Uiso   1.00
C976   C     0.88678   0.87312   0.98690   0.00000  Uiso   1.00
C977   C     0.89064   0.89030   0.93688   0.00000  Uiso   1.00
C978   C     0.85682   0.88040   0.91305   0.00000  Uiso   1.00
C979   C     0.84463   0.83000   0.56382   0.00000  Uiso   1.00
C980   C     0.91702   0.86687   0.56157   0.00000  Uiso   1.00
H981   H     0.89769   0.70420   0.77204   0.00000  Uiso   1.00
H982   H     0.81676   0.80796   0.58442   0.00000  Uiso   1.00
H983   H     0.72120   0.80585   0.92040   0.00000  Uiso   1.00
H984   H     0.75426   0.81447   0.56472   0.00000  Uiso   1.00
H985   H     0.69890   0.79593   0.51881   0.00000  Uiso   1.00
H986   H     0.86068   0.89479   0.87452   0.00000  Uiso   1.00
H987   H     0.89761   0.96238   0.77222   0.00000  Uiso   1.00
H988   H     0.76908   0.70425   0.72779   0.00000  Uiso   1.00
H989   H     0.76903   0.96244   0.72790   0.00000  Uiso   1.00
H990   H     0.97497   0.78300   0.69454   0.00000  Uiso   1.00
H991   H     0.72593   0.78302   0.69451   0.00000  Uiso   1.00
H992   H     0.69176   0.88383   0.80522   0.00000  Uiso   1.00
H993   H     0.94105   0.88409   0.80474   0.00000  Uiso   1.00
H994   H     0.92026   0.91084   0.91571   0.00000  Uiso   1.00
H995   H     0.95281   0.90103   0.98851   0.00000  Uiso   1.00
I996   I     0.96939   0.88726   0.59492   0.00000  Uiso   1.00
N997   N     0.71426   0.83334   0.75001   0.00000  Uiso   1.00
N998   N     0.95239   0.83331   0.75001   0.00000  Uiso   1.00
O999   O     0.79512   0.89442   0.75000   0.00000  Uiso   1.00
O1000  O     0.87157   0.89441   0.75000   0.00000  Uiso   1.00
O1001  O     0.77613   0.83333   0.82681   0.00000  Uiso   1.00
O1002  O     0.85258   0.83332   0.82681   0.00000  Uiso   1.00
O1003  O     0.79510   0.77226   0.75000   0.00000  Uiso   1.00
O1004  O     0.87154   0.77225   0.75000   0.00000  Uiso   1.00
O1005  O     0.81409   0.83335   0.67319   0.00000  Uiso   1.00
O1006  O     0.89053   0.83334   0.67319   0.00000  Uiso   1.00
Zn1007 Zn    0.78229   0.83334   0.75000   0.00000  Uiso   1.00
Zn1008 Zn    0.88438   0.83333   0.75000   0.00000  Uiso   1.00
loop_
_geom_bond_atom_site_label_1
_geom_bond_atom_site_label_2
_geom_bond_distance
_geom_bond_site_symmetry_2
_ccdc_geom_bond_type
C1     O48     1.282   .     A
C1     C9      1.419   .     S
C1     O47     1.283   .     A
C2     C4      1.458   .     S
C2     C22     1.409   .     A
C2     C19     1.402   .     A
C3     C9      1.397   .     A
C3     H35     1.084   .     S
C3     C173    1.370   .     S
C4     O49     1.290   .     A
C4     O50     1.293   .     A
C5     H29     1.084   .     S
C5     C6      1.397   .     A
C5     C339    1.370   1_545 S
C6     C7      1.397   .     A
C6     C15     1.419   .     S
C7     H36     1.084   .     S
C7     C344    1.370   1_545 S
C8     H37     1.084   .     S
C8     C9      1.397   .     A
C8     C175    1.370   .     S
C10    N46     1.366   .     A
C10    H38     1.082   .     S
C10    C67     1.416   .     S
C11    H39     1.082   .     S
C11    N45     1.367   .     A
C11    C122    1.416   1_455 S
C12    C22     1.408   .     A
C12    C525    1.419   .     S
C12    C527    1.415   .     S
C13    N45     1.366   .     A
C13    H40     1.082   .     S
C13    C126    1.416   1_455 S
C14    N46     1.367   .     A
C14    H41     1.081   .     S
C14    C69     1.416   .     S
C15    O51     1.283   .     A
C15    O52     1.283   .     A
C16    O54     1.289   .     A
C16    C18     1.457   .     S
C16    O53     1.295   .     A
C17    C28     1.396   .     A
C17    C528    1.401   1_554 S
C17    H547    1.084   1_554 S
C18    C28     1.412   .     A
C18    C27     1.391   .     A
C19    C20     1.389   .     A
C19    H31     1.083   .     S
C20    C525    1.393   .     S
C20    H537    1.083   .     S
C21    H32     1.079   .     S
C21    C524    1.393   1_554 S
C21    C516    1.419   1_554 S
C22    C26     1.412   .     A
C23    C27     1.390   .     A
C23    C516    1.415   1_554 S
C23    C528    1.418   1_554 S
C24    C25     1.392   .     A
C24    C521    1.401   .     S
C24    C527    1.418   .     S
C25    H42     1.084   .     S
C25    C26     1.387   .     A
C26    H34     1.082   .     S
C27    H30     1.079   .     S
C28    I44     2.127   .     S
H33    C524    1.083   1_554 S
H43    C521    1.084   .     S
N45    Zn55    2.009   .     S
N46    Zn56    2.009   .     S
O47    Zn55    2.000   .     S
O48    Zn56    1.999   .     S
O49    Zn55    1.960   .     S
O50    Zn56    1.906   .     S
O51    Zn55    1.999   .     S
O52    Zn56    2.000   .     S
O53    Zn55    1.906   .     S
O54    Zn56    1.960   .     S
C57    O104    1.282   .     A
C57    C65     1.419   .     S
C57    O103    1.283   .     A
C58    C60     1.458   .     S
C58    C78     1.409   .     A
C58    C75     1.402   .     A
C59    C65     1.397   .     A
C59    H91     1.084   .     S
C59    C229    1.370   .     S
C60    O105    1.290   .     A
C60    O106    1.293   .     A
C61    H85     1.084   .     S
C61    C62     1.397   .     A
C61    C395    1.370   1_545 S
C62    C63     1.397   .     A
C62    C71     1.419   .     S
C63    H92     1.084   .     S
C63    C400    1.370   1_545 S
C64    H93     1.084   .     S
C64    C65     1.397   .     A
C64    C231    1.370   .     S
C66    N102    1.366   .     A
C66    H94     1.082   .     S
C66    C123    1.416   .     S
C67    H95     1.082   .     S
C67    N101    1.367   .     A
C68    C78     1.408   .     A
C68    C581    1.419   .     S
C68    C583    1.415   .     S
C69    N101    1.366   .     A
C69    H96     1.082   .     S
C70    N102    1.367   .     A
C70    H97     1.081   .     S
C70    C125    1.416   .     S
C71    O107    1.283   .     A
C71    O108    1.283   .     A
C72    O110    1.289   .     A
C72    C74     1.457   .     S
C72    O109    1.295   .     A
C73    C84     1.396   .     A
C73    C584    1.401   1_554 S
C73    H603    1.084   1_554 S
C74    C84     1.412   .     A
C74    C83     1.391   .     A
C75    C76     1.389   .     A
C75    H87     1.083   .     S
C76    C581    1.393   .     S
C76    H593    1.083   .     S
C77    H88     1.079   .     S
C77    C580    1.393   1_554 S
C77    C572    1.419   1_554 S
C78    C82     1.412   .     A
C79    C83     1.390   .     A
C79    C572    1.415   1_554 S
C79    C584    1.418   1_554 S
C80    C81     1.392   .     A
C80    C577    1.401   .     S
C80    C583    1.418   .     S
C81    H98     1.084   .     S
C81    C82     1.387   .     A
C82    H90     1.082   .     S
C83    H86     1.079   .     S
C84    I100    2.127   .     S
H89    C580    1.083   1_554 S
H99    C577    1.084   .     S
N101   Zn111   2.009   .     S
N102   Zn112   2.009   .     S
O103   Zn111   2.000   .     S
O104   Zn112   1.999   .     S
O105   Zn111   1.960   .     S
O106   Zn112   1.906   .     S
O107   Zn111   1.999   .     S
O108   Zn112   2.000   .     S
O109   Zn111   1.906   .     S
O110   Zn112   1.960   .     S
C113   O160    1.282   .     A
C113   C121    1.419   .     S
C113   O159    1.283   .     A
C114   C116    1.458   .     S
C114   C134    1.409   .     A
C114   C131    1.402   .     A
C115   C121    1.397   .     A
C115   H147    1.084   .     S
C115   C285    1.370   .     S
C116   O161    1.290   .     A
C116   O162    1.293   .     A
C117   H141    1.084   .     S
C117   C118    1.397   .     A
C117   C451    1.370   1_545 S
C118   C119    1.397   .     A
C118   C127    1.419   .     S
C119   H148    1.084   .     S
C119   C456    1.370   1_545 S
C120   H149    1.084   .     S
C120   C121    1.397   .     A
C120   C287    1.370   .     S
C122   N158    1.366   .     A
C122   H150    1.082   .     S
C122   C11     1.416   1_655 S
C123   H151    1.082   .     S
C123   N157    1.367   .     A
C124   C134    1.408   .     A
C124   C637    1.419   .     S
C124   C639    1.415   .     S
C125   N157    1.366   .     A
C125   H152    1.082   .     S
C126   N158    1.367   .     A
C126   H153    1.081   .     S
C126   C13     1.416   1_655 S
C127   O163    1.283   .     A
C127   O164    1.283   .     A
C128   O166    1.289   .     A
C128   C130    1.457   .     S
C128   O165    1.295   .     A
C129   C140    1.396   .     A
C129   C640    1.401   1_554 S
C129   H659    1.084   1_554 S
C130   C140    1.412   .     A
C130   C139    1.391   .     A
C131   C132    1.389   .     A
C131   H143    1.083   .     S
C132   C637    1.393   .     S
C132   H649    1.083   .     S
C133   H144    1.079   .     S
C133   C636    1.393   1_554 S
C133   C628    1.419   1_554 S
C134   C138    1.412   .     A
C135   C139    1.390   .     A
C135   C628    1.415   1_554 S
C135   C640    1.418   1_554 S
C136   C137    1.392   .     A
C136   C633    1.401   .     S
C136   C639    1.418   .     S
C137   H154    1.084   .     S
C137   C138    1.387   .     A
C138   H146    1.082   .     S
C139   H142    1.079   .     S
C140   I156    2.127   .     S
H145   C636    1.083   1_554 S
H155   C633    1.084   .     S
N157   Zn167   2.009   .     S
N158   Zn168   2.009   .     S
O159   Zn167   2.000   .     S
O160   Zn168   1.999   .     S
O161   Zn167   1.960   .     S
O162   Zn168   1.906   .     S
O163   Zn167   1.999   .     S
O164   Zn168   2.000   .     S
O165   Zn167   1.906   .     S
O166   Zn168   1.960   .     S
C169   O216    1.282   .     A
C169   C177    1.419   .     S
C169   O215    1.283   .     A
C170   C172    1.458   .     S
C170   C190    1.409   .     A
C170   C187    1.402   .     A
C171   C177    1.397   .     A
C171   H203    1.084   .     S
C171   C341    1.370   .     S
C172   O217    1.290   .     A
C172   O218    1.293   .     A
C173   H197    1.084   .     S
C173   C174    1.397   .     A
C174   C175    1.397   .     A
C174   C183    1.419   .     S
C175   H204    1.084   .     S
C176   H205    1.084   .     S
C176   C177    1.397   .     A
C176   C343    1.370   .     S
C178   N214    1.366   .     A
C178   H206    1.082   .     S
C178   C235    1.416   .     S
C179   H207    1.082   .     S
C179   N213    1.367   .     A
C179   C290    1.416   1_455 S
C180   C190    1.408   .     A
C180   C693    1.419   .     S
C180   C695    1.415   .     S
C181   N213    1.366   .     A
C181   H208    1.082   .     S
C181   C294    1.416   1_455 S
C182   N214    1.367   .     A
C182   H209    1.081   .     S
C182   C237    1.416   .     S
C183   O219    1.283   .     A
C183   O220    1.283   .     A
C184   O222    1.289   .     A
C184   C186    1.457   .     S
C184   O221    1.295   .     A
C185   C196    1.396   .     A
C185   C696    1.401   1_554 S
C185   H715    1.084   1_554 S
C186   C196    1.412   .     A
C186   C195    1.391   .     A
C187   C188    1.389   .     A
C187   H199    1.083   .     S
C188   C693    1.393   .     S
C188   H705    1.083   .     S
C189   H200    1.079   .     S
C189   C692    1.393   1_554 S
C189   C684    1.419   1_554 S
C190   C194    1.412   .     A
C191   C195    1.390   .     A
C191   C684    1.415   1_554 S
C191   C696    1.418   1_554 S
C192   C193    1.392   .     A
C192   C689    1.401   .     S
C192   C695    1.418   .     S
C193   H210    1.084   .     S
C193   C194    1.387   .     A
C194   H202    1.082   .     S
C195   H198    1.079   .     S
C196   I212    2.127   .     S
H201   C692    1.083   1_554 S
H211   C689    1.084   .     S
N213   Zn223   2.009   .     S
N214   Zn224   2.009   .     S
O215   Zn223   2.000   .     S
O216   Zn224   1.999   .     S
O217   Zn223   1.960   .     S
O218   Zn224   1.906   .     S
O219   Zn223   1.999   .     S
O220   Zn224   2.000   .     S
O221   Zn223   1.906   .     S
O222   Zn224   1.960   .     S
C225   O272    1.282   .     A
C225   C233    1.419   .     S
C225   O271    1.283   .     A
C226   C228    1.458   .     S
C226   C246    1.409   .     A
C226   C243    1.402   .     A
C227   C233    1.397   .     A
C227   H259    1.084   .     S
C227   C397    1.370   .     S
C228   O273    1.290   .     A
C228   O274    1.293   .     A
C229   H253    1.084   .     S
C229   C230    1.397   .     A
C230   C231    1.397   .     A
C230   C239    1.419   .     S
C231   H260    1.084   .     S
C232   H261    1.084   .     S
C232   C233    1.397   .     A
C232   C399    1.370   .     S
C234   N270    1.366   .     A
C234   H262    1.082   .     S
C234   C291    1.416   .     S
C235   H263    1.082   .     S
C235   N269    1.367   .     A
C236   C246    1.408   .     A
C236   C749    1.419   .     S
C236   C751    1.415   .     S
C237   N269    1.366   .     A
C237   H264    1.082   .     S
C238   N270    1.367   .     A
C238   H265    1.081   .     S
C238   C293    1.416   .     S
C239   O275    1.283   .     A
C239   O276    1.283   .     A
C240   O278    1.289   .     A
C240   C242    1.457   .     S
C240   O277    1.295   .     A
C241   C252    1.396   .     A
C241   C752    1.401   1_554 S
C241   H771    1.084   1_554 S
C242   C252    1.412   .     A
C242   C251    1.391   .     A
C243   C244    1.389   .     A
C243   H255    1.083   .     S
C244   C749    1.393   .     S
C244   H761    1.083   .     S
C245   H256    1.079   .     S
C245   C748    1.393   1_554 S
C245   C740    1.419   1_554 S
C246   C250    1.412   .     A
C247   C251    1.390   .     A
C247   C740    1.415   1_554 S
C247   C752    1.418   1_554 S
C248   C249    1.392   .     A
C248   C745    1.401   .     S
C248   C751    1.418   .     S
C249   H266    1.084   .     S
C249   C250    1.387   .     A
C250   H258    1.082   .     S
C251   H254    1.079   .     S
C252   I268    2.127   .     S
H257   C748    1.083   1_554 S
H267   C745    1.084   .     S
N269   Zn279   2.009   .     S
N270   Zn280   2.009   .     S
O271   Zn279   2.000   .     S
O272   Zn280   1.999   .     S
O273   Zn279   1.960   .     S
O274   Zn280   1.906   .     S
O275   Zn279   1.999   .     S
O276   Zn280   2.000   .     S
O277   Zn279   1.906   .     S
O278   Zn280   1.960   .     S
C281   O328    1.282   .     A
C281   C289    1.419   .     S
C281   O327    1.283   .     A
C282   C284    1.458   .     S
C282   C302    1.409   .     A
C282   C299    1.402   .     A
C283   C289    1.397   .     A
C283   H315    1.084   .     S
C283   C453    1.370   .     S
C284   O329    1.290   .     A
C284   O330    1.293   .     A
C285   H309    1.084   .     S
C285   C286    1.397   .     A
C286   C287    1.397   .     A
C286   C295    1.419   .     S
C287   H316    1.084   .     S
C288   H317    1.084   .     S
C288   C289    1.397   .     A
C288   C455    1.370   .     S
C290   N326    1.366   .     A
C290   H318    1.082   .     S
C290   C179    1.416   1_655 S
C291   H319    1.082   .     S
C291   N325    1.367   .     A
C292   C302    1.408   .     A
C292   C805    1.419   .     S
C292   C807    1.415   .     S
C293   N325    1.366   .     A
C293   H320    1.082   .     S
C294   N326    1.367   .     A
C294   H321    1.081   .     S
C294   C181    1.416   1_655 S
C295   O331    1.283   .     A
C295   O332    1.283   .     A
C296   O334    1.289   .     A
C296   C298    1.457   .     S
C296   O333    1.295   .     A
C297   C308    1.396   .     A
C297   C808    1.401   1_554 S
C297   H827    1.084   1_554 S
C298   C308    1.412   .     A
C298   C307    1.391   .     A
C299   C300    1.389   .     A
C299   H311    1.083   .     S
C300   C805    1.393   .     S
C300   H817    1.083   .     S
C301   H312    1.079   .     S
C301   C804    1.393   1_554 S
C301   C796    1.419   1_554 S
C302   C306    1.412   .     A
C303   C307    1.390   .     A
C303   C796    1.415   1_554 S
C303   C808    1.418   1_554 S
C304   C305    1.392   .     A
C304   C801    1.401   .     S
C304   C807    1.418   .     S
C305   H322    1.084   .     S
C305   C306    1.387   .     A
C306   H314    1.082   .     S
C307   H310    1.079   .     S
C308   I324    2.127   .     S
H313   C804    1.083   1_554 S
H323   C801    1.084   .     S
N325   Zn335   2.009   .     S
N326   Zn336   2.009   .     S
O327   Zn335   2.000   .     S
O328   Zn336   1.999   .     S
O329   Zn335   1.960   .     S
O330   Zn336   1.906   .     S
O331   Zn335   1.999   .     S
O332   Zn336   2.000   .     S
O333   Zn335   1.906   .     S
O334   Zn336   1.960   .     S
C337   O384    1.282   .     A
C337   C345    1.419   .     S
C337   O383    1.283   .     A
C338   C340    1.458   .     S
C338   C358    1.409   .     A
C338   C355    1.402   .     A
C339   C345    1.397   .     A
C339   H371    1.084   .     S
C339   C5      1.370   1_565 S
C340   O385    1.290   .     A
C340   O386    1.293   .     A
C341   H365    1.084   .     S
C341   C342    1.397   .     A
C342   C343    1.397   .     A
C342   C351    1.419   .     S
C343   H372    1.084   .     S
C344   H373    1.084   .     S
C344   C345    1.397   .     A
C344   C7      1.370   1_565 S
C346   N382    1.366   .     A
C346   H374    1.082   .     S
C346   C403    1.416   .     S
C347   H375    1.082   .     S
C347   N381    1.367   .     A
C347   C458    1.416   1_455 S
C348   C358    1.408   .     A
C348   C861    1.419   .     S
C348   C863    1.415   .     S
C349   N381    1.366   .     A
C349   H376    1.082   .     S
C349   C462    1.416   1_455 S
C350   N382    1.367   .     A
C350   H377    1.081   .     S
C350   C405    1.416   .     S
C351   O387    1.283   .     A
C351   O388    1.283   .     A
C352   O390    1.289   .     A
C352   C354    1.457   .     S
C352   O389    1.295   .     A
C353   C364    1.396   .     A
C353   C864    1.401   1_554 S
C353   H883    1.084   1_554 S
C354   C364    1.412   .     A
C354   C363    1.391   .     A
C355   C356    1.389   .     A
C355   H367    1.083   .     S
C356   C861    1.393   .     S
C356   H873    1.083   .     S
C357   H368    1.079   .     S
C357   C860    1.393   1_554 S
C357   C852    1.419   1_554 S
C358   C362    1.412   .     A
C359   C363    1.390   .     A
C359   C852    1.415   1_554 S
C359   C864    1.418   1_554 S
C360   C361    1.392   .     A
C360   C857    1.401   .     S
C360   C863    1.418   .     S
C361   H378    1.084   .     S
C361   C362    1.387   .     A
C362   H370    1.082   .     S
C363   H366    1.079   .     S
C364   I380    2.127   .     S
H369   C860    1.083   1_554 S
H379   C857    1.084   .     S
N381   Zn391   2.009   .     S
N382   Zn392   2.009   .     S
O383   Zn391   2.000   .     S
O384   Zn392   1.999   .     S
O385   Zn391   1.960   .     S
O386   Zn392   1.906   .     S
O387   Zn391   1.999   .     S
O388   Zn392   2.000   .     S
O389   Zn391   1.906   .     S
O390   Zn392   1.960   .     S
C393   O440    1.282   .     A
C393   C401    1.419   .     S
C393   O439    1.283   .     A
C394   C396    1.458   .     S
C394   C414    1.409   .     A
C394   C411    1.402   .     A
C395   C401    1.397   .     A
C395   H427    1.084   .     S
C395   C61     1.370   1_565 S
C396   O441    1.290   .     A
C396   O442    1.293   .     A
C397   H421    1.084   .     S
C397   C398    1.397   .     A
C398   C399    1.397   .     A
C398   C407    1.419   .     S
C399   H428    1.084   .     S
C400   H429    1.084   .     S
C400   C401    1.397   .     A
C400   C63     1.370   1_565 S
C402   N438    1.366   .     A
C402   H430    1.082   .     S
C402   C459    1.416   .     S
C403   H431    1.082   .     S
C403   N437    1.367   .     A
C404   C414    1.408   .     A
C404   C917    1.419   .     S
C404   C919    1.415   .     S
C405   N437    1.366   .     A
C405   H432    1.082   .     S
C406   N438    1.367   .     A
C406   H433    1.081   .     S
C406   C461    1.416   .     S
C407   O443    1.283   .     A
C407   O444    1.283   .     A
C408   O446    1.289   .     A
C408   C410    1.457   .     S
C408   O445    1.295   .     A
C409   C420    1.396   .     A
C409   C920    1.401   1_554 S
C409   H939    1.084   1_554 S
C410   C420    1.412   .     A
C410   C419    1.391   .     A
C411   C412    1.389   .     A
C411   H423    1.083   .     S
C412   C917    1.393   .     S
C412   H929    1.083   .     S
C413   H424    1.079   .     S
C413   C916    1.393   1_554 S
C413   C908    1.419   1_554 S
C414   C418    1.412   .     A
C415   C419    1.390   .     A
C415   C908    1.415   1_554 S
C415   C920    1.418   1_554 S
C416   C417    1.392   .     A
C416   C913    1.401   .     S
C416   C919    1.418   .     S
C417   H434    1.084   .     S
C417   C418    1.387   .     A
C418   H426    1.082   .     S
C419   H422    1.079   .     S
C420   I436    2.127   .     S
H425   C916    1.083   1_554 S
H435   C913    1.084   .     S
N437   Zn447   2.009   .     S
N438   Zn448   2.009   .     S
O439   Zn447   2.000   .     S
O440   Zn448   1.999   .     S
O441   Zn447   1.960   .     S
O442   Zn448   1.906   .     S
O443   Zn447   1.999   .     S
O444   Zn448   2.000   .     S
O445   Zn447   1.906   .     S
O446   Zn448   1.960   .     S
C449   O496    1.282   .     A
C449   C457    1.419   .     S
C449   O495    1.283   .     A
C450   C452    1.458   .     S
C450   C470    1.409   .     A
C450   C467    1.402   .     A
C451   C457    1.397   .     A
C451   H483    1.084   .     S
C451   C117    1.370   1_565 S
C452   O497    1.290   .     A
C452   O498    1.293   .     A
C453   H477    1.084   .     S
C453   C454    1.397   .     A
C454   C455    1.397   .     A
C454   C463    1.419   .     S
C455   H484    1.084   .     S
C456   H485    1.084   .     S
C456   C457    1.397   .     A
C456   C119    1.370   1_565 S
C458   N494    1.366   .     A
C458   H486    1.082   .     S
C458   C347    1.416   1_655 S
C459   H487    1.082   .     S
C459   N493    1.367   .     A
C460   C470    1.408   .     A
C460   C973    1.419   .     S
C460   C975    1.415   .     S
C461   N493    1.366   .     A
C461   H488    1.082   .     S
C462   N494    1.367   .     A
C462   H489    1.081   .     S
C462   C349    1.416   1_655 S
C463   O499    1.283   .     A
C463   O500    1.283   .     A
C464   O502    1.289   .     A
C464   C466    1.457   .     S
C464   O501    1.295   .     A
C465   C476    1.396   .     A
C465   C976    1.401   1_554 S
C465   H995    1.084   1_554 S
C466   C476    1.412   .     A
C466   C475    1.391   .     A
C467   C468    1.389   .     A
C467   H479    1.083   .     S
C468   C973    1.393   .     S
C468   H985    1.083   .     S
C469   H480    1.079   .     S
C469   C972    1.393   1_554 S
C469   C964    1.419   1_554 S
C470   C474    1.412   .     A
C471   C475    1.390   .     A
C471   C964    1.415   1_554 S
C471   C976    1.418   1_554 S
C472   C473    1.392   .     A
C472   C969    1.401   .     S
C472   C975    1.418   .     S
C473   H490    1.084   .     S
C473   C474    1.387   .     A
C474   H482    1.082   .     S
C475   H478    1.079   .     S
C476   I492    2.127   .     S
H481   C972    1.083   1_554 S
H491   C969    1.084   .     S
N493   Zn503   2.009   .     S
N494   Zn504   2.009   .     S
O495   Zn503   2.000   .     S
O496   Zn504   1.999   .     S
O497   Zn503   1.960   .     S
O498   Zn504   1.906   .     S
O499   Zn503   1.999   .     S
O500   Zn504   2.000   .     S
O501   Zn503   1.906   .     S
O502   Zn504   1.960   .     S
C505   O552    1.282   .     A
C505   C513    1.419   .     S
C505   O551    1.283   .     A
C506   C508    1.458   .     S
C506   C526    1.409   .     A
C506   C523    1.402   .     A
C507   C513    1.397   .     A
C507   H539    1.084   .     S
C507   C677    1.370   .     S
C508   O553    1.290   .     A
C508   O554    1.293   .     A
C509   H533    1.084   .     S
C509   C510    1.397   .     A
C509   C843    1.370   1_545 S
C510   C511    1.397   .     A
C510   C519    1.419   .     S
C511   H540    1.084   .     S
C511   C848    1.370   1_545 S
C512   H541    1.084   .     S
C512   C513    1.397   .     A
C512   C679    1.370   .     S
C514   N550    1.366   .     A
C514   H542    1.082   .     S
C514   C571    1.416   .     S
C515   H543    1.082   .     S
C515   N549    1.367   .     A
C515   C626    1.416   1_455 S
C516   C526    1.408   .     A
C516   C21     1.419   1_556 S
C516   C23     1.415   1_556 S
C517   N549    1.366   .     A
C517   H544    1.082   .     S
C517   C630    1.416   1_455 S
C518   N550    1.367   .     A
C518   H545    1.081   .     S
C518   C573    1.416   .     S
C519   O555    1.283   .     A
C519   O556    1.283   .     A
C520   O558    1.289   .     A
C520   C522    1.457   .     S
C520   O557    1.295   .     A
C521   C532    1.396   .     A
C522   C532    1.412   .     A
C522   C531    1.391   .     A
C523   C524    1.389   .     A
C523   H535    1.083   .     S
C524   C21     1.393   1_556 S
C524   H33     1.083   1_556 S
C525   H536    1.079   .     S
C526   C530    1.412   .     A
C527   C531    1.390   .     A
C528   C529    1.392   .     A
C528   C17     1.401   1_556 S
C528   C23     1.418   1_556 S
C529   H546    1.084   .     S
C529   C530    1.387   .     A
C530   H538    1.082   .     S
C531   H534    1.079   .     S
C532   I548    2.127   .     S
H547   C17     1.084   1_556 S
N549   Zn559   2.009   .     S
N550   Zn560   2.009   .     S
O551   Zn559   2.000   .     S
O552   Zn560   1.999   .     S
O553   Zn559   1.960   .     S
O554   Zn560   1.906   .     S
O555   Zn559   1.999   .     S
O556   Zn560   2.000   .     S
O557   Zn559   1.906   .     S
O558   Zn560   1.960   .     S
C561   O608    1.282   .     A
C561   C569    1.419   .     S
C561   O607    1.283   .     A
C562   C564    1.458   .     S
C562   C582    1.409   .     A
C562   C579    1.402   .     A
C563   C569    1.397   .     A
C563   H595    1.084   .     S
C563   C733    1.370   .     S
C564   O609    1.290   .     A
C564   O610    1.293   .     A
C565   H589    1.084   .     S
C565   C566    1.397   .     A
C565   C899    1.370   1_545 S
C566   C567    1.397   .     A
C566   C575    1.419   .     S
C567   H596    1.084   .     S
C567   C904    1.370   1_545 S
C568   H597    1.084   .     S
C568   C569    1.397   .     A
C568   C735    1.370   .     S
C570   N606    1.366   .     A
C570   H598    1.082   .     S
C570   C627    1.416   .     S
C571   H599    1.082   .     S
C571   N605    1.367   .     A
C572   C582    1.408   .     A
C572   C77     1.419   1_556 S
C572   C79     1.415   1_556 S
C573   N605    1.366   .     A
C573   H600    1.082   .     S
C574   N606    1.367   .     A
C574   H601    1.081   .     S
C574   C629    1.416   .     S
C575   O611    1.283   .     A
C575   O612    1.283   .     A
C576   O614    1.289   .     A
C576   C578    1.457   .     S
C576   O613    1.295   .     A
C577   C588    1.396   .     A
C578   C588    1.412   .     A
C578   C587    1.391   .     A
C579   C580    1.389   .     A
C579   H591    1.083   .     S
C580   C77     1.393   1_556 S
C580   H89     1.083   1_556 S
C581   H592    1.079   .     S
C582   C586    1.412   .     A
C583   C587    1.390   .     A
C584   C585    1.392   .     A
C584   C73     1.401   1_556 S
C584   C79     1.418   1_556 S
C585   H602    1.084   .     S
C585   C586    1.387   .     A
C586   H594    1.082   .     S
C587   H590    1.079   .     S
C588   I604    2.127   .     S
H603   C73     1.084   1_556 S
N605   Zn615   2.009   .     S
N606   Zn616   2.009   .     S
O607   Zn615   2.000   .     S
O608   Zn616   1.999   .     S
O609   Zn615   1.960   .     S
O610   Zn616   1.906   .     S
O611   Zn615   1.999   .     S
O612   Zn616   2.000   .     S
O613   Zn615   1.906   .     S
O614   Zn616   1.960   .     S
C617   O664    1.282   .     A
C617   C625    1.419   .     S
C617   O663    1.283   .     A
C618   C620    1.458   .     S
C618   C638    1.409   .     A
C618   C635    1.402   .     A
C619   C625    1.397   .     A
C619   H651    1.084   .     S
C619   C789    1.370   .     S
C620   O665    1.290   .     A
C620   O666    1.293   .     A
C621   H645    1.084   .     S
C621   C622    1.397   .     A
C621   C955    1.370   1_545 S
C622   C623    1.397   .     A
C622   C631    1.419   .     S
C623   H652    1.084   .     S
C623   C960    1.370   1_545 S
C624   H653    1.084   .     S
C624   C625    1.397   .     A
C624   C791    1.370   .     S
C626   N662    1.366   .     A
C626   H654    1.082   .     S
C626   C515    1.416   1_655 S
C627   H655    1.082   .     S
C627   N661    1.367   .     A
C628   C638    1.408   .     A
C628   C133    1.419   1_556 S
C628   C135    1.415   1_556 S
C629   N661    1.366   .     A
C629   H656    1.082   .     S
C630   N662    1.367   .     A
C630   H657    1.081   .     S
C630   C517    1.416   1_655 S
C631   O667    1.283   .     A
C631   O668    1.283   .     A
C632   O670    1.289   .     A
C632   C634    1.457   .     S
C632   O669    1.295   .     A
C633   C644    1.396   .     A
C634   C644    1.412   .     A
C634   C643    1.391   .     A
C635   C636    1.389   .     A
C635   H647    1.083   .     S
C636   C133    1.393   1_556 S
C636   H145    1.083   1_556 S
C637   H648    1.079   .     S
C638   C642    1.412   .     A
C639   C643    1.390   .     A
C640   C641    1.392   .     A
C640   C129    1.401   1_556 S
C640   C135    1.418   1_556 S
C641   H658    1.084   .     S
C641   C642    1.387   .     A
C642   H650    1.082   .     S
C643   H646    1.079   .     S
C644   I660    2.127   .     S
H659   C129    1.084   1_556 S
N661   Zn671   2.009   .     S
N662   Zn672   2.009   .     S
O663   Zn671   2.000   .     S
O664   Zn672   1.999   .     S
O665   Zn671   1.960   .     S
O666   Zn672   1.906   .     S
O667   Zn671   1.999   .     S
O668   Zn672   2.000   .     S
O669   Zn671   1.906   .     S
O670   Zn672   1.960   .     S
C673   O720    1.282   .     A
C673   C681    1.419   .     S
C673   O719    1.283   .     A
C674   C676    1.458   .     S
C674   C694    1.409   .     A
C674   C691    1.402   .     A
C675   C681    1.397   .     A
C675   H707    1.084   .     S
C675   C845    1.370   .     S
C676   O721    1.290   .     A
C676   O722    1.293   .     A
C677   H701    1.084   .     S
C677   C678    1.397   .     A
C678   C679    1.397   .     A
C678   C687    1.419   .     S
C679   H708    1.084   .     S
C680   H709    1.084   .     S
C680   C681    1.397   .     A
C680   C847    1.370   .     S
C682   N718    1.366   .     A
C682   H710    1.082   .     S
C682   C739    1.416   .     S
C683   H711    1.082   .     S
C683   N717    1.367   .     A
C683   C794    1.416   1_455 S
C684   C694    1.408   .     A
C684   C189    1.419   1_556 S
C684   C191    1.415   1_556 S
C685   N717    1.366   .     A
C685   H712    1.082   .     S
C685   C798    1.416   1_455 S
C686   N718    1.367   .     A
C686   H713    1.081   .     S
C686   C741    1.416   .     S
C687   O723    1.283   .     A
C687   O724    1.283   .     A
C688   O726    1.289   .     A
C688   C690    1.457   .     S
C688   O725    1.295   .     A
C689   C700    1.396   .     A
C690   C700    1.412   .     A
C690   C699    1.391   .     A
C691   C692    1.389   .     A
C691   H703    1.083   .     S
C692   C189    1.393   1_556 S
C692   H201    1.083   1_556 S
C693   H704    1.079   .     S
C694   C698    1.412   .     A
C695   C699    1.390   .     A
C696   C697    1.392   .     A
C696   C185    1.401   1_556 S
C696   C191    1.418   1_556 S
C697   H714    1.084   .     S
C697   C698    1.387   .     A
C698   H706    1.082   .     S
C699   H702    1.079   .     S
C700   I716    2.127   .     S
H715   C185    1.084   1_556 S
N717   Zn727   2.009   .     S
N718   Zn728   2.009   .     S
O719   Zn727   2.000   .     S
O720   Zn728   1.999   .     S
O721   Zn727   1.960   .     S
O722   Zn728   1.906   .     S
O723   Zn727   1.999   .     S
O724   Zn728   2.000   .     S
O725   Zn727   1.906   .     S
O726   Zn728   1.960   .     S
C729   O776    1.282   .     A
C729   C737    1.419   .     S
C729   O775    1.283   .     A
C730   C732    1.458   .     S
C730   C750    1.409   .     A
C730   C747    1.402   .     A
C731   C737    1.397   .     A
C731   H763    1.084   .     S
C731   C901    1.370   .     S
C732   O777    1.290   .     A
C732   O778    1.293   .     A
C733   H757    1.084   .     S
C733   C734    1.397   .     A
C734   C735    1.397   .     A
C734   C743    1.419   .     S
C735   H764    1.084   .     S
C736   H765    1.084   .     S
C736   C737    1.397   .     A
C736   C903    1.370   .     S
C738   N774    1.366   .     A
C738   H766    1.082   .     S
C738   C795    1.416   .     S
C739   H767    1.082   .     S
C739   N773    1.367   .     A
C740   C750    1.408   .     A
C740   C245    1.419   1_556 S
C740   C247    1.415   1_556 S
C741   N773    1.366   .     A
C741   H768    1.082   .     S
C742   N774    1.367   .     A
C742   H769    1.081   .     S
C742   C797    1.416   .     S
C743   O779    1.283   .     A
C743   O780    1.283   .     A
C744   O782    1.289   .     A
C744   C746    1.457   .     S
C744   O781    1.295   .     A
C745   C756    1.396   .     A
C746   C756    1.412   .     A
C746   C755    1.391   .     A
C747   C748    1.389   .     A
C747   H759    1.083   .     S
C748   C245    1.393   1_556 S
C748   H257    1.083   1_556 S
C749   H760    1.079   .     S
C750   C754    1.412   .     A
C751   C755    1.390   .     A
C752   C753    1.392   .     A
C752   C241    1.401   1_556 S
C752   C247    1.418   1_556 S
C753   H770    1.084   .     S
C753   C754    1.387   .     A
C754   H762    1.082   .     S
C755   H758    1.079   .     S
C756   I772    2.127   .     S
H771   C241    1.084   1_556 S
N773   Zn783   2.009   .     S
N774   Zn784   2.009   .     S
O775   Zn783   2.000   .     S
O776   Zn784   1.999   .     S
O777   Zn783   1.960   .     S
O778   Zn784   1.906   .     S
O779   Zn783   1.999   .     S
O780   Zn784   2.000   .     S
O781   Zn783   1.906   .     S
O782   Zn784   1.960   .     S
C785   O832    1.282   .     A
C785   C793    1.419   .     S
C785   O831    1.283   .     A
C786   C788    1.458   .     S
C786   C806    1.409   .     A
C786   C803    1.402   .     A
C787   C793    1.397   .     A
C787   H819    1.084   .     S
C787   C957    1.370   .     S
C788   O833    1.290   .     A
C788   O834    1.293   .     A
C789   H813    1.084   .     S
C789   C790    1.397   .     A
C790   C791    1.397   .     A
C790   C799    1.419   .     S
C791   H820    1.084   .     S
C792   H821    1.084   .     S
C792   C793    1.397   .     A
C792   C959    1.370   .     S
C794   N830    1.366   .     A
C794   H822    1.082   .     S
C794   C683    1.416   1_655 S
C795   H823    1.082   .     S
C795   N829    1.367   .     A
C796   C806    1.408   .     A
C796   C301    1.419   1_556 S
C796   C303    1.415   1_556 S
C797   N829    1.366   .     A
C797   H824    1.082   .     S
C798   N830    1.367   .     A
C798   H825    1.081   .     S
C798   C685    1.416   1_655 S
C799   O835    1.283   .     A
C799   O836    1.283   .     A
C800   O838    1.289   .     A
C800   C802    1.457   .     S
C800   O837    1.295   .     A
C801   C812    1.396   .     A
C802   C812    1.412   .     A
C802   C811    1.391   .     A
C803   C804    1.389   .     A
C803   H815    1.083   .     S
C804   C301    1.393   1_556 S
C804   H313    1.083   1_556 S
C805   H816    1.079   .     S
C806   C810    1.412   .     A
C807   C811    1.390   .     A
C808   C809    1.392   .     A
C808   C297    1.401   1_556 S
C808   C303    1.418   1_556 S
C809   H826    1.084   .     S
C809   C810    1.387   .     A
C810   H818    1.082   .     S
C811   H814    1.079   .     S
C812   I828    2.127   .     S
H827   C297    1.084   1_556 S
N829   Zn839   2.009   .     S
N830   Zn840   2.009   .     S
O831   Zn839   2.000   .     S
O832   Zn840   1.999   .     S
O833   Zn839   1.960   .     S
O834   Zn840   1.906   .     S
O835   Zn839   1.999   .     S
O836   Zn840   2.000   .     S
O837   Zn839   1.906   .     S
O838   Zn840   1.960   .     S
C841   O888    1.282   .     A
C841   C849    1.419   .     S
C841   O887    1.283   .     A
C842   C844    1.458   .     S
C842   C862    1.409   .     A
C842   C859    1.402   .     A
C843   C849    1.397   .     A
C843   H875    1.084   .     S
C843   C509    1.370   1_565 S
C844   O889    1.290   .     A
C844   O890    1.293   .     A
C845   H869    1.084   .     S
C845   C846    1.397   .     A
C846   C847    1.397   .     A
C846   C855    1.419   .     S
C847   H876    1.084   .     S
C848   H877    1.084   .     S
C848   C849    1.397   .     A
C848   C511    1.370   1_565 S
C850   N886    1.366   .     A
C850   H878    1.082   .     S
C850   C907    1.416   .     S
C851   H879    1.082   .     S
C851   N885    1.367   .     A
C851   C962    1.416   1_455 S
C852   C862    1.408   .     A
C852   C357    1.419   1_556 S
C852   C359    1.415   1_556 S
C853   N885    1.366   .     A
C853   H880    1.082   .     S
C853   C966    1.416   1_455 S
C854   N886    1.367   .     A
C854   H881    1.081   .     S
C854   C909    1.416   .     S
C855   O891    1.283   .     A
C855   O892    1.283   .     A
C856   O894    1.289   .     A
C856   C858    1.457   .     S
C856   O893    1.295   .     A
C857   C868    1.396   .     A
C858   C868    1.412   .     A
C858   C867    1.391   .     A
C859   C860    1.389   .     A
C859   H871    1.083   .     S
C860   C357    1.393   1_556 S
C860   H369    1.083   1_556 S
C861   H872    1.079   .     S
C862   C866    1.412   .     A
C863   C867    1.390   .     A
C864   C865    1.392   .     A
C864   C353    1.401   1_556 S
C864   C359    1.418   1_556 S
C865   H882    1.084   .     S
C865   C866    1.387   .     A
C866   H874    1.082   .     S
C867   H870    1.079   .     S
C868   I884    2.127   .     S
H883   C353    1.084   1_556 S
N885   Zn895   2.009   .     S
N886   Zn896   2.009   .     S
O887   Zn895   2.000   .     S
O888   Zn896   1.999   .     S
O889   Zn895   1.960   .     S
O890   Zn896   1.906   .     S
O891   Zn895   1.999   .     S
O892   Zn896   2.000   .     S
O893   Zn895   1.906   .     S
O894   Zn896   1.960   .     S
C897   O944    1.282   .     A
C897   C905    1.419   .     S
C897   O943    1.283   .     A
C898   C900    1.458   .     S
C898   C918    1.409   .     A
C898   C915    1.402   .     A
C899   C905    1.397   .     A
C899   H931    1.084   .     S
C899   C565    1.370   1_565 S
C900   O945    1.290   .     A
C900   O946    1.293   .     A
C901   H925    1.084   .     S
C901   C902    1.397   .     A
C902   C903    1.397   .     A
C902   C911    1.419   .     S
C903   H932    1.084   .     S
C904   H933    1.084   .     S
C904   C905    1.397   .     A
C904   C567    1.370   1_565 S
C906   N942    1.366   .     A
C906   H934    1.082   .     S
C906   C963    1.416   .     S
C907   H935    1.082   .     S
C907   N941    1.367   .     A
C908   C918    1.408   .     A
C908   C413    1.419   1_556 S
C908   C415    1.415   1_556 S
C909   N941    1.366   .     A
C909   H936    1.082   .     S
C910   N942    1.367   .     A
C910   H937    1.081   .     S
C910   C965    1.416   .     S
C911   O947    1.283   .     A
C911   O948    1.283   .     A
C912   O950    1.289   .     A
C912   C914    1.457   .     S
C912   O949    1.295   .     A
C913   C924    1.396   .     A
C914   C924    1.412   .     A
C914   C923    1.391   .     A
C915   C916    1.389   .     A
C915   H927    1.083   .     S
C916   C413    1.393   1_556 S
C916   H425    1.083   1_556 S
C917   H928    1.079   .     S
C918   C922    1.412   .     A
C919   C923    1.390   .     A
C920   C921    1.392   .     A
C920   C409    1.401   1_556 S
C920   C415    1.418   1_556 S
C921   H938    1.084   .     S
C921   C922    1.387   .     A
C922   H930    1.082   .     S
C923   H926    1.079   .     S
C924   I940    2.127   .     S
H939   C409    1.084   1_556 S
N941   Zn951   2.009   .     S
N942   Zn952   2.009   .     S
O943   Zn951   2.000   .     S
O944   Zn952   1.999   .     S
O945   Zn951   1.960   .     S
O946   Zn952   1.906   .     S
O947   Zn951   1.999   .     S
O948   Zn952   2.000   .     S
O949   Zn951   1.906   .     S
O950   Zn952   1.960   .     S
C953   O1000   1.282   .     A
C953   C961    1.419   .     S
C953   O999    1.283   .     A
C954   C956    1.458   .     S
C954   C974    1.409   .     A
C954   C971    1.402   .     A
C955   C961    1.397   .     A
C955   H987    1.084   .     S
C955   C621    1.370   1_565 S
C956   O1001   1.290   .     A
C956   O1002   1.293   .     A
C957   H981    1.084   .     S
C957   C958    1.397   .     A
C958   C959    1.397   .     A
C958   C967    1.419   .     S
C959   H988    1.084   .     S
C960   H989    1.084   .     S
C960   C961    1.397   .     A
C960   C623    1.370   1_565 S
C962   N998    1.366   .     A
C962   H990    1.082   .     S
C962   C851    1.416   1_655 S
C963   H991    1.082   .     S
C963   N997    1.367   .     A
C964   C974    1.408   .     A
C964   C469    1.419   1_556 S
C964   C471    1.415   1_556 S
C965   N997    1.366   .     A
C965   H992    1.082   .     S
C966   N998    1.367   .     A
C966   H993    1.081   .     S
C966   C853    1.416   1_655 S
C967   O1003   1.283   .     A
C967   O1004   1.283   .     A
C968   O1006   1.289   .     A
C968   C970    1.457   .     S
C968   O1005   1.295   .     A
C969   C980    1.396   .     A
C970   C980    1.412   .     A
C970   C979    1.391   .     A
C971   C972    1.389   .     A
C971   H983    1.083   .     S
C972   C469    1.393   1_556 S
C972   H481    1.083   1_556 S
C973   H984    1.079   .     S
C974   C978    1.412   .     A
C975   C979    1.390   .     A
C976   C977    1.392   .     A
C976   C465    1.401   1_556 S
C976   C471    1.418   1_556 S
C977   H994    1.084   .     S
C977   C978    1.387   .     A
C978   H986    1.082   .     S
C979   H982    1.079   .     S
C980   I996    2.127   .     S
H995   C465    1.084   1_556 S
N997   Zn1007  2.009   .     S
N998   Zn1008  2.009   .     S
O999   Zn1007  2.000   .     S
O1000  Zn1008  1.999   .     S
O1001  Zn1007  1.960   .     S
O1002  Zn1008  1.906   .     S
O1003  Zn1007  1.999   .     S
O1004  Zn1008  2.000   .     S
O1005  Zn1007  1.906   .     S
O1006  Zn1008  1.960   .     S
