data_str_m3_o1_o10_pcu_sym.109
_audit_creation_date              2020-01-03
_audit_creation_method            'Materials Studio'
_symmetry_space_group_name_H-M    'P1'
_symmetry_Int_Tables_number       1
_symmetry_cell_setting            triclinic
loop_
_symmetry_equiv_pos_as_xyz
  x,y,z
_cell_length_a                    25.7705
_cell_length_b                    31.9449
_cell_length_c                    29.5968
_cell_angle_alpha                 90.2324
_cell_angle_beta                  98.5641
_cell_angle_gamma                 90.2081
loop_
_atom_site_label
_atom_site_type_symbol
_atom_site_fract_x
_atom_site_fract_y
_atom_site_fract_z
_atom_site_U_iso_or_equiv
_atom_site_adp_type
_atom_site_occupancy
C1     C     0.16809   0.08677   0.16671   0.00000  Uiso   1.00
C2     C     0.16524   0.24656   0.16662   0.00000  Uiso   1.00
C3     C     0.06706   0.16666   0.15472   0.00000  Uiso   1.00
C4     C     0.26627   0.16668   0.17862   0.00000  Uiso   1.00
C5     C     0.01203   0.16674   0.14829   0.00000  Uiso   1.00
C6     C     0.32131   0.16660   0.18504   0.00000  Uiso   1.00
C7     C     0.13288   0.02227   0.13412   0.00000  Uiso   1.00
C8     C     0.20045   0.31106   0.19922   0.00000  Uiso   1.00
C9     C     0.12897   0.31273   0.13442   0.00000  Uiso   1.00
C10    C     0.20436   0.02060   0.19892   0.00000  Uiso   1.00
C11    C     0.16390   0.29070   0.16692   0.00000  Uiso   1.00
C12    C     0.16943   0.04263   0.16641   0.00000  Uiso   1.00
C13    C     0.19954   0.19283   0.02854   0.00000  Uiso   1.00
C14    C     0.13379   0.14051   0.30479   0.00000  Uiso   1.00
C15    C     0.19933   0.19266   0.31362   0.00000  Uiso   1.00
C16    C     0.13401   0.14067   0.01971   0.00000  Uiso   1.00
H17    H     0.32478   0.16693   0.11341   0.00000  Uiso   1.00
H18    H     0.00855   0.16640   0.21992   0.00000  Uiso   1.00
H19    H     0.10588   0.03990   0.10976   0.00000  Uiso   1.00
H20    H     0.22746   0.29344   0.22358   0.00000  Uiso   1.00
H21    H     0.22526   0.21331   0.29847   0.00000  Uiso   1.00
H22    H     0.10808   0.12002   0.03486   0.00000  Uiso   1.00
N23    N     0.16665   0.16666   0.28573   0.00000  Uiso   1.00
N24    N     0.16668   0.16668   0.04760   0.00000  Uiso   1.00
O25    O     0.16666   0.10558   0.20487   0.00000  Uiso   1.00
O26    O     0.16667   0.22775   0.12846   0.00000  Uiso   1.00
O27    O     0.16666   0.10559   0.12843   0.00000  Uiso   1.00
O28    O     0.16667   0.22774   0.20490   0.00000  Uiso   1.00
O29    O     0.09058   0.16666   0.19595   0.00000  Uiso   1.00
O30    O     0.24275   0.16667   0.13739   0.00000  Uiso   1.00
O31    O     0.09058   0.16667   0.11950   0.00000  Uiso   1.00
O32    O     0.24275   0.16666   0.21383   0.00000  Uiso   1.00
Zn33   Zn    0.16667   0.16666   0.21771   0.00000  Uiso   1.00
Zn34   Zn    0.16667   0.16667   0.11563   0.00000  Uiso   1.00
O35    O     0.09018   0.29404   0.10354   0.00000  Uiso   1.00
H36    H     0.08260   0.26572   0.11437   0.00000  Uiso   1.00
O37    O     0.24316   0.03929   0.22979   0.00000  Uiso   1.00
H38    H     0.25073   0.06761   0.21896   0.00000  Uiso   1.00
O39    O     0.23244   0.21901   0.05688   0.00000  Uiso   1.00
H40    H     0.25365   0.23571   0.03810   0.00000  Uiso   1.00
O41    O     0.10089   0.11432   0.27645   0.00000  Uiso   1.00
H42    H     0.07969   0.09762   0.29524   0.00000  Uiso   1.00
C43    C     0.50142   0.08677   0.16671   0.00000  Uiso   1.00
C44    C     0.49858   0.24656   0.16662   0.00000  Uiso   1.00
C45    C     0.40040   0.16666   0.15472   0.00000  Uiso   1.00
C46    C     0.59961   0.16668   0.17862   0.00000  Uiso   1.00
C47    C     0.34536   0.16674   0.14829   0.00000  Uiso   1.00
C48    C     0.65464   0.16660   0.18504   0.00000  Uiso   1.00
C49    C     0.46621   0.02227   0.13412   0.00000  Uiso   1.00
C50    C     0.53379   0.31106   0.19922   0.00000  Uiso   1.00
C51    C     0.46230   0.31273   0.13442   0.00000  Uiso   1.00
C52    C     0.53770   0.02060   0.19892   0.00000  Uiso   1.00
C53    C     0.49724   0.29070   0.16692   0.00000  Uiso   1.00
C54    C     0.50276   0.04263   0.16641   0.00000  Uiso   1.00
C55    C     0.53288   0.19283   0.02854   0.00000  Uiso   1.00
C56    C     0.46712   0.14051   0.30479   0.00000  Uiso   1.00
C57    C     0.53266   0.19266   0.31362   0.00000  Uiso   1.00
C58    C     0.46734   0.14067   0.01971   0.00000  Uiso   1.00
H59    H     0.65812   0.16693   0.11341   0.00000  Uiso   1.00
H60    H     0.34188   0.16640   0.21992   0.00000  Uiso   1.00
H61    H     0.43921   0.03990   0.10976   0.00000  Uiso   1.00
H62    H     0.56079   0.29344   0.22358   0.00000  Uiso   1.00
H63    H     0.55859   0.21331   0.29847   0.00000  Uiso   1.00
H64    H     0.44141   0.12002   0.03486   0.00000  Uiso   1.00
N65    N     0.49999   0.16666   0.28573   0.00000  Uiso   1.00
N66    N     0.50001   0.16668   0.04760   0.00000  Uiso   1.00
O67    O     0.50000   0.10558   0.20487   0.00000  Uiso   1.00
O68    O     0.50000   0.22775   0.12846   0.00000  Uiso   1.00
O69    O     0.50000   0.10559   0.12843   0.00000  Uiso   1.00
O70    O     0.50000   0.22774   0.20490   0.00000  Uiso   1.00
O71    O     0.42392   0.16666   0.19595   0.00000  Uiso   1.00
O72    O     0.57608   0.16667   0.13739   0.00000  Uiso   1.00
O73    O     0.42392   0.16667   0.11950   0.00000  Uiso   1.00
O74    O     0.57608   0.16666   0.21383   0.00000  Uiso   1.00
Zn75   Zn    0.50000   0.16666   0.21771   0.00000  Uiso   1.00
Zn76   Zn    0.50000   0.16667   0.11563   0.00000  Uiso   1.00
O77    O     0.42351   0.29404   0.10354   0.00000  Uiso   1.00
H78    H     0.41593   0.26572   0.11437   0.00000  Uiso   1.00
O79    O     0.57649   0.03929   0.22979   0.00000  Uiso   1.00
H80    H     0.58407   0.06761   0.21896   0.00000  Uiso   1.00
O81    O     0.56577   0.21901   0.05688   0.00000  Uiso   1.00
H82    H     0.58698   0.23571   0.03810   0.00000  Uiso   1.00
O83    O     0.43423   0.11432   0.27645   0.00000  Uiso   1.00
H84    H     0.41302   0.09762   0.29524   0.00000  Uiso   1.00
C85    C     0.83476   0.08677   0.16671   0.00000  Uiso   1.00
C86    C     0.83191   0.24656   0.16662   0.00000  Uiso   1.00
C87    C     0.73373   0.16666   0.15472   0.00000  Uiso   1.00
C88    C     0.93294   0.16668   0.17862   0.00000  Uiso   1.00
C89    C     0.67869   0.16674   0.14829   0.00000  Uiso   1.00
C90    C     0.98797   0.16660   0.18504   0.00000  Uiso   1.00
C91    C     0.79955   0.02227   0.13412   0.00000  Uiso   1.00
C92    C     0.86712   0.31106   0.19922   0.00000  Uiso   1.00
C93    C     0.79564   0.31273   0.13442   0.00000  Uiso   1.00
C94    C     0.87103   0.02060   0.19892   0.00000  Uiso   1.00
C95    C     0.83057   0.29070   0.16692   0.00000  Uiso   1.00
C96    C     0.83610   0.04263   0.16641   0.00000  Uiso   1.00
C97    C     0.86621   0.19283   0.02854   0.00000  Uiso   1.00
C98    C     0.80046   0.14051   0.30479   0.00000  Uiso   1.00
C99    C     0.86600   0.19266   0.31362   0.00000  Uiso   1.00
C100   C     0.80067   0.14067   0.01971   0.00000  Uiso   1.00
H101   H     0.99145   0.16693   0.11341   0.00000  Uiso   1.00
H102   H     0.67522   0.16640   0.21992   0.00000  Uiso   1.00
H103   H     0.77254   0.03990   0.10976   0.00000  Uiso   1.00
H104   H     0.89412   0.29344   0.22358   0.00000  Uiso   1.00
H105   H     0.89192   0.21331   0.29847   0.00000  Uiso   1.00
H106   H     0.77474   0.12002   0.03486   0.00000  Uiso   1.00
N107   N     0.83332   0.16666   0.28573   0.00000  Uiso   1.00
N108   N     0.83335   0.16668   0.04760   0.00000  Uiso   1.00
O109   O     0.83333   0.10558   0.20487   0.00000  Uiso   1.00
O110   O     0.83334   0.22775   0.12846   0.00000  Uiso   1.00
O111   O     0.83333   0.10559   0.12843   0.00000  Uiso   1.00
O112   O     0.83334   0.22774   0.20490   0.00000  Uiso   1.00
O113   O     0.75725   0.16666   0.19595   0.00000  Uiso   1.00
O114   O     0.90942   0.16667   0.13739   0.00000  Uiso   1.00
O115   O     0.75725   0.16667   0.11950   0.00000  Uiso   1.00
O116   O     0.90942   0.16666   0.21383   0.00000  Uiso   1.00
Zn117  Zn    0.83333   0.16666   0.21771   0.00000  Uiso   1.00
Zn118  Zn    0.83333   0.16667   0.11563   0.00000  Uiso   1.00
O119   O     0.75685   0.29404   0.10354   0.00000  Uiso   1.00
H120   H     0.74927   0.26572   0.11437   0.00000  Uiso   1.00
O121   O     0.90982   0.03929   0.22979   0.00000  Uiso   1.00
H122   H     0.91740   0.06761   0.21896   0.00000  Uiso   1.00
O123   O     0.89911   0.21901   0.05688   0.00000  Uiso   1.00
H124   H     0.92031   0.23571   0.03810   0.00000  Uiso   1.00
O125   O     0.76756   0.11432   0.27645   0.00000  Uiso   1.00
H126   H     0.74635   0.09762   0.29524   0.00000  Uiso   1.00
C127   C     0.16809   0.42011   0.16671   0.00000  Uiso   1.00
C128   C     0.16524   0.57989   0.16662   0.00000  Uiso   1.00
C129   C     0.06706   0.49999   0.15472   0.00000  Uiso   1.00
C130   C     0.26627   0.50001   0.17862   0.00000  Uiso   1.00
C131   C     0.01203   0.50007   0.14829   0.00000  Uiso   1.00
C132   C     0.32131   0.49993   0.18504   0.00000  Uiso   1.00
C133   C     0.13288   0.35561   0.13412   0.00000  Uiso   1.00
C134   C     0.20045   0.64439   0.19922   0.00000  Uiso   1.00
C135   C     0.12897   0.64606   0.13442   0.00000  Uiso   1.00
C136   C     0.20436   0.35394   0.19892   0.00000  Uiso   1.00
C137   C     0.16390   0.62403   0.16692   0.00000  Uiso   1.00
C138   C     0.16943   0.37597   0.16641   0.00000  Uiso   1.00
C139   C     0.19954   0.52616   0.02854   0.00000  Uiso   1.00
C140   C     0.13379   0.47384   0.30479   0.00000  Uiso   1.00
C141   C     0.19933   0.52599   0.31362   0.00000  Uiso   1.00
C142   C     0.13401   0.47401   0.01971   0.00000  Uiso   1.00
H143   H     0.32478   0.50027   0.11341   0.00000  Uiso   1.00
H144   H     0.00855   0.49973   0.21992   0.00000  Uiso   1.00
H145   H     0.10588   0.37323   0.10976   0.00000  Uiso   1.00
H146   H     0.22746   0.62677   0.22358   0.00000  Uiso   1.00
H147   H     0.22526   0.54664   0.29847   0.00000  Uiso   1.00
H148   H     0.10808   0.45336   0.03486   0.00000  Uiso   1.00
N149   N     0.16665   0.49999   0.28573   0.00000  Uiso   1.00
N150   N     0.16668   0.50001   0.04760   0.00000  Uiso   1.00
O151   O     0.16666   0.43892   0.20487   0.00000  Uiso   1.00
O152   O     0.16667   0.56108   0.12846   0.00000  Uiso   1.00
O153   O     0.16666   0.43893   0.12843   0.00000  Uiso   1.00
O154   O     0.16667   0.56107   0.20490   0.00000  Uiso   1.00
O155   O     0.09058   0.50000   0.19595   0.00000  Uiso   1.00
O156   O     0.24275   0.50000   0.13739   0.00000  Uiso   1.00
O157   O     0.09058   0.50000   0.11950   0.00000  Uiso   1.00
O158   O     0.24275   0.50000   0.21383   0.00000  Uiso   1.00
Zn159  Zn    0.16667   0.49999   0.21771   0.00000  Uiso   1.00
Zn160  Zn    0.16667   0.50001   0.11563   0.00000  Uiso   1.00
O161   O     0.09018   0.62737   0.10354   0.00000  Uiso   1.00
H162   H     0.08260   0.59906   0.11437   0.00000  Uiso   1.00
O163   O     0.24316   0.37263   0.22979   0.00000  Uiso   1.00
H164   H     0.25073   0.40094   0.21896   0.00000  Uiso   1.00
O165   O     0.23244   0.55234   0.05688   0.00000  Uiso   1.00
H166   H     0.25365   0.56904   0.03810   0.00000  Uiso   1.00
O167   O     0.10089   0.44766   0.27645   0.00000  Uiso   1.00
H168   H     0.07969   0.43096   0.29524   0.00000  Uiso   1.00
C169   C     0.50142   0.42011   0.16671   0.00000  Uiso   1.00
C170   C     0.49858   0.57989   0.16662   0.00000  Uiso   1.00
C171   C     0.40040   0.49999   0.15472   0.00000  Uiso   1.00
C172   C     0.59961   0.50001   0.17862   0.00000  Uiso   1.00
C173   C     0.34536   0.50007   0.14829   0.00000  Uiso   1.00
C174   C     0.65464   0.49993   0.18504   0.00000  Uiso   1.00
C175   C     0.46621   0.35561   0.13412   0.00000  Uiso   1.00
C176   C     0.53379   0.64439   0.19922   0.00000  Uiso   1.00
C177   C     0.46230   0.64606   0.13442   0.00000  Uiso   1.00
C178   C     0.53770   0.35394   0.19892   0.00000  Uiso   1.00
C179   C     0.49724   0.62403   0.16692   0.00000  Uiso   1.00
C180   C     0.50276   0.37597   0.16641   0.00000  Uiso   1.00
C181   C     0.53288   0.52616   0.02854   0.00000  Uiso   1.00
C182   C     0.46712   0.47384   0.30479   0.00000  Uiso   1.00
C183   C     0.53266   0.52599   0.31362   0.00000  Uiso   1.00
C184   C     0.46734   0.47401   0.01971   0.00000  Uiso   1.00
H185   H     0.65812   0.50027   0.11341   0.00000  Uiso   1.00
H186   H     0.34188   0.49973   0.21992   0.00000  Uiso   1.00
H187   H     0.43921   0.37323   0.10976   0.00000  Uiso   1.00
H188   H     0.56079   0.62677   0.22358   0.00000  Uiso   1.00
H189   H     0.55859   0.54664   0.29847   0.00000  Uiso   1.00
H190   H     0.44141   0.45336   0.03486   0.00000  Uiso   1.00
N191   N     0.49999   0.49999   0.28573   0.00000  Uiso   1.00
N192   N     0.50001   0.50001   0.04760   0.00000  Uiso   1.00
O193   O     0.50000   0.43892   0.20487   0.00000  Uiso   1.00
O194   O     0.50000   0.56108   0.12846   0.00000  Uiso   1.00
O195   O     0.50000   0.43893   0.12843   0.00000  Uiso   1.00
O196   O     0.50000   0.56107   0.20490   0.00000  Uiso   1.00
O197   O     0.42392   0.50000   0.19595   0.00000  Uiso   1.00
O198   O     0.57608   0.50000   0.13739   0.00000  Uiso   1.00
O199   O     0.42392   0.50000   0.11950   0.00000  Uiso   1.00
O200   O     0.57608   0.50000   0.21383   0.00000  Uiso   1.00
Zn201  Zn    0.50000   0.49999   0.21771   0.00000  Uiso   1.00
Zn202  Zn    0.50000   0.50001   0.11563   0.00000  Uiso   1.00
O203   O     0.42351   0.62737   0.10354   0.00000  Uiso   1.00
H204   H     0.41593   0.59906   0.11437   0.00000  Uiso   1.00
O205   O     0.57649   0.37263   0.22979   0.00000  Uiso   1.00
H206   H     0.58407   0.40094   0.21896   0.00000  Uiso   1.00
O207   O     0.56577   0.55234   0.05688   0.00000  Uiso   1.00
H208   H     0.58698   0.56904   0.03810   0.00000  Uiso   1.00
O209   O     0.43423   0.44766   0.27645   0.00000  Uiso   1.00
H210   H     0.41302   0.43096   0.29524   0.00000  Uiso   1.00
C211   C     0.83476   0.42011   0.16671   0.00000  Uiso   1.00
C212   C     0.83191   0.57989   0.16662   0.00000  Uiso   1.00
C213   C     0.73373   0.49999   0.15472   0.00000  Uiso   1.00
C214   C     0.93294   0.50001   0.17862   0.00000  Uiso   1.00
C215   C     0.67869   0.50007   0.14829   0.00000  Uiso   1.00
C216   C     0.98797   0.49993   0.18504   0.00000  Uiso   1.00
C217   C     0.79955   0.35561   0.13412   0.00000  Uiso   1.00
C218   C     0.86712   0.64439   0.19922   0.00000  Uiso   1.00
C219   C     0.79564   0.64606   0.13442   0.00000  Uiso   1.00
C220   C     0.87103   0.35394   0.19892   0.00000  Uiso   1.00
C221   C     0.83057   0.62403   0.16692   0.00000  Uiso   1.00
C222   C     0.83610   0.37597   0.16641   0.00000  Uiso   1.00
C223   C     0.86621   0.52616   0.02854   0.00000  Uiso   1.00
C224   C     0.80046   0.47384   0.30479   0.00000  Uiso   1.00
C225   C     0.86600   0.52599   0.31362   0.00000  Uiso   1.00
C226   C     0.80067   0.47401   0.01971   0.00000  Uiso   1.00
H227   H     0.99145   0.50027   0.11341   0.00000  Uiso   1.00
H228   H     0.67522   0.49973   0.21992   0.00000  Uiso   1.00
H229   H     0.77254   0.37323   0.10976   0.00000  Uiso   1.00
H230   H     0.89412   0.62677   0.22358   0.00000  Uiso   1.00
H231   H     0.89192   0.54664   0.29847   0.00000  Uiso   1.00
H232   H     0.77474   0.45336   0.03486   0.00000  Uiso   1.00
N233   N     0.83332   0.49999   0.28573   0.00000  Uiso   1.00
N234   N     0.83335   0.50001   0.04760   0.00000  Uiso   1.00
O235   O     0.83333   0.43892   0.20487   0.00000  Uiso   1.00
O236   O     0.83334   0.56108   0.12846   0.00000  Uiso   1.00
O237   O     0.83333   0.43893   0.12843   0.00000  Uiso   1.00
O238   O     0.83334   0.56107   0.20490   0.00000  Uiso   1.00
O239   O     0.75725   0.50000   0.19595   0.00000  Uiso   1.00
O240   O     0.90942   0.50000   0.13739   0.00000  Uiso   1.00
O241   O     0.75725   0.50000   0.11950   0.00000  Uiso   1.00
O242   O     0.90942   0.50000   0.21383   0.00000  Uiso   1.00
Zn243  Zn    0.83333   0.49999   0.21771   0.00000  Uiso   1.00
Zn244  Zn    0.83333   0.50001   0.11563   0.00000  Uiso   1.00
O245   O     0.75685   0.62737   0.10354   0.00000  Uiso   1.00
H246   H     0.74927   0.59906   0.11437   0.00000  Uiso   1.00
O247   O     0.90982   0.37263   0.22979   0.00000  Uiso   1.00
H248   H     0.91740   0.40094   0.21896   0.00000  Uiso   1.00
O249   O     0.89911   0.55234   0.05688   0.00000  Uiso   1.00
H250   H     0.92031   0.56904   0.03810   0.00000  Uiso   1.00
O251   O     0.76756   0.44766   0.27645   0.00000  Uiso   1.00
H252   H     0.74635   0.43096   0.29524   0.00000  Uiso   1.00
C253   C     0.16809   0.75344   0.16671   0.00000  Uiso   1.00
C254   C     0.16524   0.91323   0.16662   0.00000  Uiso   1.00
C255   C     0.06706   0.83332   0.15472   0.00000  Uiso   1.00
C256   C     0.26627   0.83334   0.17862   0.00000  Uiso   1.00
C257   C     0.01203   0.83340   0.14829   0.00000  Uiso   1.00
C258   C     0.32131   0.83326   0.18504   0.00000  Uiso   1.00
C259   C     0.13288   0.68894   0.13412   0.00000  Uiso   1.00
C260   C     0.20045   0.97773   0.19922   0.00000  Uiso   1.00
C261   C     0.12897   0.97940   0.13442   0.00000  Uiso   1.00
C262   C     0.20436   0.68727   0.19892   0.00000  Uiso   1.00
C263   C     0.16390   0.95737   0.16692   0.00000  Uiso   1.00
C264   C     0.16943   0.70930   0.16641   0.00000  Uiso   1.00
C265   C     0.19954   0.85949   0.02854   0.00000  Uiso   1.00
C266   C     0.13379   0.80717   0.30479   0.00000  Uiso   1.00
C267   C     0.19933   0.85933   0.31362   0.00000  Uiso   1.00
C268   C     0.13401   0.80734   0.01971   0.00000  Uiso   1.00
H269   H     0.32478   0.83360   0.11341   0.00000  Uiso   1.00
H270   H     0.00855   0.83307   0.21992   0.00000  Uiso   1.00
H271   H     0.10588   0.70656   0.10976   0.00000  Uiso   1.00
H272   H     0.22746   0.96010   0.22358   0.00000  Uiso   1.00
H273   H     0.22526   0.87998   0.29847   0.00000  Uiso   1.00
H274   H     0.10808   0.78669   0.03486   0.00000  Uiso   1.00
N275   N     0.16665   0.83332   0.28573   0.00000  Uiso   1.00
N276   N     0.16668   0.83334   0.04760   0.00000  Uiso   1.00
O277   O     0.16666   0.77225   0.20487   0.00000  Uiso   1.00
O278   O     0.16667   0.89442   0.12846   0.00000  Uiso   1.00
O279   O     0.16666   0.77226   0.12843   0.00000  Uiso   1.00
O280   O     0.16667   0.89441   0.20490   0.00000  Uiso   1.00
O281   O     0.09058   0.83333   0.19595   0.00000  Uiso   1.00
O282   O     0.24275   0.83334   0.13739   0.00000  Uiso   1.00
O283   O     0.09058   0.83334   0.11950   0.00000  Uiso   1.00
O284   O     0.24275   0.83333   0.21383   0.00000  Uiso   1.00
Zn285  Zn    0.16667   0.83333   0.21771   0.00000  Uiso   1.00
Zn286  Zn    0.16667   0.83334   0.11563   0.00000  Uiso   1.00
O287   O     0.09018   0.96071   0.10354   0.00000  Uiso   1.00
H288   H     0.08260   0.93239   0.11437   0.00000  Uiso   1.00
O289   O     0.24316   0.70596   0.22979   0.00000  Uiso   1.00
H290   H     0.25073   0.73428   0.21896   0.00000  Uiso   1.00
O291   O     0.23244   0.88568   0.05688   0.00000  Uiso   1.00
H292   H     0.25365   0.90238   0.03810   0.00000  Uiso   1.00
O293   O     0.10089   0.78099   0.27645   0.00000  Uiso   1.00
H294   H     0.07969   0.76429   0.29524   0.00000  Uiso   1.00
C295   C     0.50142   0.75344   0.16671   0.00000  Uiso   1.00
C296   C     0.49858   0.91323   0.16662   0.00000  Uiso   1.00
C297   C     0.40040   0.83332   0.15472   0.00000  Uiso   1.00
C298   C     0.59961   0.83334   0.17862   0.00000  Uiso   1.00
C299   C     0.34536   0.83340   0.14829   0.00000  Uiso   1.00
C300   C     0.65464   0.83326   0.18504   0.00000  Uiso   1.00
C301   C     0.46621   0.68894   0.13412   0.00000  Uiso   1.00
C302   C     0.53379   0.97773   0.19922   0.00000  Uiso   1.00
C303   C     0.46230   0.97940   0.13442   0.00000  Uiso   1.00
C304   C     0.53770   0.68727   0.19892   0.00000  Uiso   1.00
C305   C     0.49724   0.95737   0.16692   0.00000  Uiso   1.00
C306   C     0.50276   0.70930   0.16641   0.00000  Uiso   1.00
C307   C     0.53288   0.85949   0.02854   0.00000  Uiso   1.00
C308   C     0.46712   0.80717   0.30479   0.00000  Uiso   1.00
C309   C     0.53266   0.85933   0.31362   0.00000  Uiso   1.00
C310   C     0.46734   0.80734   0.01971   0.00000  Uiso   1.00
H311   H     0.65812   0.83360   0.11341   0.00000  Uiso   1.00
H312   H     0.34188   0.83307   0.21992   0.00000  Uiso   1.00
H313   H     0.43921   0.70656   0.10976   0.00000  Uiso   1.00
H314   H     0.56079   0.96010   0.22358   0.00000  Uiso   1.00
H315   H     0.55859   0.87998   0.29847   0.00000  Uiso   1.00
H316   H     0.44141   0.78669   0.03486   0.00000  Uiso   1.00
N317   N     0.49999   0.83332   0.28573   0.00000  Uiso   1.00
N318   N     0.50001   0.83334   0.04760   0.00000  Uiso   1.00
O319   O     0.50000   0.77225   0.20487   0.00000  Uiso   1.00
O320   O     0.50000   0.89442   0.12846   0.00000  Uiso   1.00
O321   O     0.50000   0.77226   0.12843   0.00000  Uiso   1.00
O322   O     0.50000   0.89441   0.20490   0.00000  Uiso   1.00
O323   O     0.42392   0.83333   0.19595   0.00000  Uiso   1.00
O324   O     0.57608   0.83334   0.13739   0.00000  Uiso   1.00
O325   O     0.42392   0.83334   0.11950   0.00000  Uiso   1.00
O326   O     0.57608   0.83333   0.21383   0.00000  Uiso   1.00
Zn327  Zn    0.50000   0.83333   0.21771   0.00000  Uiso   1.00
Zn328  Zn    0.50000   0.83334   0.11563   0.00000  Uiso   1.00
O329   O     0.42351   0.96071   0.10354   0.00000  Uiso   1.00
H330   H     0.41593   0.93239   0.11437   0.00000  Uiso   1.00
O331   O     0.57649   0.70596   0.22979   0.00000  Uiso   1.00
H332   H     0.58407   0.73428   0.21896   0.00000  Uiso   1.00
O333   O     0.56577   0.88568   0.05688   0.00000  Uiso   1.00
H334   H     0.58698   0.90238   0.03810   0.00000  Uiso   1.00
O335   O     0.43423   0.78099   0.27645   0.00000  Uiso   1.00
H336   H     0.41302   0.76429   0.29524   0.00000  Uiso   1.00
C337   C     0.83476   0.75344   0.16671   0.00000  Uiso   1.00
C338   C     0.83191   0.91323   0.16662   0.00000  Uiso   1.00
C339   C     0.73373   0.83332   0.15472   0.00000  Uiso   1.00
C340   C     0.93294   0.83334   0.17862   0.00000  Uiso   1.00
C341   C     0.67869   0.83340   0.14829   0.00000  Uiso   1.00
C342   C     0.98797   0.83326   0.18504   0.00000  Uiso   1.00
C343   C     0.79955   0.68894   0.13412   0.00000  Uiso   1.00
C344   C     0.86712   0.97773   0.19922   0.00000  Uiso   1.00
C345   C     0.79564   0.97940   0.13442   0.00000  Uiso   1.00
C346   C     0.87103   0.68727   0.19892   0.00000  Uiso   1.00
C347   C     0.83057   0.95737   0.16692   0.00000  Uiso   1.00
C348   C     0.83610   0.70930   0.16641   0.00000  Uiso   1.00
C349   C     0.86621   0.85949   0.02854   0.00000  Uiso   1.00
C350   C     0.80046   0.80717   0.30479   0.00000  Uiso   1.00
C351   C     0.86600   0.85933   0.31362   0.00000  Uiso   1.00
C352   C     0.80067   0.80734   0.01971   0.00000  Uiso   1.00
H353   H     0.99145   0.83360   0.11341   0.00000  Uiso   1.00
H354   H     0.67522   0.83307   0.21992   0.00000  Uiso   1.00
H355   H     0.77254   0.70656   0.10976   0.00000  Uiso   1.00
H356   H     0.89412   0.96010   0.22358   0.00000  Uiso   1.00
H357   H     0.89192   0.87998   0.29847   0.00000  Uiso   1.00
H358   H     0.77474   0.78669   0.03486   0.00000  Uiso   1.00
N359   N     0.83332   0.83332   0.28573   0.00000  Uiso   1.00
N360   N     0.83335   0.83334   0.04760   0.00000  Uiso   1.00
O361   O     0.83333   0.77225   0.20487   0.00000  Uiso   1.00
O362   O     0.83334   0.89442   0.12846   0.00000  Uiso   1.00
O363   O     0.83333   0.77226   0.12843   0.00000  Uiso   1.00
O364   O     0.83334   0.89441   0.20490   0.00000  Uiso   1.00
O365   O     0.75725   0.83333   0.19595   0.00000  Uiso   1.00
O366   O     0.90942   0.83334   0.13739   0.00000  Uiso   1.00
O367   O     0.75725   0.83334   0.11950   0.00000  Uiso   1.00
O368   O     0.90942   0.83333   0.21383   0.00000  Uiso   1.00
Zn369  Zn    0.83333   0.83333   0.21771   0.00000  Uiso   1.00
Zn370  Zn    0.83333   0.83334   0.11563   0.00000  Uiso   1.00
O371   O     0.75685   0.96071   0.10354   0.00000  Uiso   1.00
H372   H     0.74927   0.93239   0.11437   0.00000  Uiso   1.00
O373   O     0.90982   0.70596   0.22979   0.00000  Uiso   1.00
H374   H     0.91740   0.73428   0.21896   0.00000  Uiso   1.00
O375   O     0.89911   0.88568   0.05688   0.00000  Uiso   1.00
H376   H     0.92031   0.90238   0.03810   0.00000  Uiso   1.00
O377   O     0.76756   0.78099   0.27645   0.00000  Uiso   1.00
H378   H     0.74635   0.76429   0.29524   0.00000  Uiso   1.00
C379   C     0.16809   0.08677   0.50005   0.00000  Uiso   1.00
C380   C     0.16524   0.24656   0.49995   0.00000  Uiso   1.00
C381   C     0.06706   0.16666   0.48805   0.00000  Uiso   1.00
C382   C     0.26627   0.16668   0.51195   0.00000  Uiso   1.00
C383   C     0.01203   0.16674   0.48162   0.00000  Uiso   1.00
C384   C     0.32131   0.16660   0.51838   0.00000  Uiso   1.00
C385   C     0.13288   0.02227   0.46745   0.00000  Uiso   1.00
C386   C     0.20045   0.31106   0.53255   0.00000  Uiso   1.00
C387   C     0.12897   0.31273   0.46775   0.00000  Uiso   1.00
C388   C     0.20436   0.02060   0.53225   0.00000  Uiso   1.00
C389   C     0.16390   0.29070   0.50026   0.00000  Uiso   1.00
C390   C     0.16943   0.04263   0.49974   0.00000  Uiso   1.00
C391   C     0.19954   0.19283   0.36188   0.00000  Uiso   1.00
C392   C     0.13379   0.14051   0.63812   0.00000  Uiso   1.00
C393   C     0.19933   0.19266   0.64695   0.00000  Uiso   1.00
C394   C     0.13401   0.14067   0.35305   0.00000  Uiso   1.00
H395   H     0.32478   0.16693   0.44674   0.00000  Uiso   1.00
H396   H     0.00855   0.16640   0.55326   0.00000  Uiso   1.00
H397   H     0.10588   0.03990   0.44309   0.00000  Uiso   1.00
H398   H     0.22746   0.29344   0.55691   0.00000  Uiso   1.00
H399   H     0.22526   0.21331   0.63180   0.00000  Uiso   1.00
H400   H     0.10808   0.12002   0.36819   0.00000  Uiso   1.00
N401   N     0.16665   0.16666   0.61907   0.00000  Uiso   1.00
N402   N     0.16668   0.16668   0.38093   0.00000  Uiso   1.00
O403   O     0.16666   0.10558   0.53821   0.00000  Uiso   1.00
O404   O     0.16667   0.22775   0.46179   0.00000  Uiso   1.00
O405   O     0.16666   0.10559   0.46176   0.00000  Uiso   1.00
O406   O     0.16667   0.22774   0.53824   0.00000  Uiso   1.00
O407   O     0.09058   0.16666   0.52928   0.00000  Uiso   1.00
O408   O     0.24275   0.16667   0.47072   0.00000  Uiso   1.00
O409   O     0.09058   0.16667   0.45284   0.00000  Uiso   1.00
O410   O     0.24275   0.16666   0.54716   0.00000  Uiso   1.00
Zn411  Zn    0.16667   0.16666   0.55104   0.00000  Uiso   1.00
Zn412  Zn    0.16667   0.16667   0.44896   0.00000  Uiso   1.00
O413   O     0.09018   0.29404   0.43687   0.00000  Uiso   1.00
H414   H     0.08260   0.26572   0.44771   0.00000  Uiso   1.00
O415   O     0.24316   0.03929   0.56313   0.00000  Uiso   1.00
H416   H     0.25073   0.06761   0.55229   0.00000  Uiso   1.00
O417   O     0.23244   0.21901   0.39021   0.00000  Uiso   1.00
H418   H     0.25365   0.23571   0.37143   0.00000  Uiso   1.00
O419   O     0.10089   0.11432   0.60978   0.00000  Uiso   1.00
H420   H     0.07969   0.09762   0.62857   0.00000  Uiso   1.00
C421   C     0.50142   0.08677   0.50005   0.00000  Uiso   1.00
C422   C     0.49858   0.24656   0.49995   0.00000  Uiso   1.00
C423   C     0.40040   0.16666   0.48805   0.00000  Uiso   1.00
C424   C     0.59961   0.16668   0.51195   0.00000  Uiso   1.00
C425   C     0.34536   0.16674   0.48162   0.00000  Uiso   1.00
C426   C     0.65464   0.16660   0.51838   0.00000  Uiso   1.00
C427   C     0.46621   0.02227   0.46745   0.00000  Uiso   1.00
C428   C     0.53379   0.31106   0.53255   0.00000  Uiso   1.00
C429   C     0.46230   0.31273   0.46775   0.00000  Uiso   1.00
C430   C     0.53770   0.02060   0.53225   0.00000  Uiso   1.00
C431   C     0.49724   0.29070   0.50026   0.00000  Uiso   1.00
C432   C     0.50276   0.04263   0.49974   0.00000  Uiso   1.00
C433   C     0.53288   0.19283   0.36188   0.00000  Uiso   1.00
C434   C     0.46712   0.14051   0.63812   0.00000  Uiso   1.00
C435   C     0.53266   0.19266   0.64695   0.00000  Uiso   1.00
C436   C     0.46734   0.14067   0.35305   0.00000  Uiso   1.00
H437   H     0.65812   0.16693   0.44674   0.00000  Uiso   1.00
H438   H     0.34188   0.16640   0.55326   0.00000  Uiso   1.00
H439   H     0.43921   0.03990   0.44309   0.00000  Uiso   1.00
H440   H     0.56079   0.29344   0.55691   0.00000  Uiso   1.00
H441   H     0.55859   0.21331   0.63180   0.00000  Uiso   1.00
H442   H     0.44141   0.12002   0.36819   0.00000  Uiso   1.00
N443   N     0.49999   0.16666   0.61907   0.00000  Uiso   1.00
N444   N     0.50001   0.16668   0.38093   0.00000  Uiso   1.00
O445   O     0.50000   0.10558   0.53821   0.00000  Uiso   1.00
O446   O     0.50000   0.22775   0.46179   0.00000  Uiso   1.00
O447   O     0.50000   0.10559   0.46176   0.00000  Uiso   1.00
O448   O     0.50000   0.22774   0.53824   0.00000  Uiso   1.00
O449   O     0.42392   0.16666   0.52928   0.00000  Uiso   1.00
O450   O     0.57608   0.16667   0.47072   0.00000  Uiso   1.00
O451   O     0.42392   0.16667   0.45284   0.00000  Uiso   1.00
O452   O     0.57608   0.16666   0.54716   0.00000  Uiso   1.00
Zn453  Zn    0.50000   0.16666   0.55104   0.00000  Uiso   1.00
Zn454  Zn    0.50000   0.16667   0.44896   0.00000  Uiso   1.00
O455   O     0.42351   0.29404   0.43687   0.00000  Uiso   1.00
H456   H     0.41593   0.26572   0.44771   0.00000  Uiso   1.00
O457   O     0.57649   0.03929   0.56313   0.00000  Uiso   1.00
H458   H     0.58407   0.06761   0.55229   0.00000  Uiso   1.00
O459   O     0.56577   0.21901   0.39021   0.00000  Uiso   1.00
H460   H     0.58698   0.23571   0.37143   0.00000  Uiso   1.00
O461   O     0.43423   0.11432   0.60978   0.00000  Uiso   1.00
H462   H     0.41302   0.09762   0.62857   0.00000  Uiso   1.00
C463   C     0.83476   0.08677   0.50005   0.00000  Uiso   1.00
C464   C     0.83191   0.24656   0.49995   0.00000  Uiso   1.00
C465   C     0.73373   0.16666   0.48805   0.00000  Uiso   1.00
C466   C     0.93294   0.16668   0.51195   0.00000  Uiso   1.00
C467   C     0.67869   0.16674   0.48162   0.00000  Uiso   1.00
C468   C     0.98797   0.16660   0.51838   0.00000  Uiso   1.00
C469   C     0.79955   0.02227   0.46745   0.00000  Uiso   1.00
C470   C     0.86712   0.31106   0.53255   0.00000  Uiso   1.00
C471   C     0.79564   0.31273   0.46775   0.00000  Uiso   1.00
C472   C     0.87103   0.02060   0.53225   0.00000  Uiso   1.00
C473   C     0.83057   0.29070   0.50026   0.00000  Uiso   1.00
C474   C     0.83610   0.04263   0.49974   0.00000  Uiso   1.00
C475   C     0.86621   0.19283   0.36188   0.00000  Uiso   1.00
C476   C     0.80046   0.14051   0.63812   0.00000  Uiso   1.00
C477   C     0.86600   0.19266   0.64695   0.00000  Uiso   1.00
C478   C     0.80067   0.14067   0.35305   0.00000  Uiso   1.00
H479   H     0.99145   0.16693   0.44674   0.00000  Uiso   1.00
H480   H     0.67522   0.16640   0.55326   0.00000  Uiso   1.00
H481   H     0.77254   0.03990   0.44309   0.00000  Uiso   1.00
H482   H     0.89412   0.29344   0.55691   0.00000  Uiso   1.00
H483   H     0.89192   0.21331   0.63180   0.00000  Uiso   1.00
H484   H     0.77474   0.12002   0.36819   0.00000  Uiso   1.00
N485   N     0.83332   0.16666   0.61907   0.00000  Uiso   1.00
N486   N     0.83335   0.16668   0.38093   0.00000  Uiso   1.00
O487   O     0.83333   0.10558   0.53821   0.00000  Uiso   1.00
O488   O     0.83334   0.22775   0.46179   0.00000  Uiso   1.00
O489   O     0.83333   0.10559   0.46176   0.00000  Uiso   1.00
O490   O     0.83334   0.22774   0.53824   0.00000  Uiso   1.00
O491   O     0.75725   0.16666   0.52928   0.00000  Uiso   1.00
O492   O     0.90942   0.16667   0.47072   0.00000  Uiso   1.00
O493   O     0.75725   0.16667   0.45284   0.00000  Uiso   1.00
O494   O     0.90942   0.16666   0.54716   0.00000  Uiso   1.00
Zn495  Zn    0.83333   0.16666   0.55104   0.00000  Uiso   1.00
Zn496  Zn    0.83333   0.16667   0.44896   0.00000  Uiso   1.00
O497   O     0.75685   0.29404   0.43687   0.00000  Uiso   1.00
H498   H     0.74927   0.26572   0.44771   0.00000  Uiso   1.00
O499   O     0.90982   0.03929   0.56313   0.00000  Uiso   1.00
H500   H     0.91740   0.06761   0.55229   0.00000  Uiso   1.00
O501   O     0.89911   0.21901   0.39021   0.00000  Uiso   1.00
H502   H     0.92031   0.23571   0.37143   0.00000  Uiso   1.00
O503   O     0.76756   0.11432   0.60978   0.00000  Uiso   1.00
H504   H     0.74635   0.09762   0.62857   0.00000  Uiso   1.00
C505   C     0.16809   0.42011   0.50005   0.00000  Uiso   1.00
C506   C     0.16524   0.57989   0.49995   0.00000  Uiso   1.00
C507   C     0.06706   0.49999   0.48805   0.00000  Uiso   1.00
C508   C     0.26627   0.50001   0.51195   0.00000  Uiso   1.00
C509   C     0.01203   0.50007   0.48162   0.00000  Uiso   1.00
C510   C     0.32131   0.49993   0.51838   0.00000  Uiso   1.00
C511   C     0.13288   0.35561   0.46745   0.00000  Uiso   1.00
C512   C     0.20045   0.64439   0.53255   0.00000  Uiso   1.00
C513   C     0.12897   0.64606   0.46775   0.00000  Uiso   1.00
C514   C     0.20436   0.35394   0.53225   0.00000  Uiso   1.00
C515   C     0.16390   0.62403   0.50026   0.00000  Uiso   1.00
C516   C     0.16943   0.37597   0.49974   0.00000  Uiso   1.00
C517   C     0.19954   0.52616   0.36188   0.00000  Uiso   1.00
C518   C     0.13379   0.47384   0.63812   0.00000  Uiso   1.00
C519   C     0.19933   0.52599   0.64695   0.00000  Uiso   1.00
C520   C     0.13401   0.47401   0.35305   0.00000  Uiso   1.00
H521   H     0.32478   0.50027   0.44674   0.00000  Uiso   1.00
H522   H     0.00855   0.49973   0.55326   0.00000  Uiso   1.00
H523   H     0.10588   0.37323   0.44309   0.00000  Uiso   1.00
H524   H     0.22746   0.62677   0.55691   0.00000  Uiso   1.00
H525   H     0.22526   0.54664   0.63180   0.00000  Uiso   1.00
H526   H     0.10808   0.45336   0.36819   0.00000  Uiso   1.00
N527   N     0.16665   0.49999   0.61907   0.00000  Uiso   1.00
N528   N     0.16668   0.50001   0.38093   0.00000  Uiso   1.00
O529   O     0.16666   0.43892   0.53821   0.00000  Uiso   1.00
O530   O     0.16667   0.56108   0.46179   0.00000  Uiso   1.00
O531   O     0.16666   0.43893   0.46176   0.00000  Uiso   1.00
O532   O     0.16667   0.56107   0.53824   0.00000  Uiso   1.00
O533   O     0.09058   0.50000   0.52928   0.00000  Uiso   1.00
O534   O     0.24275   0.50000   0.47072   0.00000  Uiso   1.00
O535   O     0.09058   0.50000   0.45284   0.00000  Uiso   1.00
O536   O     0.24275   0.50000   0.54716   0.00000  Uiso   1.00
Zn537  Zn    0.16667   0.49999   0.55104   0.00000  Uiso   1.00
Zn538  Zn    0.16667   0.50001   0.44896   0.00000  Uiso   1.00
O539   O     0.09018   0.62737   0.43687   0.00000  Uiso   1.00
H540   H     0.08260   0.59906   0.44771   0.00000  Uiso   1.00
O541   O     0.24316   0.37263   0.56313   0.00000  Uiso   1.00
H542   H     0.25073   0.40094   0.55229   0.00000  Uiso   1.00
O543   O     0.23244   0.55234   0.39021   0.00000  Uiso   1.00
H544   H     0.25365   0.56904   0.37143   0.00000  Uiso   1.00
O545   O     0.10089   0.44766   0.60978   0.00000  Uiso   1.00
H546   H     0.07969   0.43096   0.62857   0.00000  Uiso   1.00
C547   C     0.50142   0.42011   0.50005   0.00000  Uiso   1.00
C548   C     0.49858   0.57989   0.49995   0.00000  Uiso   1.00
C549   C     0.40040   0.49999   0.48805   0.00000  Uiso   1.00
C550   C     0.59961   0.50001   0.51195   0.00000  Uiso   1.00
C551   C     0.34536   0.50007   0.48162   0.00000  Uiso   1.00
C552   C     0.65464   0.49993   0.51838   0.00000  Uiso   1.00
C553   C     0.46621   0.35561   0.46745   0.00000  Uiso   1.00
C554   C     0.53379   0.64439   0.53255   0.00000  Uiso   1.00
C555   C     0.46230   0.64606   0.46775   0.00000  Uiso   1.00
C556   C     0.53770   0.35394   0.53225   0.00000  Uiso   1.00
C557   C     0.49724   0.62403   0.50026   0.00000  Uiso   1.00
C558   C     0.50276   0.37597   0.49974   0.00000  Uiso   1.00
C559   C     0.53288   0.52616   0.36188   0.00000  Uiso   1.00
C560   C     0.46712   0.47384   0.63812   0.00000  Uiso   1.00
C561   C     0.53266   0.52599   0.64695   0.00000  Uiso   1.00
C562   C     0.46734   0.47401   0.35305   0.00000  Uiso   1.00
H563   H     0.65812   0.50027   0.44674   0.00000  Uiso   1.00
H564   H     0.34188   0.49973   0.55326   0.00000  Uiso   1.00
H565   H     0.43921   0.37323   0.44309   0.00000  Uiso   1.00
H566   H     0.56079   0.62677   0.55691   0.00000  Uiso   1.00
H567   H     0.55859   0.54664   0.63180   0.00000  Uiso   1.00
H568   H     0.44141   0.45336   0.36819   0.00000  Uiso   1.00
N569   N     0.49999   0.49999   0.61907   0.00000  Uiso   1.00
N570   N     0.50001   0.50001   0.38093   0.00000  Uiso   1.00
O571   O     0.50000   0.43892   0.53821   0.00000  Uiso   1.00
O572   O     0.50000   0.56108   0.46179   0.00000  Uiso   1.00
O573   O     0.50000   0.43893   0.46176   0.00000  Uiso   1.00
O574   O     0.50000   0.56107   0.53824   0.00000  Uiso   1.00
O575   O     0.42392   0.50000   0.52928   0.00000  Uiso   1.00
O576   O     0.57608   0.50000   0.47072   0.00000  Uiso   1.00
O577   O     0.42392   0.50000   0.45284   0.00000  Uiso   1.00
O578   O     0.57608   0.50000   0.54716   0.00000  Uiso   1.00
Zn579  Zn    0.50000   0.49999   0.55104   0.00000  Uiso   1.00
Zn580  Zn    0.50000   0.50001   0.44896   0.00000  Uiso   1.00
O581   O     0.42351   0.62737   0.43687   0.00000  Uiso   1.00
H582   H     0.41593   0.59906   0.44771   0.00000  Uiso   1.00
O583   O     0.57649   0.37263   0.56313   0.00000  Uiso   1.00
H584   H     0.58407   0.40094   0.55229   0.00000  Uiso   1.00
O585   O     0.56577   0.55234   0.39021   0.00000  Uiso   1.00
H586   H     0.58698   0.56904   0.37143   0.00000  Uiso   1.00
O587   O     0.43423   0.44766   0.60978   0.00000  Uiso   1.00
H588   H     0.41302   0.43096   0.62857   0.00000  Uiso   1.00
C589   C     0.83476   0.42011   0.50005   0.00000  Uiso   1.00
C590   C     0.83191   0.57989   0.49995   0.00000  Uiso   1.00
C591   C     0.73373   0.49999   0.48805   0.00000  Uiso   1.00
C592   C     0.93294   0.50001   0.51195   0.00000  Uiso   1.00
C593   C     0.67869   0.50007   0.48162   0.00000  Uiso   1.00
C594   C     0.98797   0.49993   0.51838   0.00000  Uiso   1.00
C595   C     0.79955   0.35561   0.46745   0.00000  Uiso   1.00
C596   C     0.86712   0.64439   0.53255   0.00000  Uiso   1.00
C597   C     0.79564   0.64606   0.46775   0.00000  Uiso   1.00
C598   C     0.87103   0.35394   0.53225   0.00000  Uiso   1.00
C599   C     0.83057   0.62403   0.50026   0.00000  Uiso   1.00
C600   C     0.83610   0.37597   0.49974   0.00000  Uiso   1.00
C601   C     0.86621   0.52616   0.36188   0.00000  Uiso   1.00
C602   C     0.80046   0.47384   0.63812   0.00000  Uiso   1.00
C603   C     0.86600   0.52599   0.64695   0.00000  Uiso   1.00
C604   C     0.80067   0.47401   0.35305   0.00000  Uiso   1.00
H605   H     0.99145   0.50027   0.44674   0.00000  Uiso   1.00
H606   H     0.67522   0.49973   0.55326   0.00000  Uiso   1.00
H607   H     0.77254   0.37323   0.44309   0.00000  Uiso   1.00
H608   H     0.89412   0.62677   0.55691   0.00000  Uiso   1.00
H609   H     0.89192   0.54664   0.63180   0.00000  Uiso   1.00
H610   H     0.77474   0.45336   0.36819   0.00000  Uiso   1.00
N611   N     0.83332   0.49999   0.61907   0.00000  Uiso   1.00
N612   N     0.83335   0.50001   0.38093   0.00000  Uiso   1.00
O613   O     0.83333   0.43892   0.53821   0.00000  Uiso   1.00
O614   O     0.83334   0.56108   0.46179   0.00000  Uiso   1.00
O615   O     0.83333   0.43893   0.46176   0.00000  Uiso   1.00
O616   O     0.83334   0.56107   0.53824   0.00000  Uiso   1.00
O617   O     0.75725   0.50000   0.52928   0.00000  Uiso   1.00
O618   O     0.90942   0.50000   0.47072   0.00000  Uiso   1.00
O619   O     0.75725   0.50000   0.45284   0.00000  Uiso   1.00
O620   O     0.90942   0.50000   0.54716   0.00000  Uiso   1.00
Zn621  Zn    0.83333   0.49999   0.55104   0.00000  Uiso   1.00
Zn622  Zn    0.83333   0.50001   0.44896   0.00000  Uiso   1.00
O623   O     0.75685   0.62737   0.43687   0.00000  Uiso   1.00
H624   H     0.74927   0.59906   0.44771   0.00000  Uiso   1.00
O625   O     0.90982   0.37263   0.56313   0.00000  Uiso   1.00
H626   H     0.91740   0.40094   0.55229   0.00000  Uiso   1.00
O627   O     0.89911   0.55234   0.39021   0.00000  Uiso   1.00
H628   H     0.92031   0.56904   0.37143   0.00000  Uiso   1.00
O629   O     0.76756   0.44766   0.60978   0.00000  Uiso   1.00
H630   H     0.74635   0.43096   0.62857   0.00000  Uiso   1.00
C631   C     0.16809   0.75344   0.50005   0.00000  Uiso   1.00
C632   C     0.16524   0.91323   0.49995   0.00000  Uiso   1.00
C633   C     0.06706   0.83332   0.48805   0.00000  Uiso   1.00
C634   C     0.26627   0.83334   0.51195   0.00000  Uiso   1.00
C635   C     0.01203   0.83340   0.48162   0.00000  Uiso   1.00
C636   C     0.32131   0.83326   0.51838   0.00000  Uiso   1.00
C637   C     0.13288   0.68894   0.46745   0.00000  Uiso   1.00
C638   C     0.20045   0.97773   0.53255   0.00000  Uiso   1.00
C639   C     0.12897   0.97940   0.46775   0.00000  Uiso   1.00
C640   C     0.20436   0.68727   0.53225   0.00000  Uiso   1.00
C641   C     0.16390   0.95737   0.50026   0.00000  Uiso   1.00
C642   C     0.16943   0.70930   0.49974   0.00000  Uiso   1.00
C643   C     0.19954   0.85949   0.36188   0.00000  Uiso   1.00
C644   C     0.13379   0.80717   0.63812   0.00000  Uiso   1.00
C645   C     0.19933   0.85933   0.64695   0.00000  Uiso   1.00
C646   C     0.13401   0.80734   0.35305   0.00000  Uiso   1.00
H647   H     0.32478   0.83360   0.44674   0.00000  Uiso   1.00
H648   H     0.00855   0.83307   0.55326   0.00000  Uiso   1.00
H649   H     0.10588   0.70656   0.44309   0.00000  Uiso   1.00
H650   H     0.22746   0.96010   0.55691   0.00000  Uiso   1.00
H651   H     0.22526   0.87998   0.63180   0.00000  Uiso   1.00
H652   H     0.10808   0.78669   0.36819   0.00000  Uiso   1.00
N653   N     0.16665   0.83332   0.61907   0.00000  Uiso   1.00
N654   N     0.16668   0.83334   0.38093   0.00000  Uiso   1.00
O655   O     0.16666   0.77225   0.53821   0.00000  Uiso   1.00
O656   O     0.16667   0.89442   0.46179   0.00000  Uiso   1.00
O657   O     0.16666   0.77226   0.46176   0.00000  Uiso   1.00
O658   O     0.16667   0.89441   0.53824   0.00000  Uiso   1.00
O659   O     0.09058   0.83333   0.52928   0.00000  Uiso   1.00
O660   O     0.24275   0.83334   0.47072   0.00000  Uiso   1.00
O661   O     0.09058   0.83334   0.45284   0.00000  Uiso   1.00
O662   O     0.24275   0.83333   0.54716   0.00000  Uiso   1.00
Zn663  Zn    0.16667   0.83333   0.55104   0.00000  Uiso   1.00
Zn664  Zn    0.16667   0.83334   0.44896   0.00000  Uiso   1.00
O665   O     0.09018   0.96071   0.43687   0.00000  Uiso   1.00
H666   H     0.08260   0.93239   0.44771   0.00000  Uiso   1.00
O667   O     0.24316   0.70596   0.56313   0.00000  Uiso   1.00
H668   H     0.25073   0.73428   0.55229   0.00000  Uiso   1.00
O669   O     0.23244   0.88568   0.39021   0.00000  Uiso   1.00
H670   H     0.25365   0.90238   0.37143   0.00000  Uiso   1.00
O671   O     0.10089   0.78099   0.60978   0.00000  Uiso   1.00
H672   H     0.07969   0.76429   0.62857   0.00000  Uiso   1.00
C673   C     0.50142   0.75344   0.50005   0.00000  Uiso   1.00
C674   C     0.49858   0.91323   0.49995   0.00000  Uiso   1.00
C675   C     0.40040   0.83332   0.48805   0.00000  Uiso   1.00
C676   C     0.59961   0.83334   0.51195   0.00000  Uiso   1.00
C677   C     0.34536   0.83340   0.48162   0.00000  Uiso   1.00
C678   C     0.65464   0.83326   0.51838   0.00000  Uiso   1.00
C679   C     0.46621   0.68894   0.46745   0.00000  Uiso   1.00
C680   C     0.53379   0.97773   0.53255   0.00000  Uiso   1.00
C681   C     0.46230   0.97940   0.46775   0.00000  Uiso   1.00
C682   C     0.53770   0.68727   0.53225   0.00000  Uiso   1.00
C683   C     0.49724   0.95737   0.50026   0.00000  Uiso   1.00
C684   C     0.50276   0.70930   0.49974   0.00000  Uiso   1.00
C685   C     0.53288   0.85949   0.36188   0.00000  Uiso   1.00
C686   C     0.46712   0.80717   0.63812   0.00000  Uiso   1.00
C687   C     0.53266   0.85933   0.64695   0.00000  Uiso   1.00
C688   C     0.46734   0.80734   0.35305   0.00000  Uiso   1.00
H689   H     0.65812   0.83360   0.44674   0.00000  Uiso   1.00
H690   H     0.34188   0.83307   0.55326   0.00000  Uiso   1.00
H691   H     0.43921   0.70656   0.44309   0.00000  Uiso   1.00
H692   H     0.56079   0.96010   0.55691   0.00000  Uiso   1.00
H693   H     0.55859   0.87998   0.63180   0.00000  Uiso   1.00
H694   H     0.44141   0.78669   0.36819   0.00000  Uiso   1.00
N695   N     0.49999   0.83332   0.61907   0.00000  Uiso   1.00
N696   N     0.50001   0.83334   0.38093   0.00000  Uiso   1.00
O697   O     0.50000   0.77225   0.53821   0.00000  Uiso   1.00
O698   O     0.50000   0.89442   0.46179   0.00000  Uiso   1.00
O699   O     0.50000   0.77226   0.46176   0.00000  Uiso   1.00
O700   O     0.50000   0.89441   0.53824   0.00000  Uiso   1.00
O701   O     0.42392   0.83333   0.52928   0.00000  Uiso   1.00
O702   O     0.57608   0.83334   0.47072   0.00000  Uiso   1.00
O703   O     0.42392   0.83334   0.45284   0.00000  Uiso   1.00
O704   O     0.57608   0.83333   0.54716   0.00000  Uiso   1.00
Zn705  Zn    0.50000   0.83333   0.55104   0.00000  Uiso   1.00
Zn706  Zn    0.50000   0.83334   0.44896   0.00000  Uiso   1.00
O707   O     0.42351   0.96071   0.43687   0.00000  Uiso   1.00
H708   H     0.41593   0.93239   0.44771   0.00000  Uiso   1.00
O709   O     0.57649   0.70596   0.56313   0.00000  Uiso   1.00
H710   H     0.58407   0.73428   0.55229   0.00000  Uiso   1.00
O711   O     0.56577   0.88568   0.39021   0.00000  Uiso   1.00
H712   H     0.58698   0.90238   0.37143   0.00000  Uiso   1.00
O713   O     0.43423   0.78099   0.60978   0.00000  Uiso   1.00
H714   H     0.41302   0.76429   0.62857   0.00000  Uiso   1.00
C715   C     0.83476   0.75344   0.50005   0.00000  Uiso   1.00
C716   C     0.83191   0.91323   0.49995   0.00000  Uiso   1.00
C717   C     0.73373   0.83332   0.48805   0.00000  Uiso   1.00
C718   C     0.93294   0.83334   0.51195   0.00000  Uiso   1.00
C719   C     0.67869   0.83340   0.48162   0.00000  Uiso   1.00
C720   C     0.98797   0.83326   0.51838   0.00000  Uiso   1.00
C721   C     0.79955   0.68894   0.46745   0.00000  Uiso   1.00
C722   C     0.86712   0.97773   0.53255   0.00000  Uiso   1.00
C723   C     0.79564   0.97940   0.46775   0.00000  Uiso   1.00
C724   C     0.87103   0.68727   0.53225   0.00000  Uiso   1.00
C725   C     0.83057   0.95737   0.50026   0.00000  Uiso   1.00
C726   C     0.83610   0.70930   0.49974   0.00000  Uiso   1.00
C727   C     0.86621   0.85949   0.36188   0.00000  Uiso   1.00
C728   C     0.80046   0.80717   0.63812   0.00000  Uiso   1.00
C729   C     0.86600   0.85933   0.64695   0.00000  Uiso   1.00
C730   C     0.80067   0.80734   0.35305   0.00000  Uiso   1.00
H731   H     0.99145   0.83360   0.44674   0.00000  Uiso   1.00
H732   H     0.67522   0.83307   0.55326   0.00000  Uiso   1.00
H733   H     0.77254   0.70656   0.44309   0.00000  Uiso   1.00
H734   H     0.89412   0.96010   0.55691   0.00000  Uiso   1.00
H735   H     0.89192   0.87998   0.63180   0.00000  Uiso   1.00
H736   H     0.77474   0.78669   0.36819   0.00000  Uiso   1.00
N737   N     0.83332   0.83332   0.61907   0.00000  Uiso   1.00
N738   N     0.83335   0.83334   0.38093   0.00000  Uiso   1.00
O739   O     0.83333   0.77225   0.53821   0.00000  Uiso   1.00
O740   O     0.83334   0.89442   0.46179   0.00000  Uiso   1.00
O741   O     0.83333   0.77226   0.46176   0.00000  Uiso   1.00
O742   O     0.83334   0.89441   0.53824   0.00000  Uiso   1.00
O743   O     0.75725   0.83333   0.52928   0.00000  Uiso   1.00
O744   O     0.90942   0.83334   0.47072   0.00000  Uiso   1.00
O745   O     0.75725   0.83334   0.45284   0.00000  Uiso   1.00
O746   O     0.90942   0.83333   0.54716   0.00000  Uiso   1.00
Zn747  Zn    0.83333   0.83333   0.55104   0.00000  Uiso   1.00
Zn748  Zn    0.83333   0.83334   0.44896   0.00000  Uiso   1.00
O749   O     0.75685   0.96071   0.43687   0.00000  Uiso   1.00
H750   H     0.74927   0.93239   0.44771   0.00000  Uiso   1.00
O751   O     0.90982   0.70596   0.56313   0.00000  Uiso   1.00
H752   H     0.91740   0.73428   0.55229   0.00000  Uiso   1.00
O753   O     0.89911   0.88568   0.39021   0.00000  Uiso   1.00
H754   H     0.92031   0.90238   0.37143   0.00000  Uiso   1.00
O755   O     0.76756   0.78099   0.60978   0.00000  Uiso   1.00
H756   H     0.74635   0.76429   0.62857   0.00000  Uiso   1.00
C757   C     0.16809   0.08677   0.83338   0.00000  Uiso   1.00
C758   C     0.16524   0.24656   0.83329   0.00000  Uiso   1.00
C759   C     0.06706   0.16666   0.82138   0.00000  Uiso   1.00
C760   C     0.26627   0.16668   0.84528   0.00000  Uiso   1.00
C761   C     0.01203   0.16674   0.81496   0.00000  Uiso   1.00
C762   C     0.32131   0.16660   0.85171   0.00000  Uiso   1.00
C763   C     0.13288   0.02227   0.80078   0.00000  Uiso   1.00
C764   C     0.20045   0.31106   0.86588   0.00000  Uiso   1.00
C765   C     0.12897   0.31273   0.80108   0.00000  Uiso   1.00
C766   C     0.20436   0.02060   0.86558   0.00000  Uiso   1.00
C767   C     0.16390   0.29070   0.83359   0.00000  Uiso   1.00
C768   C     0.16943   0.04263   0.83308   0.00000  Uiso   1.00
C769   C     0.19954   0.19283   0.69521   0.00000  Uiso   1.00
C770   C     0.13379   0.14051   0.97146   0.00000  Uiso   1.00
C771   C     0.19933   0.19266   0.98029   0.00000  Uiso   1.00
C772   C     0.13401   0.14067   0.68638   0.00000  Uiso   1.00
H773   H     0.32478   0.16693   0.78008   0.00000  Uiso   1.00
H774   H     0.00855   0.16640   0.88659   0.00000  Uiso   1.00
H775   H     0.10588   0.03990   0.77642   0.00000  Uiso   1.00
H776   H     0.22746   0.29344   0.89024   0.00000  Uiso   1.00
H777   H     0.22526   0.21331   0.96514   0.00000  Uiso   1.00
H778   H     0.10808   0.12002   0.70153   0.00000  Uiso   1.00
N779   N     0.16665   0.16666   0.95240   0.00000  Uiso   1.00
N780   N     0.16668   0.16668   0.71427   0.00000  Uiso   1.00
O781   O     0.16666   0.10558   0.87154   0.00000  Uiso   1.00
O782   O     0.16667   0.22775   0.79513   0.00000  Uiso   1.00
O783   O     0.16666   0.10559   0.79510   0.00000  Uiso   1.00
O784   O     0.16667   0.22774   0.87157   0.00000  Uiso   1.00
O785   O     0.09058   0.16666   0.86261   0.00000  Uiso   1.00
O786   O     0.24275   0.16667   0.80405   0.00000  Uiso   1.00
O787   O     0.09058   0.16667   0.78617   0.00000  Uiso   1.00
O788   O     0.24275   0.16666   0.88050   0.00000  Uiso   1.00
Zn789  Zn    0.16667   0.16666   0.88437   0.00000  Uiso   1.00
Zn790  Zn    0.16667   0.16667   0.78229   0.00000  Uiso   1.00
O791   O     0.09018   0.29404   0.77021   0.00000  Uiso   1.00
H792   H     0.08260   0.26572   0.78104   0.00000  Uiso   1.00
O793   O     0.24316   0.03929   0.89646   0.00000  Uiso   1.00
H794   H     0.25073   0.06761   0.88563   0.00000  Uiso   1.00
O795   O     0.23244   0.21901   0.72355   0.00000  Uiso   1.00
H796   H     0.25365   0.23571   0.70476   0.00000  Uiso   1.00
O797   O     0.10089   0.11432   0.94312   0.00000  Uiso   1.00
H798   H     0.07969   0.09762   0.96190   0.00000  Uiso   1.00
C799   C     0.50142   0.08677   0.83338   0.00000  Uiso   1.00
C800   C     0.49858   0.24656   0.83329   0.00000  Uiso   1.00
C801   C     0.40040   0.16666   0.82138   0.00000  Uiso   1.00
C802   C     0.59961   0.16668   0.84528   0.00000  Uiso   1.00
C803   C     0.34536   0.16674   0.81496   0.00000  Uiso   1.00
C804   C     0.65464   0.16660   0.85171   0.00000  Uiso   1.00
C805   C     0.46621   0.02227   0.80078   0.00000  Uiso   1.00
C806   C     0.53379   0.31106   0.86588   0.00000  Uiso   1.00
C807   C     0.46230   0.31273   0.80108   0.00000  Uiso   1.00
C808   C     0.53770   0.02060   0.86558   0.00000  Uiso   1.00
C809   C     0.49724   0.29070   0.83359   0.00000  Uiso   1.00
C810   C     0.50276   0.04263   0.83308   0.00000  Uiso   1.00
C811   C     0.53288   0.19283   0.69521   0.00000  Uiso   1.00
C812   C     0.46712   0.14051   0.97146   0.00000  Uiso   1.00
C813   C     0.53266   0.19266   0.98029   0.00000  Uiso   1.00
C814   C     0.46734   0.14067   0.68638   0.00000  Uiso   1.00
H815   H     0.65812   0.16693   0.78008   0.00000  Uiso   1.00
H816   H     0.34188   0.16640   0.88659   0.00000  Uiso   1.00
H817   H     0.43921   0.03990   0.77642   0.00000  Uiso   1.00
H818   H     0.56079   0.29344   0.89024   0.00000  Uiso   1.00
H819   H     0.55859   0.21331   0.96514   0.00000  Uiso   1.00
H820   H     0.44141   0.12002   0.70153   0.00000  Uiso   1.00
N821   N     0.49999   0.16666   0.95240   0.00000  Uiso   1.00
N822   N     0.50001   0.16668   0.71427   0.00000  Uiso   1.00
O823   O     0.50000   0.10558   0.87154   0.00000  Uiso   1.00
O824   O     0.50000   0.22775   0.79513   0.00000  Uiso   1.00
O825   O     0.50000   0.10559   0.79510   0.00000  Uiso   1.00
O826   O     0.50000   0.22774   0.87157   0.00000  Uiso   1.00
O827   O     0.42392   0.16666   0.86261   0.00000  Uiso   1.00
O828   O     0.57608   0.16667   0.80405   0.00000  Uiso   1.00
O829   O     0.42392   0.16667   0.78617   0.00000  Uiso   1.00
O830   O     0.57608   0.16666   0.88050   0.00000  Uiso   1.00
Zn831  Zn    0.50000   0.16666   0.88437   0.00000  Uiso   1.00
Zn832  Zn    0.50000   0.16667   0.78229   0.00000  Uiso   1.00
O833   O     0.42351   0.29404   0.77021   0.00000  Uiso   1.00
H834   H     0.41593   0.26572   0.78104   0.00000  Uiso   1.00
O835   O     0.57649   0.03929   0.89646   0.00000  Uiso   1.00
H836   H     0.58407   0.06761   0.88563   0.00000  Uiso   1.00
O837   O     0.56577   0.21901   0.72355   0.00000  Uiso   1.00
H838   H     0.58698   0.23571   0.70476   0.00000  Uiso   1.00
O839   O     0.43423   0.11432   0.94312   0.00000  Uiso   1.00
H840   H     0.41302   0.09762   0.96190   0.00000  Uiso   1.00
C841   C     0.83476   0.08677   0.83338   0.00000  Uiso   1.00
C842   C     0.83191   0.24656   0.83329   0.00000  Uiso   1.00
C843   C     0.73373   0.16666   0.82138   0.00000  Uiso   1.00
C844   C     0.93294   0.16668   0.84528   0.00000  Uiso   1.00
C845   C     0.67869   0.16674   0.81496   0.00000  Uiso   1.00
C846   C     0.98797   0.16660   0.85171   0.00000  Uiso   1.00
C847   C     0.79955   0.02227   0.80078   0.00000  Uiso   1.00
C848   C     0.86712   0.31106   0.86588   0.00000  Uiso   1.00
C849   C     0.79564   0.31273   0.80108   0.00000  Uiso   1.00
C850   C     0.87103   0.02060   0.86558   0.00000  Uiso   1.00
C851   C     0.83057   0.29070   0.83359   0.00000  Uiso   1.00
C852   C     0.83610   0.04263   0.83308   0.00000  Uiso   1.00
C853   C     0.86621   0.19283   0.69521   0.00000  Uiso   1.00
C854   C     0.80046   0.14051   0.97146   0.00000  Uiso   1.00
C855   C     0.86600   0.19266   0.98029   0.00000  Uiso   1.00
C856   C     0.80067   0.14067   0.68638   0.00000  Uiso   1.00
H857   H     0.99145   0.16693   0.78008   0.00000  Uiso   1.00
H858   H     0.67522   0.16640   0.88659   0.00000  Uiso   1.00
H859   H     0.77254   0.03990   0.77642   0.00000  Uiso   1.00
H860   H     0.89412   0.29344   0.89024   0.00000  Uiso   1.00
H861   H     0.89192   0.21331   0.96514   0.00000  Uiso   1.00
H862   H     0.77474   0.12002   0.70153   0.00000  Uiso   1.00
N863   N     0.83332   0.16666   0.95240   0.00000  Uiso   1.00
N864   N     0.83335   0.16668   0.71427   0.00000  Uiso   1.00
O865   O     0.83333   0.10558   0.87154   0.00000  Uiso   1.00
O866   O     0.83334   0.22775   0.79513   0.00000  Uiso   1.00
O867   O     0.83333   0.10559   0.79510   0.00000  Uiso   1.00
O868   O     0.83334   0.22774   0.87157   0.00000  Uiso   1.00
O869   O     0.75725   0.16666   0.86261   0.00000  Uiso   1.00
O870   O     0.90942   0.16667   0.80405   0.00000  Uiso   1.00
O871   O     0.75725   0.16667   0.78617   0.00000  Uiso   1.00
O872   O     0.90942   0.16666   0.88050   0.00000  Uiso   1.00
Zn873  Zn    0.83333   0.16666   0.88437   0.00000  Uiso   1.00
Zn874  Zn    0.83333   0.16667   0.78229   0.00000  Uiso   1.00
O875   O     0.75685   0.29404   0.77021   0.00000  Uiso   1.00
H876   H     0.74927   0.26572   0.78104   0.00000  Uiso   1.00
O877   O     0.90982   0.03929   0.89646   0.00000  Uiso   1.00
H878   H     0.91740   0.06761   0.88563   0.00000  Uiso   1.00
O879   O     0.89911   0.21901   0.72355   0.00000  Uiso   1.00
H880   H     0.92031   0.23571   0.70476   0.00000  Uiso   1.00
O881   O     0.76756   0.11432   0.94312   0.00000  Uiso   1.00
H882   H     0.74635   0.09762   0.96190   0.00000  Uiso   1.00
C883   C     0.16809   0.42011   0.83338   0.00000  Uiso   1.00
C884   C     0.16524   0.57989   0.83329   0.00000  Uiso   1.00
C885   C     0.06706   0.49999   0.82138   0.00000  Uiso   1.00
C886   C     0.26627   0.50001   0.84528   0.00000  Uiso   1.00
C887   C     0.01203   0.50007   0.81496   0.00000  Uiso   1.00
C888   C     0.32131   0.49993   0.85171   0.00000  Uiso   1.00
C889   C     0.13288   0.35561   0.80078   0.00000  Uiso   1.00
C890   C     0.20045   0.64439   0.86588   0.00000  Uiso   1.00
C891   C     0.12897   0.64606   0.80108   0.00000  Uiso   1.00
C892   C     0.20436   0.35394   0.86558   0.00000  Uiso   1.00
C893   C     0.16390   0.62403   0.83359   0.00000  Uiso   1.00
C894   C     0.16943   0.37597   0.83308   0.00000  Uiso   1.00
C895   C     0.19954   0.52616   0.69521   0.00000  Uiso   1.00
C896   C     0.13379   0.47384   0.97146   0.00000  Uiso   1.00
C897   C     0.19933   0.52599   0.98029   0.00000  Uiso   1.00
C898   C     0.13401   0.47401   0.68638   0.00000  Uiso   1.00
H899   H     0.32478   0.50027   0.78008   0.00000  Uiso   1.00
H900   H     0.00855   0.49973   0.88659   0.00000  Uiso   1.00
H901   H     0.10588   0.37323   0.77642   0.00000  Uiso   1.00
H902   H     0.22746   0.62677   0.89024   0.00000  Uiso   1.00
H903   H     0.22526   0.54664   0.96514   0.00000  Uiso   1.00
H904   H     0.10808   0.45336   0.70153   0.00000  Uiso   1.00
N905   N     0.16665   0.49999   0.95240   0.00000  Uiso   1.00
N906   N     0.16668   0.50001   0.71427   0.00000  Uiso   1.00
O907   O     0.16666   0.43892   0.87154   0.00000  Uiso   1.00
O908   O     0.16667   0.56108   0.79513   0.00000  Uiso   1.00
O909   O     0.16666   0.43893   0.79510   0.00000  Uiso   1.00
O910   O     0.16667   0.56107   0.87157   0.00000  Uiso   1.00
O911   O     0.09058   0.50000   0.86261   0.00000  Uiso   1.00
O912   O     0.24275   0.50000   0.80405   0.00000  Uiso   1.00
O913   O     0.09058   0.50000   0.78617   0.00000  Uiso   1.00
O914   O     0.24275   0.50000   0.88050   0.00000  Uiso   1.00
Zn915  Zn    0.16667   0.49999   0.88437   0.00000  Uiso   1.00
Zn916  Zn    0.16667   0.50001   0.78229   0.00000  Uiso   1.00
O917   O     0.09018   0.62737   0.77021   0.00000  Uiso   1.00
H918   H     0.08260   0.59906   0.78104   0.00000  Uiso   1.00
O919   O     0.24316   0.37263   0.89646   0.00000  Uiso   1.00
H920   H     0.25073   0.40094   0.88563   0.00000  Uiso   1.00
O921   O     0.23244   0.55234   0.72355   0.00000  Uiso   1.00
H922   H     0.25365   0.56904   0.70476   0.00000  Uiso   1.00
O923   O     0.10089   0.44766   0.94312   0.00000  Uiso   1.00
H924   H     0.07969   0.43096   0.96190   0.00000  Uiso   1.00
C925   C     0.50142   0.42011   0.83338   0.00000  Uiso   1.00
C926   C     0.49858   0.57989   0.83329   0.00000  Uiso   1.00
C927   C     0.40040   0.49999   0.82138   0.00000  Uiso   1.00
C928   C     0.59961   0.50001   0.84528   0.00000  Uiso   1.00
C929   C     0.34536   0.50007   0.81496   0.00000  Uiso   1.00
C930   C     0.65464   0.49993   0.85171   0.00000  Uiso   1.00
C931   C     0.46621   0.35561   0.80078   0.00000  Uiso   1.00
C932   C     0.53379   0.64439   0.86588   0.00000  Uiso   1.00
C933   C     0.46230   0.64606   0.80108   0.00000  Uiso   1.00
C934   C     0.53770   0.35394   0.86558   0.00000  Uiso   1.00
C935   C     0.49724   0.62403   0.83359   0.00000  Uiso   1.00
C936   C     0.50276   0.37597   0.83308   0.00000  Uiso   1.00
C937   C     0.53288   0.52616   0.69521   0.00000  Uiso   1.00
C938   C     0.46712   0.47384   0.97146   0.00000  Uiso   1.00
C939   C     0.53266   0.52599   0.98029   0.00000  Uiso   1.00
C940   C     0.46734   0.47401   0.68638   0.00000  Uiso   1.00
H941   H     0.65812   0.50027   0.78008   0.00000  Uiso   1.00
H942   H     0.34188   0.49973   0.88659   0.00000  Uiso   1.00
H943   H     0.43921   0.37323   0.77642   0.00000  Uiso   1.00
H944   H     0.56079   0.62677   0.89024   0.00000  Uiso   1.00
H945   H     0.55859   0.54664   0.96514   0.00000  Uiso   1.00
H946   H     0.44141   0.45336   0.70153   0.00000  Uiso   1.00
N947   N     0.49999   0.49999   0.95240   0.00000  Uiso   1.00
N948   N     0.50001   0.50001   0.71427   0.00000  Uiso   1.00
O949   O     0.50000   0.43892   0.87154   0.00000  Uiso   1.00
O950   O     0.50000   0.56108   0.79513   0.00000  Uiso   1.00
O951   O     0.50000   0.43893   0.79510   0.00000  Uiso   1.00
O952   O     0.50000   0.56107   0.87157   0.00000  Uiso   1.00
O953   O     0.42392   0.50000   0.86261   0.00000  Uiso   1.00
O954   O     0.57608   0.50000   0.80405   0.00000  Uiso   1.00
O955   O     0.42392   0.50000   0.78617   0.00000  Uiso   1.00
O956   O     0.57608   0.50000   0.88050   0.00000  Uiso   1.00
Zn957  Zn    0.50000   0.49999   0.88437   0.00000  Uiso   1.00
Zn958  Zn    0.50000   0.50001   0.78229   0.00000  Uiso   1.00
O959   O     0.42351   0.62737   0.77021   0.00000  Uiso   1.00
H960   H     0.41593   0.59906   0.78104   0.00000  Uiso   1.00
O961   O     0.57649   0.37263   0.89646   0.00000  Uiso   1.00
H962   H     0.58407   0.40094   0.88563   0.00000  Uiso   1.00
O963   O     0.56577   0.55234   0.72355   0.00000  Uiso   1.00
H964   H     0.58698   0.56904   0.70476   0.00000  Uiso   1.00
O965   O     0.43423   0.44766   0.94312   0.00000  Uiso   1.00
H966   H     0.41302   0.43096   0.96190   0.00000  Uiso   1.00
C967   C     0.83476   0.42011   0.83338   0.00000  Uiso   1.00
C968   C     0.83191   0.57989   0.83329   0.00000  Uiso   1.00
C969   C     0.73373   0.49999   0.82138   0.00000  Uiso   1.00
C970   C     0.93294   0.50001   0.84528   0.00000  Uiso   1.00
C971   C     0.67869   0.50007   0.81496   0.00000  Uiso   1.00
C972   C     0.98797   0.49993   0.85171   0.00000  Uiso   1.00
C973   C     0.79955   0.35561   0.80078   0.00000  Uiso   1.00
C974   C     0.86712   0.64439   0.86588   0.00000  Uiso   1.00
C975   C     0.79564   0.64606   0.80108   0.00000  Uiso   1.00
C976   C     0.87103   0.35394   0.86558   0.00000  Uiso   1.00
C977   C     0.83057   0.62403   0.83359   0.00000  Uiso   1.00
C978   C     0.83610   0.37597   0.83308   0.00000  Uiso   1.00
C979   C     0.86621   0.52616   0.69521   0.00000  Uiso   1.00
C980   C     0.80046   0.47384   0.97146   0.00000  Uiso   1.00
C981   C     0.86600   0.52599   0.98029   0.00000  Uiso   1.00
C982   C     0.80067   0.47401   0.68638   0.00000  Uiso   1.00
H983   H     0.99145   0.50027   0.78008   0.00000  Uiso   1.00
H984   H     0.67522   0.49973   0.88659   0.00000  Uiso   1.00
H985   H     0.77254   0.37323   0.77642   0.00000  Uiso   1.00
H986   H     0.89412   0.62677   0.89024   0.00000  Uiso   1.00
H987   H     0.89192   0.54664   0.96514   0.00000  Uiso   1.00
H988   H     0.77474   0.45336   0.70153   0.00000  Uiso   1.00
N989   N     0.83332   0.49999   0.95240   0.00000  Uiso   1.00
N990   N     0.83335   0.50001   0.71427   0.00000  Uiso   1.00
O991   O     0.83333   0.43892   0.87154   0.00000  Uiso   1.00
O992   O     0.83334   0.56108   0.79513   0.00000  Uiso   1.00
O993   O     0.83333   0.43893   0.79510   0.00000  Uiso   1.00
O994   O     0.83334   0.56107   0.87157   0.00000  Uiso   1.00
O995   O     0.75725   0.50000   0.86261   0.00000  Uiso   1.00
O996   O     0.90942   0.50000   0.80405   0.00000  Uiso   1.00
O997   O     0.75725   0.50000   0.78617   0.00000  Uiso   1.00
O998   O     0.90942   0.50000   0.88050   0.00000  Uiso   1.00
Zn999  Zn    0.83333   0.49999   0.88437   0.00000  Uiso   1.00
Zn1000 Zn    0.83333   0.50001   0.78229   0.00000  Uiso   1.00
O1001  O     0.75685   0.62737   0.77021   0.00000  Uiso   1.00
H1002  H     0.74927   0.59906   0.78104   0.00000  Uiso   1.00
O1003  O     0.90982   0.37263   0.89646   0.00000  Uiso   1.00
H1004  H     0.91740   0.40094   0.88563   0.00000  Uiso   1.00
O1005  O     0.89911   0.55234   0.72355   0.00000  Uiso   1.00
H1006  H     0.92031   0.56904   0.70476   0.00000  Uiso   1.00
O1007  O     0.76756   0.44766   0.94312   0.00000  Uiso   1.00
H1008  H     0.74635   0.43096   0.96190   0.00000  Uiso   1.00
C1009  C     0.16809   0.75344   0.83338   0.00000  Uiso   1.00
C1010  C     0.16524   0.91323   0.83329   0.00000  Uiso   1.00
C1011  C     0.06706   0.83332   0.82138   0.00000  Uiso   1.00
C1012  C     0.26627   0.83334   0.84528   0.00000  Uiso   1.00
C1013  C     0.01203   0.83340   0.81496   0.00000  Uiso   1.00
C1014  C     0.32131   0.83326   0.85171   0.00000  Uiso   1.00
C1015  C     0.13288   0.68894   0.80078   0.00000  Uiso   1.00
C1016  C     0.20045   0.97773   0.86588   0.00000  Uiso   1.00
C1017  C     0.12897   0.97940   0.80108   0.00000  Uiso   1.00
C1018  C     0.20436   0.68727   0.86558   0.00000  Uiso   1.00
C1019  C     0.16390   0.95737   0.83359   0.00000  Uiso   1.00
C1020  C     0.16943   0.70930   0.83308   0.00000  Uiso   1.00
C1021  C     0.19954   0.85949   0.69521   0.00000  Uiso   1.00
C1022  C     0.13379   0.80717   0.97146   0.00000  Uiso   1.00
C1023  C     0.19933   0.85933   0.98029   0.00000  Uiso   1.00
C1024  C     0.13401   0.80734   0.68638   0.00000  Uiso   1.00
H1025  H     0.32478   0.83360   0.78008   0.00000  Uiso   1.00
H1026  H     0.00855   0.83307   0.88659   0.00000  Uiso   1.00
H1027  H     0.10588   0.70656   0.77642   0.00000  Uiso   1.00
H1028  H     0.22746   0.96010   0.89024   0.00000  Uiso   1.00
H1029  H     0.22526   0.87998   0.96514   0.00000  Uiso   1.00
H1030  H     0.10808   0.78669   0.70153   0.00000  Uiso   1.00
N1031  N     0.16665   0.83332   0.95240   0.00000  Uiso   1.00
N1032  N     0.16668   0.83334   0.71427   0.00000  Uiso   1.00
O1033  O     0.16666   0.77225   0.87154   0.00000  Uiso   1.00
O1034  O     0.16667   0.89442   0.79513   0.00000  Uiso   1.00
O1035  O     0.16666   0.77226   0.79510   0.00000  Uiso   1.00
O1036  O     0.16667   0.89441   0.87157   0.00000  Uiso   1.00
O1037  O     0.09058   0.83333   0.86261   0.00000  Uiso   1.00
O1038  O     0.24275   0.83334   0.80405   0.00000  Uiso   1.00
O1039  O     0.09058   0.83334   0.78617   0.00000  Uiso   1.00
O1040  O     0.24275   0.83333   0.88050   0.00000  Uiso   1.00
Zn1041 Zn    0.16667   0.83333   0.88437   0.00000  Uiso   1.00
Zn1042 Zn    0.16667   0.83334   0.78229   0.00000  Uiso   1.00
O1043  O     0.09018   0.96071   0.77021   0.00000  Uiso   1.00
H1044  H     0.08260   0.93239   0.78104   0.00000  Uiso   1.00
O1045  O     0.24316   0.70596   0.89646   0.00000  Uiso   1.00
H1046  H     0.25073   0.73428   0.88563   0.00000  Uiso   1.00
O1047  O     0.23244   0.88568   0.72355   0.00000  Uiso   1.00
H1048  H     0.25365   0.90238   0.70476   0.00000  Uiso   1.00
O1049  O     0.10089   0.78099   0.94312   0.00000  Uiso   1.00
H1050  H     0.07969   0.76429   0.96190   0.00000  Uiso   1.00
C1051  C     0.50142   0.75344   0.83338   0.00000  Uiso   1.00
C1052  C     0.49858   0.91323   0.83329   0.00000  Uiso   1.00
C1053  C     0.40040   0.83332   0.82138   0.00000  Uiso   1.00
C1054  C     0.59961   0.83334   0.84528   0.00000  Uiso   1.00
C1055  C     0.34536   0.83340   0.81496   0.00000  Uiso   1.00
C1056  C     0.65464   0.83326   0.85171   0.00000  Uiso   1.00
C1057  C     0.46621   0.68894   0.80078   0.00000  Uiso   1.00
C1058  C     0.53379   0.97773   0.86588   0.00000  Uiso   1.00
C1059  C     0.46230   0.97940   0.80108   0.00000  Uiso   1.00
C1060  C     0.53770   0.68727   0.86558   0.00000  Uiso   1.00
C1061  C     0.49724   0.95737   0.83359   0.00000  Uiso   1.00
C1062  C     0.50276   0.70930   0.83308   0.00000  Uiso   1.00
C1063  C     0.53288   0.85949   0.69521   0.00000  Uiso   1.00
C1064  C     0.46712   0.80717   0.97146   0.00000  Uiso   1.00
C1065  C     0.53266   0.85933   0.98029   0.00000  Uiso   1.00
C1066  C     0.46734   0.80734   0.68638   0.00000  Uiso   1.00
H1067  H     0.65812   0.83360   0.78008   0.00000  Uiso   1.00
H1068  H     0.34188   0.83307   0.88659   0.00000  Uiso   1.00
H1069  H     0.43921   0.70656   0.77642   0.00000  Uiso   1.00
H1070  H     0.56079   0.96010   0.89024   0.00000  Uiso   1.00
H1071  H     0.55859   0.87998   0.96514   0.00000  Uiso   1.00
H1072  H     0.44141   0.78669   0.70153   0.00000  Uiso   1.00
N1073  N     0.49999   0.83332   0.95240   0.00000  Uiso   1.00
N1074  N     0.50001   0.83334   0.71427   0.00000  Uiso   1.00
O1075  O     0.50000   0.77225   0.87154   0.00000  Uiso   1.00
O1076  O     0.50000   0.89442   0.79513   0.00000  Uiso   1.00
O1077  O     0.50000   0.77226   0.79510   0.00000  Uiso   1.00
O1078  O     0.50000   0.89441   0.87157   0.00000  Uiso   1.00
O1079  O     0.42392   0.83333   0.86261   0.00000  Uiso   1.00
O1080  O     0.57608   0.83334   0.80405   0.00000  Uiso   1.00
O1081  O     0.42392   0.83334   0.78617   0.00000  Uiso   1.00
O1082  O     0.57608   0.83333   0.88050   0.00000  Uiso   1.00
Zn1083 Zn    0.50000   0.83333   0.88437   0.00000  Uiso   1.00
Zn1084 Zn    0.50000   0.83334   0.78229   0.00000  Uiso   1.00
O1085  O     0.42351   0.96071   0.77021   0.00000  Uiso   1.00
H1086  H     0.41593   0.93239   0.78104   0.00000  Uiso   1.00
O1087  O     0.57649   0.70596   0.89646   0.00000  Uiso   1.00
H1088  H     0.58407   0.73428   0.88563   0.00000  Uiso   1.00
O1089  O     0.56577   0.88568   0.72355   0.00000  Uiso   1.00
H1090  H     0.58698   0.90238   0.70476   0.00000  Uiso   1.00
O1091  O     0.43423   0.78099   0.94312   0.00000  Uiso   1.00
H1092  H     0.41302   0.76429   0.96190   0.00000  Uiso   1.00
C1093  C     0.83476   0.75344   0.83338   0.00000  Uiso   1.00
C1094  C     0.83191   0.91323   0.83329   0.00000  Uiso   1.00
C1095  C     0.73373   0.83332   0.82138   0.00000  Uiso   1.00
C1096  C     0.93294   0.83334   0.84528   0.00000  Uiso   1.00
C1097  C     0.67869   0.83340   0.81496   0.00000  Uiso   1.00
C1098  C     0.98797   0.83326   0.85171   0.00000  Uiso   1.00
C1099  C     0.79955   0.68894   0.80078   0.00000  Uiso   1.00
C1100  C     0.86712   0.97773   0.86588   0.00000  Uiso   1.00
C1101  C     0.79564   0.97940   0.80108   0.00000  Uiso   1.00
C1102  C     0.87103   0.68727   0.86558   0.00000  Uiso   1.00
C1103  C     0.83057   0.95737   0.83359   0.00000  Uiso   1.00
C1104  C     0.83610   0.70930   0.83308   0.00000  Uiso   1.00
C1105  C     0.86621   0.85949   0.69521   0.00000  Uiso   1.00
C1106  C     0.80046   0.80717   0.97146   0.00000  Uiso   1.00
C1107  C     0.86600   0.85933   0.98029   0.00000  Uiso   1.00
C1108  C     0.80067   0.80734   0.68638   0.00000  Uiso   1.00
H1109  H     0.99145   0.83360   0.78008   0.00000  Uiso   1.00
H1110  H     0.67522   0.83307   0.88659   0.00000  Uiso   1.00
H1111  H     0.77254   0.70656   0.77642   0.00000  Uiso   1.00
H1112  H     0.89412   0.96010   0.89024   0.00000  Uiso   1.00
H1113  H     0.89192   0.87998   0.96514   0.00000  Uiso   1.00
H1114  H     0.77474   0.78669   0.70153   0.00000  Uiso   1.00
N1115  N     0.83332   0.83332   0.95240   0.00000  Uiso   1.00
N1116  N     0.83335   0.83334   0.71427   0.00000  Uiso   1.00
O1117  O     0.83333   0.77225   0.87154   0.00000  Uiso   1.00
O1118  O     0.83334   0.89442   0.79513   0.00000  Uiso   1.00
O1119  O     0.83333   0.77226   0.79510   0.00000  Uiso   1.00
O1120  O     0.83334   0.89441   0.87157   0.00000  Uiso   1.00
O1121  O     0.75725   0.83333   0.86261   0.00000  Uiso   1.00
O1122  O     0.90942   0.83334   0.80405   0.00000  Uiso   1.00
O1123  O     0.75725   0.83334   0.78617   0.00000  Uiso   1.00
O1124  O     0.90942   0.83333   0.88050   0.00000  Uiso   1.00
Zn1125 Zn    0.83333   0.83333   0.88437   0.00000  Uiso   1.00
Zn1126 Zn    0.83333   0.83334   0.78229   0.00000  Uiso   1.00
O1127  O     0.75685   0.96071   0.77021   0.00000  Uiso   1.00
H1128  H     0.74927   0.93239   0.78104   0.00000  Uiso   1.00
O1129  O     0.90982   0.70596   0.89646   0.00000  Uiso   1.00
H1130  H     0.91740   0.73428   0.88563   0.00000  Uiso   1.00
O1131  O     0.89911   0.88568   0.72355   0.00000  Uiso   1.00
H1132  H     0.92031   0.90238   0.70476   0.00000  Uiso   1.00
O1133  O     0.76756   0.78099   0.94312   0.00000  Uiso   1.00
H1134  H     0.74635   0.76429   0.96190   0.00000  Uiso   1.00
loop_
_geom_bond_atom_site_label_1
_geom_bond_atom_site_label_2
_geom_bond_distance
_geom_bond_site_symmetry_2
_ccdc_geom_bond_type
C1     O27     1.281   .     A
C1     O25     1.283   .     A
C1     C12     1.411   .     S
C2     O28     1.281   .     A
C2     C11     1.411   .     S
C2     O26     1.283   .     A
C3     O31     1.281   .     A
C3     O29     1.279   .     A
C3     C5      1.403   .     S
C4     O32     1.281   .     A
C4     C6      1.403   .     S
C4     O30     1.279   .     A
C5     C90     1.330   1_455 S
C5     H101    1.088   1_455 S
C6     C47     1.330   .     S
C6     H60     1.088   .     S
C7     H19     1.085   .     S
C7     C12     1.395   .     A
C7     C261    1.373   1_545 S
C8     H20     1.085   .     S
C8     C11     1.395   .     A
C8     C136    1.373   .     S
C9     C11     1.408   .     A
C9     O35     1.382   .     S
C9     C133    1.373   .     S
C10    C12     1.408   .     A
C10    O37     1.382   .     S
C10    C260    1.373   1_545 S
C13    O39     1.378   .     S
C13    N24     1.369   .     A
C13    C771    1.427   1_554 S
C14    N23     1.369   .     A
C14    O41     1.378   .     S
C14    C394    1.427   .     S
C15    N23     1.365   .     A
C15    H21     1.082   .     S
C15    C391    1.427   .     S
C16    N24     1.365   .     A
C16    H22     1.082   .     S
C16    C770    1.427   1_554 S
H17    C47     1.088   .     S
H18    C90     1.088   1_455 S
N23    Zn33    2.013   .     S
N24    Zn34    2.013   .     S
O25    Zn33    1.986   .     S
O26    Zn34    1.986   .     S
O27    Zn34    1.989   .     S
O28    Zn33    1.989   .     S
O29    Zn33    1.971   .     S
O30    Zn34    1.971   .     S
O31    Zn34    1.981   .     S
O32    Zn33    1.981   .     S
O35    H36     0.989   .     S
O37    H38     0.989   .     S
O39    H40     0.992   .     S
O41    H42     0.992   .     S
C43    O69     1.281   .     A
C43    O67     1.283   .     A
C43    C54     1.411   .     S
C44    O70     1.281   .     A
C44    C53     1.411   .     S
C44    O68     1.283   .     A
C45    O73     1.281   .     A
C45    O71     1.279   .     A
C45    C47     1.403   .     S
C46    O74     1.281   .     A
C46    C48     1.403   .     S
C46    O72     1.279   .     A
C48    C89     1.330   .     S
C48    H102    1.088   .     S
C49    H61     1.085   .     S
C49    C54     1.395   .     A
C49    C303    1.373   1_545 S
C50    H62     1.085   .     S
C50    C53     1.395   .     A
C50    C178    1.373   .     S
C51    C53     1.408   .     A
C51    O77     1.382   .     S
C51    C175    1.373   .     S
C52    C54     1.408   .     A
C52    O79     1.382   .     S
C52    C302    1.373   1_545 S
C55    O81     1.378   .     S
C55    N66     1.369   .     A
C55    C813    1.427   1_554 S
C56    N65     1.369   .     A
C56    O83     1.378   .     S
C56    C436    1.427   .     S
C57    N65     1.365   .     A
C57    H63     1.082   .     S
C57    C433    1.427   .     S
C58    N66     1.365   .     A
C58    H64     1.082   .     S
C58    C812    1.427   1_554 S
H59    C89     1.088   .     S
N65    Zn75    2.013   .     S
N66    Zn76    2.013   .     S
O67    Zn75    1.986   .     S
O68    Zn76    1.986   .     S
O69    Zn76    1.989   .     S
O70    Zn75    1.989   .     S
O71    Zn75    1.971   .     S
O72    Zn76    1.971   .     S
O73    Zn76    1.981   .     S
O74    Zn75    1.981   .     S
O77    H78     0.989   .     S
O79    H80     0.989   .     S
O81    H82     0.992   .     S
O83    H84     0.992   .     S
C85    O111    1.281   .     A
C85    O109    1.283   .     A
C85    C96     1.411   .     S
C86    O112    1.281   .     A
C86    C95     1.411   .     S
C86    O110    1.283   .     A
C87    O115    1.281   .     A
C87    O113    1.279   .     A
C87    C89     1.403   .     S
C88    O116    1.281   .     A
C88    C90     1.403   .     S
C88    O114    1.279   .     A
C90    C5      1.330   1_655 S
C90    H18     1.088   1_655 S
C91    H103    1.085   .     S
C91    C96     1.395   .     A
C91    C345    1.373   1_545 S
C92    H104    1.085   .     S
C92    C95     1.395   .     A
C92    C220    1.373   .     S
C93    C95     1.408   .     A
C93    O119    1.382   .     S
C93    C217    1.373   .     S
C94    C96     1.408   .     A
C94    O121    1.382   .     S
C94    C344    1.373   1_545 S
C97    O123    1.378   .     S
C97    N108    1.369   .     A
C97    C855    1.427   1_554 S
C98    N107    1.369   .     A
C98    O125    1.378   .     S
C98    C478    1.427   .     S
C99    N107    1.365   .     A
C99    H105    1.082   .     S
C99    C475    1.427   .     S
C100   N108    1.365   .     A
C100   H106    1.082   .     S
C100   C854    1.427   1_554 S
H101   C5      1.088   1_655 S
N107   Zn117   2.013   .     S
N108   Zn118   2.013   .     S
O109   Zn117   1.986   .     S
O110   Zn118   1.986   .     S
O111   Zn118   1.989   .     S
O112   Zn117   1.989   .     S
O113   Zn117   1.971   .     S
O114   Zn118   1.971   .     S
O115   Zn118   1.981   .     S
O116   Zn117   1.981   .     S
O119   H120    0.989   .     S
O121   H122    0.989   .     S
O123   H124    0.992   .     S
O125   H126    0.992   .     S
C127   O153    1.281   .     A
C127   O151    1.283   .     A
C127   C138    1.411   .     S
C128   O154    1.281   .     A
C128   C137    1.411   .     S
C128   O152    1.283   .     A
C129   O157    1.281   .     A
C129   O155    1.279   .     A
C129   C131    1.403   .     S
C130   O158    1.281   .     A
C130   C132    1.403   .     S
C130   O156    1.279   .     A
C131   C216    1.330   1_455 S
C131   H227    1.088   1_455 S
C132   C173    1.330   .     S
C132   H186    1.088   .     S
C133   H145    1.085   .     S
C133   C138    1.395   .     A
C134   H146    1.085   .     S
C134   C137    1.395   .     A
C134   C262    1.373   .     S
C135   C137    1.408   .     A
C135   O161    1.382   .     S
C135   C259    1.373   .     S
C136   C138    1.408   .     A
C136   O163    1.382   .     S
C139   O165    1.378   .     S
C139   N150    1.369   .     A
C139   C897    1.427   1_554 S
C140   N149    1.369   .     A
C140   O167    1.378   .     S
C140   C520    1.427   .     S
C141   N149    1.365   .     A
C141   H147    1.082   .     S
C141   C517    1.427   .     S
C142   N150    1.365   .     A
C142   H148    1.082   .     S
C142   C896    1.427   1_554 S
H143   C173    1.088   .     S
H144   C216    1.088   1_455 S
N149   Zn159   2.013   .     S
N150   Zn160   2.013   .     S
O151   Zn159   1.986   .     S
O152   Zn160   1.986   .     S
O153   Zn160   1.989   .     S
O154   Zn159   1.989   .     S
O155   Zn159   1.971   .     S
O156   Zn160   1.971   .     S
O157   Zn160   1.981   .     S
O158   Zn159   1.981   .     S
O161   H162    0.989   .     S
O163   H164    0.989   .     S
O165   H166    0.992   .     S
O167   H168    0.992   .     S
C169   O195    1.281   .     A
C169   O193    1.283   .     A
C169   C180    1.411   .     S
C170   O196    1.281   .     A
C170   C179    1.411   .     S
C170   O194    1.283   .     A
C171   O199    1.281   .     A
C171   O197    1.279   .     A
C171   C173    1.403   .     S
C172   O200    1.281   .     A
C172   C174    1.403   .     S
C172   O198    1.279   .     A
C174   C215    1.330   .     S
C174   H228    1.088   .     S
C175   H187    1.085   .     S
C175   C180    1.395   .     A
C176   H188    1.085   .     S
C176   C179    1.395   .     A
C176   C304    1.373   .     S
C177   C179    1.408   .     A
C177   O203    1.382   .     S
C177   C301    1.373   .     S
C178   C180    1.408   .     A
C178   O205    1.382   .     S
C181   O207    1.378   .     S
C181   N192    1.369   .     A
C181   C939    1.427   1_554 S
C182   N191    1.369   .     A
C182   O209    1.378   .     S
C182   C562    1.427   .     S
C183   N191    1.365   .     A
C183   H189    1.082   .     S
C183   C559    1.427   .     S
C184   N192    1.365   .     A
C184   H190    1.082   .     S
C184   C938    1.427   1_554 S
H185   C215    1.088   .     S
N191   Zn201   2.013   .     S
N192   Zn202   2.013   .     S
O193   Zn201   1.986   .     S
O194   Zn202   1.986   .     S
O195   Zn202   1.989   .     S
O196   Zn201   1.989   .     S
O197   Zn201   1.971   .     S
O198   Zn202   1.971   .     S
O199   Zn202   1.981   .     S
O200   Zn201   1.981   .     S
O203   H204    0.989   .     S
O205   H206    0.989   .     S
O207   H208    0.992   .     S
O209   H210    0.992   .     S
C211   O237    1.281   .     A
C211   O235    1.283   .     A
C211   C222    1.411   .     S
C212   O238    1.281   .     A
C212   C221    1.411   .     S
C212   O236    1.283   .     A
C213   O241    1.281   .     A
C213   O239    1.279   .     A
C213   C215    1.403   .     S
C214   O242    1.281   .     A
C214   C216    1.403   .     S
C214   O240    1.279   .     A
C216   C131    1.330   1_655 S
C216   H144    1.088   1_655 S
C217   H229    1.085   .     S
C217   C222    1.395   .     A
C218   H230    1.085   .     S
C218   C221    1.395   .     A
C218   C346    1.373   .     S
C219   C221    1.408   .     A
C219   O245    1.382   .     S
C219   C343    1.373   .     S
C220   C222    1.408   .     A
C220   O247    1.382   .     S
C223   O249    1.378   .     S
C223   N234    1.369   .     A
C223   C981    1.427   1_554 S
C224   N233    1.369   .     A
C224   O251    1.378   .     S
C224   C604    1.427   .     S
C225   N233    1.365   .     A
C225   H231    1.082   .     S
C225   C601    1.427   .     S
C226   N234    1.365   .     A
C226   H232    1.082   .     S
C226   C980    1.427   1_554 S
H227   C131    1.088   1_655 S
N233   Zn243   2.013   .     S
N234   Zn244   2.013   .     S
O235   Zn243   1.986   .     S
O236   Zn244   1.986   .     S
O237   Zn244   1.989   .     S
O238   Zn243   1.989   .     S
O239   Zn243   1.971   .     S
O240   Zn244   1.971   .     S
O241   Zn244   1.981   .     S
O242   Zn243   1.981   .     S
O245   H246    0.989   .     S
O247   H248    0.989   .     S
O249   H250    0.992   .     S
O251   H252    0.992   .     S
C253   O279    1.281   .     A
C253   O277    1.283   .     A
C253   C264    1.411   .     S
C254   O280    1.281   .     A
C254   C263    1.411   .     S
C254   O278    1.283   .     A
C255   O283    1.281   .     A
C255   O281    1.279   .     A
C255   C257    1.403   .     S
C256   O284    1.281   .     A
C256   C258    1.403   .     S
C256   O282    1.279   .     A
C257   C342    1.330   1_455 S
C257   H353    1.088   1_455 S
C258   C299    1.330   .     S
C258   H312    1.088   .     S
C259   H271    1.085   .     S
C259   C264    1.395   .     A
C260   H272    1.085   .     S
C260   C263    1.395   .     A
C260   C10     1.373   1_565 S
C261   C263    1.408   .     A
C261   O287    1.382   .     S
C261   C7      1.373   1_565 S
C262   C264    1.408   .     A
C262   O289    1.382   .     S
C265   O291    1.378   .     S
C265   N276    1.369   .     A
C265   C1023   1.427   1_554 S
C266   N275    1.369   .     A
C266   O293    1.378   .     S
C266   C646    1.427   .     S
C267   N275    1.365   .     A
C267   H273    1.082   .     S
C267   C643    1.427   .     S
C268   N276    1.365   .     A
C268   H274    1.082   .     S
C268   C1022   1.427   1_554 S
H269   C299    1.088   .     S
H270   C342    1.088   1_455 S
N275   Zn285   2.013   .     S
N276   Zn286   2.013   .     S
O277   Zn285   1.986   .     S
O278   Zn286   1.986   .     S
O279   Zn286   1.989   .     S
O280   Zn285   1.989   .     S
O281   Zn285   1.971   .     S
O282   Zn286   1.971   .     S
O283   Zn286   1.981   .     S
O284   Zn285   1.981   .     S
O287   H288    0.989   .     S
O289   H290    0.989   .     S
O291   H292    0.992   .     S
O293   H294    0.992   .     S
C295   O321    1.281   .     A
C295   O319    1.283   .     A
C295   C306    1.411   .     S
C296   O322    1.281   .     A
C296   C305    1.411   .     S
C296   O320    1.283   .     A
C297   O325    1.281   .     A
C297   O323    1.279   .     A
C297   C299    1.403   .     S
C298   O326    1.281   .     A
C298   C300    1.403   .     S
C298   O324    1.279   .     A
C300   C341    1.330   .     S
C300   H354    1.088   .     S
C301   H313    1.085   .     S
C301   C306    1.395   .     A
C302   H314    1.085   .     S
C302   C305    1.395   .     A
C302   C52     1.373   1_565 S
C303   C305    1.408   .     A
C303   O329    1.382   .     S
C303   C49     1.373   1_565 S
C304   C306    1.408   .     A
C304   O331    1.382   .     S
C307   O333    1.378   .     S
C307   N318    1.369   .     A
C307   C1065   1.427   1_554 S
C308   N317    1.369   .     A
C308   O335    1.378   .     S
C308   C688    1.427   .     S
C309   N317    1.365   .     A
C309   H315    1.082   .     S
C309   C685    1.427   .     S
C310   N318    1.365   .     A
C310   H316    1.082   .     S
C310   C1064   1.427   1_554 S
H311   C341    1.088   .     S
N317   Zn327   2.013   .     S
N318   Zn328   2.013   .     S
O319   Zn327   1.986   .     S
O320   Zn328   1.986   .     S
O321   Zn328   1.989   .     S
O322   Zn327   1.989   .     S
O323   Zn327   1.971   .     S
O324   Zn328   1.971   .     S
O325   Zn328   1.981   .     S
O326   Zn327   1.981   .     S
O329   H330    0.989   .     S
O331   H332    0.989   .     S
O333   H334    0.992   .     S
O335   H336    0.992   .     S
C337   O363    1.281   .     A
C337   O361    1.283   .     A
C337   C348    1.411   .     S
C338   O364    1.281   .     A
C338   C347    1.411   .     S
C338   O362    1.283   .     A
C339   O367    1.281   .     A
C339   O365    1.279   .     A
C339   C341    1.403   .     S
C340   O368    1.281   .     A
C340   C342    1.403   .     S
C340   O366    1.279   .     A
C342   C257    1.330   1_655 S
C342   H270    1.088   1_655 S
C343   H355    1.085   .     S
C343   C348    1.395   .     A
C344   H356    1.085   .     S
C344   C347    1.395   .     A
C344   C94     1.373   1_565 S
C345   C347    1.408   .     A
C345   O371    1.382   .     S
C345   C91     1.373   1_565 S
C346   C348    1.408   .     A
C346   O373    1.382   .     S
C349   O375    1.378   .     S
C349   N360    1.369   .     A
C349   C1107   1.427   1_554 S
C350   N359    1.369   .     A
C350   O377    1.378   .     S
C350   C730    1.427   .     S
C351   N359    1.365   .     A
C351   H357    1.082   .     S
C351   C727    1.427   .     S
C352   N360    1.365   .     A
C352   H358    1.082   .     S
C352   C1106   1.427   1_554 S
H353   C257    1.088   1_655 S
N359   Zn369   2.013   .     S
N360   Zn370   2.013   .     S
O361   Zn369   1.986   .     S
O362   Zn370   1.986   .     S
O363   Zn370   1.989   .     S
O364   Zn369   1.989   .     S
O365   Zn369   1.971   .     S
O366   Zn370   1.971   .     S
O367   Zn370   1.981   .     S
O368   Zn369   1.981   .     S
O371   H372    0.989   .     S
O373   H374    0.989   .     S
O375   H376    0.992   .     S
O377   H378    0.992   .     S
C379   O405    1.281   .     A
C379   O403    1.283   .     A
C379   C390    1.411   .     S
C380   O406    1.281   .     A
C380   C389    1.411   .     S
C380   O404    1.283   .     A
C381   O409    1.281   .     A
C381   O407    1.279   .     A
C381   C383    1.403   .     S
C382   O410    1.281   .     A
C382   C384    1.403   .     S
C382   O408    1.279   .     A
C383   C468    1.330   1_455 S
C383   H479    1.088   1_455 S
C384   C425    1.330   .     S
C384   H438    1.088   .     S
C385   H397    1.085   .     S
C385   C390    1.395   .     A
C385   C639    1.373   1_545 S
C386   H398    1.085   .     S
C386   C389    1.395   .     A
C386   C514    1.373   .     S
C387   C389    1.408   .     A
C387   O413    1.382   .     S
C387   C511    1.373   .     S
C388   C390    1.408   .     A
C388   O415    1.382   .     S
C388   C638    1.373   1_545 S
C391   O417    1.378   .     S
C391   N402    1.369   .     A
C392   N401    1.369   .     A
C392   O419    1.378   .     S
C392   C772    1.427   .     S
C393   N401    1.365   .     A
C393   H399    1.082   .     S
C393   C769    1.427   .     S
C394   N402    1.365   .     A
C394   H400    1.082   .     S
H395   C425    1.088   .     S
H396   C468    1.088   1_455 S
N401   Zn411   2.013   .     S
N402   Zn412   2.013   .     S
O403   Zn411   1.986   .     S
O404   Zn412   1.986   .     S
O405   Zn412   1.989   .     S
O406   Zn411   1.989   .     S
O407   Zn411   1.971   .     S
O408   Zn412   1.971   .     S
O409   Zn412   1.981   .     S
O410   Zn411   1.981   .     S
O413   H414    0.989   .     S
O415   H416    0.989   .     S
O417   H418    0.992   .     S
O419   H420    0.992   .     S
C421   O447    1.281   .     A
C421   O445    1.283   .     A
C421   C432    1.411   .     S
C422   O448    1.281   .     A
C422   C431    1.411   .     S
C422   O446    1.283   .     A
C423   O451    1.281   .     A
C423   O449    1.279   .     A
C423   C425    1.403   .     S
C424   O452    1.281   .     A
C424   C426    1.403   .     S
C424   O450    1.279   .     A
C426   C467    1.330   .     S
C426   H480    1.088   .     S
C427   H439    1.085   .     S
C427   C432    1.395   .     A
C427   C681    1.373   1_545 S
C428   H440    1.085   .     S
C428   C431    1.395   .     A
C428   C556    1.373   .     S
C429   C431    1.408   .     A
C429   O455    1.382   .     S
C429   C553    1.373   .     S
C430   C432    1.408   .     A
C430   O457    1.382   .     S
C430   C680    1.373   1_545 S
C433   O459    1.378   .     S
C433   N444    1.369   .     A
C434   N443    1.369   .     A
C434   O461    1.378   .     S
C434   C814    1.427   .     S
C435   N443    1.365   .     A
C435   H441    1.082   .     S
C435   C811    1.427   .     S
C436   N444    1.365   .     A
C436   H442    1.082   .     S
H437   C467    1.088   .     S
N443   Zn453   2.013   .     S
N444   Zn454   2.013   .     S
O445   Zn453   1.986   .     S
O446   Zn454   1.986   .     S
O447   Zn454   1.989   .     S
O448   Zn453   1.989   .     S
O449   Zn453   1.971   .     S
O450   Zn454   1.971   .     S
O451   Zn454   1.981   .     S
O452   Zn453   1.981   .     S
O455   H456    0.989   .     S
O457   H458    0.989   .     S
O459   H460    0.992   .     S
O461   H462    0.992   .     S
C463   O489    1.281   .     A
C463   O487    1.283   .     A
C463   C474    1.411   .     S
C464   O490    1.281   .     A
C464   C473    1.411   .     S
C464   O488    1.283   .     A
C465   O493    1.281   .     A
C465   O491    1.279   .     A
C465   C467    1.403   .     S
C466   O494    1.281   .     A
C466   C468    1.403   .     S
C466   O492    1.279   .     A
C468   C383    1.330   1_655 S
C468   H396    1.088   1_655 S
C469   H481    1.085   .     S
C469   C474    1.395   .     A
C469   C723    1.373   1_545 S
C470   H482    1.085   .     S
C470   C473    1.395   .     A
C470   C598    1.373   .     S
C471   C473    1.408   .     A
C471   O497    1.382   .     S
C471   C595    1.373   .     S
C472   C474    1.408   .     A
C472   O499    1.382   .     S
C472   C722    1.373   1_545 S
C475   O501    1.378   .     S
C475   N486    1.369   .     A
C476   N485    1.369   .     A
C476   O503    1.378   .     S
C476   C856    1.427   .     S
C477   N485    1.365   .     A
C477   H483    1.082   .     S
C477   C853    1.427   .     S
C478   N486    1.365   .     A
C478   H484    1.082   .     S
H479   C383    1.088   1_655 S
N485   Zn495   2.013   .     S
N486   Zn496   2.013   .     S
O487   Zn495   1.986   .     S
O488   Zn496   1.986   .     S
O489   Zn496   1.989   .     S
O490   Zn495   1.989   .     S
O491   Zn495   1.971   .     S
O492   Zn496   1.971   .     S
O493   Zn496   1.981   .     S
O494   Zn495   1.981   .     S
O497   H498    0.989   .     S
O499   H500    0.989   .     S
O501   H502    0.992   .     S
O503   H504    0.992   .     S
C505   O531    1.281   .     A
C505   O529    1.283   .     A
C505   C516    1.411   .     S
C506   O532    1.281   .     A
C506   C515    1.411   .     S
C506   O530    1.283   .     A
C507   O535    1.281   .     A
C507   O533    1.279   .     A
C507   C509    1.403   .     S
C508   O536    1.281   .     A
C508   C510    1.403   .     S
C508   O534    1.279   .     A
C509   C594    1.330   1_455 S
C509   H605    1.088   1_455 S
C510   C551    1.330   .     S
C510   H564    1.088   .     S
C511   H523    1.085   .     S
C511   C516    1.395   .     A
C512   H524    1.085   .     S
C512   C515    1.395   .     A
C512   C640    1.373   .     S
C513   C515    1.408   .     A
C513   O539    1.382   .     S
C513   C637    1.373   .     S
C514   C516    1.408   .     A
C514   O541    1.382   .     S
C517   O543    1.378   .     S
C517   N528    1.369   .     A
C518   N527    1.369   .     A
C518   O545    1.378   .     S
C518   C898    1.427   .     S
C519   N527    1.365   .     A
C519   H525    1.082   .     S
C519   C895    1.427   .     S
C520   N528    1.365   .     A
C520   H526    1.082   .     S
H521   C551    1.088   .     S
H522   C594    1.088   1_455 S
N527   Zn537   2.013   .     S
N528   Zn538   2.013   .     S
O529   Zn537   1.986   .     S
O530   Zn538   1.986   .     S
O531   Zn538   1.989   .     S
O532   Zn537   1.989   .     S
O533   Zn537   1.971   .     S
O534   Zn538   1.971   .     S
O535   Zn538   1.981   .     S
O536   Zn537   1.981   .     S
O539   H540    0.989   .     S
O541   H542    0.989   .     S
O543   H544    0.992   .     S
O545   H546    0.992   .     S
C547   O573    1.281   .     A
C547   O571    1.283   .     A
C547   C558    1.411   .     S
C548   O574    1.281   .     A
C548   C557    1.411   .     S
C548   O572    1.283   .     A
C549   O577    1.281   .     A
C549   O575    1.279   .     A
C549   C551    1.403   .     S
C550   O578    1.281   .     A
C550   C552    1.403   .     S
C550   O576    1.279   .     A
C552   C593    1.330   .     S
C552   H606    1.088   .     S
C553   H565    1.085   .     S
C553   C558    1.395   .     A
C554   H566    1.085   .     S
C554   C557    1.395   .     A
C554   C682    1.373   .     S
C555   C557    1.408   .     A
C555   O581    1.382   .     S
C555   C679    1.373   .     S
C556   C558    1.408   .     A
C556   O583    1.382   .     S
C559   O585    1.378   .     S
C559   N570    1.369   .     A
C560   N569    1.369   .     A
C560   O587    1.378   .     S
C560   C940    1.427   .     S
C561   N569    1.365   .     A
C561   H567    1.082   .     S
C561   C937    1.427   .     S
C562   N570    1.365   .     A
C562   H568    1.082   .     S
H563   C593    1.088   .     S
N569   Zn579   2.013   .     S
N570   Zn580   2.013   .     S
O571   Zn579   1.986   .     S
O572   Zn580   1.986   .     S
O573   Zn580   1.989   .     S
O574   Zn579   1.989   .     S
O575   Zn579   1.971   .     S
O576   Zn580   1.971   .     S
O577   Zn580   1.981   .     S
O578   Zn579   1.981   .     S
O581   H582    0.989   .     S
O583   H584    0.989   .     S
O585   H586    0.992   .     S
O587   H588    0.992   .     S
C589   O615    1.281   .     A
C589   O613    1.283   .     A
C589   C600    1.411   .     S
C590   O616    1.281   .     A
C590   C599    1.411   .     S
C590   O614    1.283   .     A
C591   O619    1.281   .     A
C591   O617    1.279   .     A
C591   C593    1.403   .     S
C592   O620    1.281   .     A
C592   C594    1.403   .     S
C592   O618    1.279   .     A
C594   C509    1.330   1_655 S
C594   H522    1.088   1_655 S
C595   H607    1.085   .     S
C595   C600    1.395   .     A
C596   H608    1.085   .     S
C596   C599    1.395   .     A
C596   C724    1.373   .     S
C597   C599    1.408   .     A
C597   O623    1.382   .     S
C597   C721    1.373   .     S
C598   C600    1.408   .     A
C598   O625    1.382   .     S
C601   O627    1.378   .     S
C601   N612    1.369   .     A
C602   N611    1.369   .     A
C602   O629    1.378   .     S
C602   C982    1.427   .     S
C603   N611    1.365   .     A
C603   H609    1.082   .     S
C603   C979    1.427   .     S
C604   N612    1.365   .     A
C604   H610    1.082   .     S
H605   C509    1.088   1_655 S
N611   Zn621   2.013   .     S
N612   Zn622   2.013   .     S
O613   Zn621   1.986   .     S
O614   Zn622   1.986   .     S
O615   Zn622   1.989   .     S
O616   Zn621   1.989   .     S
O617   Zn621   1.971   .     S
O618   Zn622   1.971   .     S
O619   Zn622   1.981   .     S
O620   Zn621   1.981   .     S
O623   H624    0.989   .     S
O625   H626    0.989   .     S
O627   H628    0.992   .     S
O629   H630    0.992   .     S
C631   O657    1.281   .     A
C631   O655    1.283   .     A
C631   C642    1.411   .     S
C632   O658    1.281   .     A
C632   C641    1.411   .     S
C632   O656    1.283   .     A
C633   O661    1.281   .     A
C633   O659    1.279   .     A
C633   C635    1.403   .     S
C634   O662    1.281   .     A
C634   C636    1.403   .     S
C634   O660    1.279   .     A
C635   C720    1.330   1_455 S
C635   H731    1.088   1_455 S
C636   C677    1.330   .     S
C636   H690    1.088   .     S
C637   H649    1.085   .     S
C637   C642    1.395   .     A
C638   H650    1.085   .     S
C638   C641    1.395   .     A
C638   C388    1.373   1_565 S
C639   C641    1.408   .     A
C639   O665    1.382   .     S
C639   C385    1.373   1_565 S
C640   C642    1.408   .     A
C640   O667    1.382   .     S
C643   O669    1.378   .     S
C643   N654    1.369   .     A
C644   N653    1.369   .     A
C644   O671    1.378   .     S
C644   C1024   1.427   .     S
C645   N653    1.365   .     A
C645   H651    1.082   .     S
C645   C1021   1.427   .     S
C646   N654    1.365   .     A
C646   H652    1.082   .     S
H647   C677    1.088   .     S
H648   C720    1.088   1_455 S
N653   Zn663   2.013   .     S
N654   Zn664   2.013   .     S
O655   Zn663   1.986   .     S
O656   Zn664   1.986   .     S
O657   Zn664   1.989   .     S
O658   Zn663   1.989   .     S
O659   Zn663   1.971   .     S
O660   Zn664   1.971   .     S
O661   Zn664   1.981   .     S
O662   Zn663   1.981   .     S
O665   H666    0.989   .     S
O667   H668    0.989   .     S
O669   H670    0.992   .     S
O671   H672    0.992   .     S
C673   O699    1.281   .     A
C673   O697    1.283   .     A
C673   C684    1.411   .     S
C674   O700    1.281   .     A
C674   C683    1.411   .     S
C674   O698    1.283   .     A
C675   O703    1.281   .     A
C675   O701    1.279   .     A
C675   C677    1.403   .     S
C676   O704    1.281   .     A
C676   C678    1.403   .     S
C676   O702    1.279   .     A
C678   C719    1.330   .     S
C678   H732    1.088   .     S
C679   H691    1.085   .     S
C679   C684    1.395   .     A
C680   H692    1.085   .     S
C680   C683    1.395   .     A
C680   C430    1.373   1_565 S
C681   C683    1.408   .     A
C681   O707    1.382   .     S
C681   C427    1.373   1_565 S
C682   C684    1.408   .     A
C682   O709    1.382   .     S
C685   O711    1.378   .     S
C685   N696    1.369   .     A
C686   N695    1.369   .     A
C686   O713    1.378   .     S
C686   C1066   1.427   .     S
C687   N695    1.365   .     A
C687   H693    1.082   .     S
C687   C1063   1.427   .     S
C688   N696    1.365   .     A
C688   H694    1.082   .     S
H689   C719    1.088   .     S
N695   Zn705   2.013   .     S
N696   Zn706   2.013   .     S
O697   Zn705   1.986   .     S
O698   Zn706   1.986   .     S
O699   Zn706   1.989   .     S
O700   Zn705   1.989   .     S
O701   Zn705   1.971   .     S
O702   Zn706   1.971   .     S
O703   Zn706   1.981   .     S
O704   Zn705   1.981   .     S
O707   H708    0.989   .     S
O709   H710    0.989   .     S
O711   H712    0.992   .     S
O713   H714    0.992   .     S
C715   O741    1.281   .     A
C715   O739    1.283   .     A
C715   C726    1.411   .     S
C716   O742    1.281   .     A
C716   C725    1.411   .     S
C716   O740    1.283   .     A
C717   O745    1.281   .     A
C717   O743    1.279   .     A
C717   C719    1.403   .     S
C718   O746    1.281   .     A
C718   C720    1.403   .     S
C718   O744    1.279   .     A
C720   C635    1.330   1_655 S
C720   H648    1.088   1_655 S
C721   H733    1.085   .     S
C721   C726    1.395   .     A
C722   H734    1.085   .     S
C722   C725    1.395   .     A
C722   C472    1.373   1_565 S
C723   C725    1.408   .     A
C723   O749    1.382   .     S
C723   C469    1.373   1_565 S
C724   C726    1.408   .     A
C724   O751    1.382   .     S
C727   O753    1.378   .     S
C727   N738    1.369   .     A
C728   N737    1.369   .     A
C728   O755    1.378   .     S
C728   C1108   1.427   .     S
C729   N737    1.365   .     A
C729   H735    1.082   .     S
C729   C1105   1.427   .     S
C730   N738    1.365   .     A
C730   H736    1.082   .     S
H731   C635    1.088   1_655 S
N737   Zn747   2.013   .     S
N738   Zn748   2.013   .     S
O739   Zn747   1.986   .     S
O740   Zn748   1.986   .     S
O741   Zn748   1.989   .     S
O742   Zn747   1.989   .     S
O743   Zn747   1.971   .     S
O744   Zn748   1.971   .     S
O745   Zn748   1.981   .     S
O746   Zn747   1.981   .     S
O749   H750    0.989   .     S
O751   H752    0.989   .     S
O753   H754    0.992   .     S
O755   H756    0.992   .     S
C757   O783    1.281   .     A
C757   O781    1.283   .     A
C757   C768    1.411   .     S
C758   O784    1.281   .     A
C758   C767    1.411   .     S
C758   O782    1.283   .     A
C759   O787    1.281   .     A
C759   O785    1.279   .     A
C759   C761    1.403   .     S
C760   O788    1.281   .     A
C760   C762    1.403   .     S
C760   O786    1.279   .     A
C761   C846    1.330   1_455 S
C761   H857    1.088   1_455 S
C762   C803    1.330   .     S
C762   H816    1.088   .     S
C763   H775    1.085   .     S
C763   C768    1.395   .     A
C763   C1017   1.373   1_545 S
C764   H776    1.085   .     S
C764   C767    1.395   .     A
C764   C892    1.373   .     S
C765   C767    1.408   .     A
C765   O791    1.382   .     S
C765   C889    1.373   .     S
C766   C768    1.408   .     A
C766   O793    1.382   .     S
C766   C1016   1.373   1_545 S
C769   O795    1.378   .     S
C769   N780    1.369   .     A
C770   N779    1.369   .     A
C770   O797    1.378   .     S
C770   C16     1.427   1_556 S
C771   N779    1.365   .     A
C771   H777    1.082   .     S
C771   C13     1.427   1_556 S
C772   N780    1.365   .     A
C772   H778    1.082   .     S
H773   C803    1.088   .     S
H774   C846    1.088   1_455 S
N779   Zn789   2.013   .     S
N780   Zn790   2.013   .     S
O781   Zn789   1.986   .     S
O782   Zn790   1.986   .     S
O783   Zn790   1.989   .     S
O784   Zn789   1.989   .     S
O785   Zn789   1.971   .     S
O786   Zn790   1.971   .     S
O787   Zn790   1.981   .     S
O788   Zn789   1.981   .     S
O791   H792    0.989   .     S
O793   H794    0.989   .     S
O795   H796    0.992   .     S
O797   H798    0.992   .     S
C799   O825    1.281   .     A
C799   O823    1.283   .     A
C799   C810    1.411   .     S
C800   O826    1.281   .     A
C800   C809    1.411   .     S
C800   O824    1.283   .     A
C801   O829    1.281   .     A
C801   O827    1.279   .     A
C801   C803    1.403   .     S
C802   O830    1.281   .     A
C802   C804    1.403   .     S
C802   O828    1.279   .     A
C804   C845    1.330   .     S
C804   H858    1.088   .     S
C805   H817    1.085   .     S
C805   C810    1.395   .     A
C805   C1059   1.373   1_545 S
C806   H818    1.085   .     S
C806   C809    1.395   .     A
C806   C934    1.373   .     S
C807   C809    1.408   .     A
C807   O833    1.382   .     S
C807   C931    1.373   .     S
C808   C810    1.408   .     A
C808   O835    1.382   .     S
C808   C1058   1.373   1_545 S
C811   O837    1.378   .     S
C811   N822    1.369   .     A
C812   N821    1.369   .     A
C812   O839    1.378   .     S
C812   C58     1.427   1_556 S
C813   N821    1.365   .     A
C813   H819    1.082   .     S
C813   C55     1.427   1_556 S
C814   N822    1.365   .     A
C814   H820    1.082   .     S
H815   C845    1.088   .     S
N821   Zn831   2.013   .     S
N822   Zn832   2.013   .     S
O823   Zn831   1.986   .     S
O824   Zn832   1.986   .     S
O825   Zn832   1.989   .     S
O826   Zn831   1.989   .     S
O827   Zn831   1.971   .     S
O828   Zn832   1.971   .     S
O829   Zn832   1.981   .     S
O830   Zn831   1.981   .     S
O833   H834    0.989   .     S
O835   H836    0.989   .     S
O837   H838    0.992   .     S
O839   H840    0.992   .     S
C841   O867    1.281   .     A
C841   O865    1.283   .     A
C841   C852    1.411   .     S
C842   O868    1.281   .     A
C842   C851    1.411   .     S
C842   O866    1.283   .     A
C843   O871    1.281   .     A
C843   O869    1.279   .     A
C843   C845    1.403   .     S
C844   O872    1.281   .     A
C844   C846    1.403   .     S
C844   O870    1.279   .     A
C846   C761    1.330   1_655 S
C846   H774    1.088   1_655 S
C847   H859    1.085   .     S
C847   C852    1.395   .     A
C847   C1101   1.373   1_545 S
C848   H860    1.085   .     S
C848   C851    1.395   .     A
C848   C976    1.373   .     S
C849   C851    1.408   .     A
C849   O875    1.382   .     S
C849   C973    1.373   .     S
C850   C852    1.408   .     A
C850   O877    1.382   .     S
C850   C1100   1.373   1_545 S
C853   O879    1.378   .     S
C853   N864    1.369   .     A
C854   N863    1.369   .     A
C854   O881    1.378   .     S
C854   C100    1.427   1_556 S
C855   N863    1.365   .     A
C855   H861    1.082   .     S
C855   C97     1.427   1_556 S
C856   N864    1.365   .     A
C856   H862    1.082   .     S
H857   C761    1.088   1_655 S
N863   Zn873   2.013   .     S
N864   Zn874   2.013   .     S
O865   Zn873   1.986   .     S
O866   Zn874   1.986   .     S
O867   Zn874   1.989   .     S
O868   Zn873   1.989   .     S
O869   Zn873   1.971   .     S
O870   Zn874   1.971   .     S
O871   Zn874   1.981   .     S
O872   Zn873   1.981   .     S
O875   H876    0.989   .     S
O877   H878    0.989   .     S
O879   H880    0.992   .     S
O881   H882    0.992   .     S
C883   O909    1.281   .     A
C883   O907    1.283   .     A
C883   C894    1.411   .     S
C884   O910    1.281   .     A
C884   C893    1.411   .     S
C884   O908    1.283   .     A
C885   O913    1.281   .     A
C885   O911    1.279   .     A
C885   C887    1.403   .     S
C886   O914    1.281   .     A
C886   C888    1.403   .     S
C886   O912    1.279   .     A
C887   C972    1.330   1_455 S
C887   H983    1.088   1_455 S
C888   C929    1.330   .     S
C888   H942    1.088   .     S
C889   H901    1.085   .     S
C889   C894    1.395   .     A
C890   H902    1.085   .     S
C890   C893    1.395   .     A
C890   C1018   1.373   .     S
C891   C893    1.408   .     A
C891   O917    1.382   .     S
C891   C1015   1.373   .     S
C892   C894    1.408   .     A
C892   O919    1.382   .     S
C895   O921    1.378   .     S
C895   N906    1.369   .     A
C896   N905    1.369   .     A
C896   O923    1.378   .     S
C896   C142    1.427   1_556 S
C897   N905    1.365   .     A
C897   H903    1.082   .     S
C897   C139    1.427   1_556 S
C898   N906    1.365   .     A
C898   H904    1.082   .     S
H899   C929    1.088   .     S
H900   C972    1.088   1_455 S
N905   Zn915   2.013   .     S
N906   Zn916   2.013   .     S
O907   Zn915   1.986   .     S
O908   Zn916   1.986   .     S
O909   Zn916   1.989   .     S
O910   Zn915   1.989   .     S
O911   Zn915   1.971   .     S
O912   Zn916   1.971   .     S
O913   Zn916   1.981   .     S
O914   Zn915   1.981   .     S
O917   H918    0.989   .     S
O919   H920    0.989   .     S
O921   H922    0.992   .     S
O923   H924    0.992   .     S
C925   O951    1.281   .     A
C925   O949    1.283   .     A
C925   C936    1.411   .     S
C926   O952    1.281   .     A
C926   C935    1.411   .     S
C926   O950    1.283   .     A
C927   O955    1.281   .     A
C927   O953    1.279   .     A
C927   C929    1.403   .     S
C928   O956    1.281   .     A
C928   C930    1.403   .     S
C928   O954    1.279   .     A
C930   C971    1.330   .     S
C930   H984    1.088   .     S
C931   H943    1.085   .     S
C931   C936    1.395   .     A
C932   H944    1.085   .     S
C932   C935    1.395   .     A
C932   C1060   1.373   .     S
C933   C935    1.408   .     A
C933   O959    1.382   .     S
C933   C1057   1.373   .     S
C934   C936    1.408   .     A
C934   O961    1.382   .     S
C937   O963    1.378   .     S
C937   N948    1.369   .     A
C938   N947    1.369   .     A
C938   O965    1.378   .     S
C938   C184    1.427   1_556 S
C939   N947    1.365   .     A
C939   H945    1.082   .     S
C939   C181    1.427   1_556 S
C940   N948    1.365   .     A
C940   H946    1.082   .     S
H941   C971    1.088   .     S
N947   Zn957   2.013   .     S
N948   Zn958   2.013   .     S
O949   Zn957   1.986   .     S
O950   Zn958   1.986   .     S
O951   Zn958   1.989   .     S
O952   Zn957   1.989   .     S
O953   Zn957   1.971   .     S
O954   Zn958   1.971   .     S
O955   Zn958   1.981   .     S
O956   Zn957   1.981   .     S
O959   H960    0.989   .     S
O961   H962    0.989   .     S
O963   H964    0.992   .     S
O965   H966    0.992   .     S
C967   O993    1.281   .     A
C967   O991    1.283   .     A
C967   C978    1.411   .     S
C968   O994    1.281   .     A
C968   C977    1.411   .     S
C968   O992    1.283   .     A
C969   O997    1.281   .     A
C969   O995    1.279   .     A
C969   C971    1.403   .     S
C970   O998    1.281   .     A
C970   C972    1.403   .     S
C970   O996    1.279   .     A
C972   C887    1.330   1_655 S
C972   H900    1.088   1_655 S
C973   H985    1.085   .     S
C973   C978    1.395   .     A
C974   H986    1.085   .     S
C974   C977    1.395   .     A
C974   C1102   1.373   .     S
C975   C977    1.408   .     A
C975   O1001   1.382   .     S
C975   C1099   1.373   .     S
C976   C978    1.408   .     A
C976   O1003   1.382   .     S
C979   O1005   1.378   .     S
C979   N990    1.369   .     A
C980   N989    1.369   .     A
C980   O1007   1.378   .     S
C980   C226    1.427   1_556 S
C981   N989    1.365   .     A
C981   H987    1.082   .     S
C981   C223    1.427   1_556 S
C982   N990    1.365   .     A
C982   H988    1.082   .     S
H983   C887    1.088   1_655 S
N989   Zn999   2.013   .     S
N990   Zn1000  2.013   .     S
O991   Zn999   1.986   .     S
O992   Zn1000  1.986   .     S
O993   Zn1000  1.989   .     S
O994   Zn999   1.989   .     S
O995   Zn999   1.971   .     S
O996   Zn1000  1.971   .     S
O997   Zn1000  1.981   .     S
O998   Zn999   1.981   .     S
O1001  H1002   0.989   .     S
O1003  H1004   0.989   .     S
O1005  H1006   0.992   .     S
O1007  H1008   0.992   .     S
C1009  O1035   1.281   .     A
C1009  O1033   1.283   .     A
C1009  C1020   1.411   .     S
C1010  O1036   1.281   .     A
C1010  C1019   1.411   .     S
C1010  O1034   1.283   .     A
C1011  O1039   1.281   .     A
C1011  O1037   1.279   .     A
C1011  C1013   1.403   .     S
C1012  O1040   1.281   .     A
C1012  C1014   1.403   .     S
C1012  O1038   1.279   .     A
C1013  C1098   1.330   1_455 S
C1013  H1109   1.088   1_455 S
C1014  C1055   1.330   .     S
C1014  H1068   1.088   .     S
C1015  H1027   1.085   .     S
C1015  C1020   1.395   .     A
C1016  H1028   1.085   .     S
C1016  C1019   1.395   .     A
C1016  C766    1.373   1_565 S
C1017  C1019   1.408   .     A
C1017  O1043   1.382   .     S
C1017  C763    1.373   1_565 S
C1018  C1020   1.408   .     A
C1018  O1045   1.382   .     S
C1021  O1047   1.378   .     S
C1021  N1032   1.369   .     A
C1022  N1031   1.369   .     A
C1022  O1049   1.378   .     S
C1022  C268    1.427   1_556 S
C1023  N1031   1.365   .     A
C1023  H1029   1.082   .     S
C1023  C265    1.427   1_556 S
C1024  N1032   1.365   .     A
C1024  H1030   1.082   .     S
H1025  C1055   1.088   .     S
H1026  C1098   1.088   1_455 S
N1031  Zn1041  2.013   .     S
N1032  Zn1042  2.013   .     S
O1033  Zn1041  1.986   .     S
O1034  Zn1042  1.986   .     S
O1035  Zn1042  1.989   .     S
O1036  Zn1041  1.989   .     S
O1037  Zn1041  1.971   .     S
O1038  Zn1042  1.971   .     S
O1039  Zn1042  1.981   .     S
O1040  Zn1041  1.981   .     S
O1043  H1044   0.989   .     S
O1045  H1046   0.989   .     S
O1047  H1048   0.992   .     S
O1049  H1050   0.992   .     S
C1051  O1077   1.281   .     A
C1051  O1075   1.283   .     A
C1051  C1062   1.411   .     S
C1052  O1078   1.281   .     A
C1052  C1061   1.411   .     S
C1052  O1076   1.283   .     A
C1053  O1081   1.281   .     A
C1053  O1079   1.279   .     A
C1053  C1055   1.403   .     S
C1054  O1082   1.281   .     A
C1054  C1056   1.403   .     S
C1054  O1080   1.279   .     A
C1056  C1097   1.330   .     S
C1056  H1110   1.088   .     S
C1057  H1069   1.085   .     S
C1057  C1062   1.395   .     A
C1058  H1070   1.085   .     S
C1058  C1061   1.395   .     A
C1058  C808    1.373   1_565 S
C1059  C1061   1.408   .     A
C1059  O1085   1.382   .     S
C1059  C805    1.373   1_565 S
C1060  C1062   1.408   .     A
C1060  O1087   1.382   .     S
C1063  O1089   1.378   .     S
C1063  N1074   1.369   .     A
C1064  N1073   1.369   .     A
C1064  O1091   1.378   .     S
C1064  C310    1.427   1_556 S
C1065  N1073   1.365   .     A
C1065  H1071   1.082   .     S
C1065  C307    1.427   1_556 S
C1066  N1074   1.365   .     A
C1066  H1072   1.082   .     S
H1067  C1097   1.088   .     S
N1073  Zn1083  2.013   .     S
N1074  Zn1084  2.013   .     S
O1075  Zn1083  1.986   .     S
O1076  Zn1084  1.986   .     S
O1077  Zn1084  1.989   .     S
O1078  Zn1083  1.989   .     S
O1079  Zn1083  1.971   .     S
O1080  Zn1084  1.971   .     S
O1081  Zn1084  1.981   .     S
O1082  Zn1083  1.981   .     S
O1085  H1086   0.989   .     S
O1087  H1088   0.989   .     S
O1089  H1090   0.992   .     S
O1091  H1092   0.992   .     S
C1093  O1119   1.281   .     A
C1093  O1117   1.283   .     A
C1093  C1104   1.411   .     S
C1094  O1120   1.281   .     A
C1094  C1103   1.411   .     S
C1094  O1118   1.283   .     A
C1095  O1123   1.281   .     A
C1095  O1121   1.279   .     A
C1095  C1097   1.403   .     S
C1096  O1124   1.281   .     A
C1096  C1098   1.403   .     S
C1096  O1122   1.279   .     A
C1098  C1013   1.330   1_655 S
C1098  H1026   1.088   1_655 S
C1099  H1111   1.085   .     S
C1099  C1104   1.395   .     A
C1100  H1112   1.085   .     S
C1100  C1103   1.395   .     A
C1100  C850    1.373   1_565 S
C1101  C1103   1.408   .     A
C1101  O1127   1.382   .     S
C1101  C847    1.373   1_565 S
C1102  C1104   1.408   .     A
C1102  O1129   1.382   .     S
C1105  O1131   1.378   .     S
C1105  N1116   1.369   .     A
C1106  N1115   1.369   .     A
C1106  O1133   1.378   .     S
C1106  C352    1.427   1_556 S
C1107  N1115   1.365   .     A
C1107  H1113   1.082   .     S
C1107  C349    1.427   1_556 S
C1108  N1116   1.365   .     A
C1108  H1114   1.082   .     S
H1109  C1013   1.088   1_655 S
N1115  Zn1125  2.013   .     S
N1116  Zn1126  2.013   .     S
O1117  Zn1125  1.986   .     S
O1118  Zn1126  1.986   .     S
O1119  Zn1126  1.989   .     S
O1120  Zn1125  1.989   .     S
O1121  Zn1125  1.971   .     S
O1122  Zn1126  1.971   .     S
O1123  Zn1126  1.981   .     S
O1124  Zn1125  1.981   .     S
O1127  H1128   0.989   .     S
O1129  H1130   0.989   .     S
O1131  H1132   0.992   .     S
O1133  H1134   0.992   .     S
