data_str_m3_o1_o17_pcu_sym.144
_audit_creation_date              2020-01-03
_audit_creation_method            'Materials Studio'
_symmetry_space_group_name_H-M    'P1'
_symmetry_Int_Tables_number       1
_symmetry_cell_setting            triclinic
loop_
_symmetry_equiv_pos_as_xyz
  x,y,z
_cell_length_a                    32.1555
_cell_length_b                    29.4753
_cell_length_c                    30.0233
_cell_angle_alpha                 89.9850
_cell_angle_beta                  90.1055
_cell_angle_gamma                 90.0158
loop_
_atom_site_label
_atom_site_type_symbol
_atom_site_fract_x
_atom_site_fract_y
_atom_site_fract_z
_atom_site_U_iso_or_equiv
_atom_site_adp_type
_atom_site_occupancy
C1     C     0.08661   0.16666   0.24997   0.00000  Uiso   1.00
C2     C     0.24673   0.16667   0.25004   0.00000  Uiso   1.00
C3     C     0.14935   0.24787   0.02256   0.00000  Uiso   1.00
C4     C     0.18398   0.08547   0.47744   0.00000  Uiso   1.00
C5     C     0.02131   0.12617   0.25840   0.00000  Uiso   1.00
C6     C     0.31203   0.20717   0.24160   0.00000  Uiso   1.00
C7     C     0.31204   0.12618   0.25845   0.00000  Uiso   1.00
C8     C     0.02130   0.20715   0.24155   0.00000  Uiso   1.00
C9     C     0.29086   0.16668   0.25004   0.00000  Uiso   1.00
C10    C     0.04247   0.16666   0.24996   0.00000  Uiso   1.00
C11    C     0.19129   0.02400   0.27899   0.00000  Uiso   1.00
C12    C     0.14204   0.30933   0.22101   0.00000  Uiso   1.00
C13    C     0.14204   0.02400   0.22101   0.00000  Uiso   1.00
C14    C     0.19129   0.30933   0.27899   0.00000  Uiso   1.00
C15    C     0.16659   0.16668   0.16328   0.00000  Uiso   1.00
C16    C     0.16674   0.16665   0.33672   0.00000  Uiso   1.00
C17    C     0.17530   0.12632   0.40745   0.00000  Uiso   1.00
C18    C     0.15803   0.20702   0.09255   0.00000  Uiso   1.00
C19    C     0.16685   0.16659   0.38463   0.00000  Uiso   1.00
C20    C     0.16649   0.16674   0.11537   0.00000  Uiso   1.00
C21    C     0.15844   0.20676   0.40745   0.00000  Uiso   1.00
C22    C     0.17489   0.12658   0.09255   0.00000  Uiso   1.00
C23    C     0.15825   0.20699   0.45347   0.00000  Uiso   1.00
C24    C     0.17508   0.12634   0.04653   0.00000  Uiso   1.00
C25    C     0.16676   0.16648   0.47680   0.00000  Uiso   1.00
C26    C     0.16657   0.16685   0.02320   0.00000  Uiso   1.00
C27    C     0.17542   0.12567   0.45370   0.00000  Uiso   1.00
C28    C     0.15791   0.20766   0.04630   0.00000  Uiso   1.00
C29    C     0.14957   0.24718   0.47630   0.00000  Uiso   1.00
C30    C     0.18376   0.08615   0.02370   0.00000  Uiso   1.00
H31    H     0.15173   0.23781   0.38942   0.00000  Uiso   1.00
H32    H     0.18161   0.09552   0.11058   0.00000  Uiso   1.00
H33    H     0.03753   0.09470   0.26521   0.00000  Uiso   1.00
H34    H     0.29580   0.23863   0.23479   0.00000  Uiso   1.00
H35    H     0.29582   0.09472   0.26531   0.00000  Uiso   1.00
H36    H     0.03752   0.23861   0.23469   0.00000  Uiso   1.00
H37    H     0.21097   0.04223   0.30214   0.00000  Uiso   1.00
H38    H     0.12237   0.29110   0.19786   0.00000  Uiso   1.00
H39    H     0.12236   0.04223   0.19787   0.00000  Uiso   1.00
H40    H     0.21097   0.29111   0.30213   0.00000  Uiso   1.00
N41    N     0.16667   0.28573   0.25000   0.00000  Uiso   1.00
N42    N     0.16667   0.04760   0.25000   0.00000  Uiso   1.00
O43    O     0.10559   0.20487   0.25000   0.00000  Uiso   1.00
O44    O     0.22774   0.12846   0.25001   0.00000  Uiso   1.00
O45    O     0.22774   0.20487   0.25001   0.00000  Uiso   1.00
O46    O     0.10559   0.12846   0.25000   0.00000  Uiso   1.00
O47    O     0.16666   0.20489   0.18393   0.00000  Uiso   1.00
O48    O     0.16667   0.12844   0.31607   0.00000  Uiso   1.00
O49    O     0.16667   0.20489   0.31608   0.00000  Uiso   1.00
O50    O     0.16666   0.12844   0.18393   0.00000  Uiso   1.00
Zn51   Zn    0.16667   0.21771   0.25000   0.00000  Uiso   1.00
Zn52   Zn    0.16667   0.11563   0.25000   0.00000  Uiso   1.00
H53    H     0.18200   0.09572   0.38889   0.00000  Uiso   1.00
H54    H     0.15133   0.23761   0.11111   0.00000  Uiso   1.00
H55    H     0.14288   0.27813   0.45813   0.00000  Uiso   1.00
H56    H     0.19046   0.05520   0.04187   0.00000  Uiso   1.00
Cl57   Cl    0.13811   0.29986   0.04904   0.00000  Uiso   1.00
Cl58   Cl    0.19522   0.03348   0.45096   0.00000  Uiso   1.00
C59    C     0.41994   0.16666   0.24997   0.00000  Uiso   1.00
C60    C     0.58006   0.16667   0.25004   0.00000  Uiso   1.00
C61    C     0.48269   0.24787   0.02256   0.00000  Uiso   1.00
C62    C     0.51731   0.08547   0.47744   0.00000  Uiso   1.00
C63    C     0.35464   0.12617   0.25840   0.00000  Uiso   1.00
C64    C     0.64536   0.20717   0.24160   0.00000  Uiso   1.00
C65    C     0.64537   0.12618   0.25845   0.00000  Uiso   1.00
C66    C     0.35463   0.20715   0.24155   0.00000  Uiso   1.00
C67    C     0.62420   0.16668   0.25004   0.00000  Uiso   1.00
C68    C     0.37580   0.16666   0.24996   0.00000  Uiso   1.00
C69    C     0.52463   0.02400   0.27899   0.00000  Uiso   1.00
C70    C     0.47537   0.30933   0.22101   0.00000  Uiso   1.00
C71    C     0.47537   0.02400   0.22101   0.00000  Uiso   1.00
C72    C     0.52463   0.30933   0.27899   0.00000  Uiso   1.00
C73    C     0.49993   0.16668   0.16328   0.00000  Uiso   1.00
C74    C     0.50007   0.16665   0.33672   0.00000  Uiso   1.00
C75    C     0.50863   0.12632   0.40745   0.00000  Uiso   1.00
C76    C     0.49137   0.20702   0.09255   0.00000  Uiso   1.00
C77    C     0.50018   0.16659   0.38463   0.00000  Uiso   1.00
C78    C     0.49982   0.16674   0.11537   0.00000  Uiso   1.00
C79    C     0.49177   0.20676   0.40745   0.00000  Uiso   1.00
C80    C     0.50823   0.12658   0.09255   0.00000  Uiso   1.00
C81    C     0.49158   0.20699   0.45347   0.00000  Uiso   1.00
C82    C     0.50842   0.12634   0.04653   0.00000  Uiso   1.00
C83    C     0.50009   0.16648   0.47680   0.00000  Uiso   1.00
C84    C     0.49991   0.16685   0.02320   0.00000  Uiso   1.00
C85    C     0.50876   0.12567   0.45370   0.00000  Uiso   1.00
C86    C     0.49124   0.20766   0.04630   0.00000  Uiso   1.00
C87    C     0.48290   0.24718   0.47630   0.00000  Uiso   1.00
C88    C     0.51710   0.08615   0.02370   0.00000  Uiso   1.00
H89    H     0.48506   0.23781   0.38942   0.00000  Uiso   1.00
H90    H     0.51494   0.09552   0.11058   0.00000  Uiso   1.00
H91    H     0.37087   0.09470   0.26521   0.00000  Uiso   1.00
H92    H     0.62913   0.23863   0.23479   0.00000  Uiso   1.00
H93    H     0.62915   0.09472   0.26531   0.00000  Uiso   1.00
H94    H     0.37085   0.23861   0.23469   0.00000  Uiso   1.00
H95    H     0.54430   0.04223   0.30214   0.00000  Uiso   1.00
H96    H     0.45570   0.29110   0.19786   0.00000  Uiso   1.00
H97    H     0.45570   0.04223   0.19787   0.00000  Uiso   1.00
H98    H     0.54430   0.29111   0.30213   0.00000  Uiso   1.00
N99    N     0.50000   0.28573   0.25000   0.00000  Uiso   1.00
N100   N     0.50000   0.04760   0.25000   0.00000  Uiso   1.00
O101   O     0.43892   0.20487   0.25000   0.00000  Uiso   1.00
O102   O     0.56108   0.12846   0.25001   0.00000  Uiso   1.00
O103   O     0.56108   0.20487   0.25001   0.00000  Uiso   1.00
O104   O     0.43892   0.12846   0.25000   0.00000  Uiso   1.00
O105   O     0.49999   0.20489   0.18393   0.00000  Uiso   1.00
O106   O     0.50001   0.12844   0.31607   0.00000  Uiso   1.00
O107   O     0.50001   0.20489   0.31608   0.00000  Uiso   1.00
O108   O     0.49999   0.12844   0.18393   0.00000  Uiso   1.00
Zn109  Zn    0.50000   0.21771   0.25000   0.00000  Uiso   1.00
Zn110  Zn    0.50000   0.11563   0.25000   0.00000  Uiso   1.00
H111   H     0.51533   0.09572   0.38889   0.00000  Uiso   1.00
H112   H     0.48467   0.23761   0.11111   0.00000  Uiso   1.00
H113   H     0.47621   0.27813   0.45813   0.00000  Uiso   1.00
H114   H     0.52379   0.05520   0.04187   0.00000  Uiso   1.00
Cl115  Cl    0.47145   0.29986   0.04904   0.00000  Uiso   1.00
Cl116  Cl    0.52855   0.03348   0.45096   0.00000  Uiso   1.00
C117   C     0.75328   0.16666   0.24997   0.00000  Uiso   1.00
C118   C     0.91339   0.16667   0.25004   0.00000  Uiso   1.00
C119   C     0.81602   0.24787   0.02256   0.00000  Uiso   1.00
C120   C     0.85065   0.08547   0.47744   0.00000  Uiso   1.00
C121   C     0.68797   0.12617   0.25840   0.00000  Uiso   1.00
C122   C     0.97869   0.20717   0.24160   0.00000  Uiso   1.00
C123   C     0.97870   0.12618   0.25845   0.00000  Uiso   1.00
C124   C     0.68796   0.20715   0.24155   0.00000  Uiso   1.00
C125   C     0.95753   0.16668   0.25004   0.00000  Uiso   1.00
C126   C     0.70914   0.16666   0.24996   0.00000  Uiso   1.00
C127   C     0.85796   0.02400   0.27899   0.00000  Uiso   1.00
C128   C     0.80871   0.30933   0.22101   0.00000  Uiso   1.00
C129   C     0.80871   0.02400   0.22101   0.00000  Uiso   1.00
C130   C     0.85796   0.30933   0.27899   0.00000  Uiso   1.00
C131   C     0.83326   0.16668   0.16328   0.00000  Uiso   1.00
C132   C     0.83341   0.16665   0.33672   0.00000  Uiso   1.00
C133   C     0.84197   0.12632   0.40745   0.00000  Uiso   1.00
C134   C     0.82470   0.20702   0.09255   0.00000  Uiso   1.00
C135   C     0.83351   0.16659   0.38463   0.00000  Uiso   1.00
C136   C     0.83315   0.16674   0.11537   0.00000  Uiso   1.00
C137   C     0.82511   0.20676   0.40745   0.00000  Uiso   1.00
C138   C     0.84156   0.12658   0.09255   0.00000  Uiso   1.00
C139   C     0.82492   0.20699   0.45347   0.00000  Uiso   1.00
C140   C     0.84175   0.12634   0.04653   0.00000  Uiso   1.00
C141   C     0.83343   0.16648   0.47680   0.00000  Uiso   1.00
C142   C     0.83324   0.16685   0.02320   0.00000  Uiso   1.00
C143   C     0.84209   0.12567   0.45370   0.00000  Uiso   1.00
C144   C     0.82458   0.20766   0.04630   0.00000  Uiso   1.00
C145   C     0.81624   0.24718   0.47630   0.00000  Uiso   1.00
C146   C     0.85043   0.08615   0.02370   0.00000  Uiso   1.00
H147   H     0.81839   0.23781   0.38942   0.00000  Uiso   1.00
H148   H     0.84827   0.09552   0.11058   0.00000  Uiso   1.00
H149   H     0.70420   0.09470   0.26521   0.00000  Uiso   1.00
H150   H     0.96247   0.23863   0.23479   0.00000  Uiso   1.00
H151   H     0.96248   0.09472   0.26531   0.00000  Uiso   1.00
H152   H     0.70418   0.23861   0.23469   0.00000  Uiso   1.00
H153   H     0.87763   0.04223   0.30214   0.00000  Uiso   1.00
H154   H     0.78903   0.29110   0.19786   0.00000  Uiso   1.00
H155   H     0.78903   0.04223   0.19787   0.00000  Uiso   1.00
H156   H     0.87764   0.29111   0.30213   0.00000  Uiso   1.00
N157   N     0.83333   0.28573   0.25000   0.00000  Uiso   1.00
N158   N     0.83333   0.04760   0.25000   0.00000  Uiso   1.00
O159   O     0.77226   0.20487   0.25000   0.00000  Uiso   1.00
O160   O     0.89441   0.12846   0.25001   0.00000  Uiso   1.00
O161   O     0.89441   0.20487   0.25001   0.00000  Uiso   1.00
O162   O     0.77226   0.12846   0.25000   0.00000  Uiso   1.00
O163   O     0.83333   0.20489   0.18393   0.00000  Uiso   1.00
O164   O     0.83334   0.12844   0.31607   0.00000  Uiso   1.00
O165   O     0.83334   0.20489   0.31608   0.00000  Uiso   1.00
O166   O     0.83333   0.12844   0.18393   0.00000  Uiso   1.00
Zn167  Zn    0.83333   0.21771   0.25000   0.00000  Uiso   1.00
Zn168  Zn    0.83333   0.11563   0.25000   0.00000  Uiso   1.00
H169   H     0.84867   0.09572   0.38889   0.00000  Uiso   1.00
H170   H     0.81800   0.23761   0.11111   0.00000  Uiso   1.00
H171   H     0.80954   0.27813   0.45813   0.00000  Uiso   1.00
H172   H     0.85712   0.05520   0.04187   0.00000  Uiso   1.00
Cl173  Cl    0.80478   0.29986   0.04904   0.00000  Uiso   1.00
Cl174  Cl    0.86189   0.03348   0.45096   0.00000  Uiso   1.00
C175   C     0.08661   0.50000   0.24997   0.00000  Uiso   1.00
C176   C     0.24673   0.50000   0.25004   0.00000  Uiso   1.00
C177   C     0.14935   0.58120   0.02256   0.00000  Uiso   1.00
C178   C     0.18398   0.41880   0.47744   0.00000  Uiso   1.00
C179   C     0.02131   0.45950   0.25840   0.00000  Uiso   1.00
C180   C     0.31203   0.54050   0.24160   0.00000  Uiso   1.00
C181   C     0.31204   0.45951   0.25845   0.00000  Uiso   1.00
C182   C     0.02130   0.54049   0.24155   0.00000  Uiso   1.00
C183   C     0.29086   0.50001   0.25004   0.00000  Uiso   1.00
C184   C     0.04247   0.49999   0.24996   0.00000  Uiso   1.00
C185   C     0.19129   0.35734   0.27899   0.00000  Uiso   1.00
C186   C     0.14204   0.64266   0.22101   0.00000  Uiso   1.00
C187   C     0.14204   0.35733   0.22101   0.00000  Uiso   1.00
C188   C     0.19129   0.64267   0.27899   0.00000  Uiso   1.00
C189   C     0.16659   0.50001   0.16328   0.00000  Uiso   1.00
C190   C     0.16674   0.49999   0.33672   0.00000  Uiso   1.00
C191   C     0.17530   0.45965   0.40745   0.00000  Uiso   1.00
C192   C     0.15803   0.54035   0.09255   0.00000  Uiso   1.00
C193   C     0.16685   0.49992   0.38463   0.00000  Uiso   1.00
C194   C     0.16649   0.50008   0.11537   0.00000  Uiso   1.00
C195   C     0.15844   0.54009   0.40745   0.00000  Uiso   1.00
C196   C     0.17489   0.45991   0.09255   0.00000  Uiso   1.00
C197   C     0.15825   0.54033   0.45347   0.00000  Uiso   1.00
C198   C     0.17508   0.45967   0.04653   0.00000  Uiso   1.00
C199   C     0.16676   0.49981   0.47680   0.00000  Uiso   1.00
C200   C     0.16657   0.50019   0.02320   0.00000  Uiso   1.00
C201   C     0.17542   0.45901   0.45370   0.00000  Uiso   1.00
C202   C     0.15791   0.54100   0.04630   0.00000  Uiso   1.00
C203   C     0.14957   0.58052   0.47630   0.00000  Uiso   1.00
C204   C     0.18376   0.41948   0.02370   0.00000  Uiso   1.00
H205   H     0.15173   0.57115   0.38942   0.00000  Uiso   1.00
H206   H     0.18161   0.42885   0.11058   0.00000  Uiso   1.00
H207   H     0.03753   0.42803   0.26521   0.00000  Uiso   1.00
H208   H     0.29580   0.57197   0.23479   0.00000  Uiso   1.00
H209   H     0.29582   0.42805   0.26531   0.00000  Uiso   1.00
H210   H     0.03752   0.57195   0.23469   0.00000  Uiso   1.00
H211   H     0.21097   0.37557   0.30214   0.00000  Uiso   1.00
H212   H     0.12237   0.62443   0.19786   0.00000  Uiso   1.00
H213   H     0.12236   0.37556   0.19787   0.00000  Uiso   1.00
H214   H     0.21097   0.62444   0.30213   0.00000  Uiso   1.00
N215   N     0.16667   0.61907   0.25000   0.00000  Uiso   1.00
N216   N     0.16667   0.38093   0.25000   0.00000  Uiso   1.00
O217   O     0.10559   0.53821   0.25000   0.00000  Uiso   1.00
O218   O     0.22774   0.46179   0.25001   0.00000  Uiso   1.00
O219   O     0.22774   0.53821   0.25001   0.00000  Uiso   1.00
O220   O     0.10559   0.46179   0.25000   0.00000  Uiso   1.00
O221   O     0.16666   0.53823   0.18393   0.00000  Uiso   1.00
O222   O     0.16667   0.46177   0.31607   0.00000  Uiso   1.00
O223   O     0.16667   0.53823   0.31608   0.00000  Uiso   1.00
O224   O     0.16666   0.46177   0.18393   0.00000  Uiso   1.00
Zn225  Zn    0.16667   0.55104   0.25000   0.00000  Uiso   1.00
Zn226  Zn    0.16667   0.44896   0.25000   0.00000  Uiso   1.00
H227   H     0.18200   0.42905   0.38889   0.00000  Uiso   1.00
H228   H     0.15133   0.57095   0.11111   0.00000  Uiso   1.00
H229   H     0.14288   0.61147   0.45813   0.00000  Uiso   1.00
H230   H     0.19046   0.38853   0.04187   0.00000  Uiso   1.00
Cl231  Cl    0.13811   0.63319   0.04904   0.00000  Uiso   1.00
Cl232  Cl    0.19522   0.36681   0.45096   0.00000  Uiso   1.00
C233   C     0.41994   0.50000   0.24997   0.00000  Uiso   1.00
C234   C     0.58006   0.50000   0.25004   0.00000  Uiso   1.00
C235   C     0.48269   0.58120   0.02256   0.00000  Uiso   1.00
C236   C     0.51731   0.41880   0.47744   0.00000  Uiso   1.00
C237   C     0.35464   0.45950   0.25840   0.00000  Uiso   1.00
C238   C     0.64536   0.54050   0.24160   0.00000  Uiso   1.00
C239   C     0.64537   0.45951   0.25845   0.00000  Uiso   1.00
C240   C     0.35463   0.54049   0.24155   0.00000  Uiso   1.00
C241   C     0.62420   0.50001   0.25004   0.00000  Uiso   1.00
C242   C     0.37580   0.49999   0.24996   0.00000  Uiso   1.00
C243   C     0.52463   0.35734   0.27899   0.00000  Uiso   1.00
C244   C     0.47537   0.64266   0.22101   0.00000  Uiso   1.00
C245   C     0.47537   0.35733   0.22101   0.00000  Uiso   1.00
C246   C     0.52463   0.64267   0.27899   0.00000  Uiso   1.00
C247   C     0.49993   0.50001   0.16328   0.00000  Uiso   1.00
C248   C     0.50007   0.49999   0.33672   0.00000  Uiso   1.00
C249   C     0.50863   0.45965   0.40745   0.00000  Uiso   1.00
C250   C     0.49137   0.54035   0.09255   0.00000  Uiso   1.00
C251   C     0.50018   0.49992   0.38463   0.00000  Uiso   1.00
C252   C     0.49982   0.50008   0.11537   0.00000  Uiso   1.00
C253   C     0.49177   0.54009   0.40745   0.00000  Uiso   1.00
C254   C     0.50823   0.45991   0.09255   0.00000  Uiso   1.00
C255   C     0.49158   0.54033   0.45347   0.00000  Uiso   1.00
C256   C     0.50842   0.45967   0.04653   0.00000  Uiso   1.00
C257   C     0.50009   0.49981   0.47680   0.00000  Uiso   1.00
C258   C     0.49991   0.50019   0.02320   0.00000  Uiso   1.00
C259   C     0.50876   0.45901   0.45370   0.00000  Uiso   1.00
C260   C     0.49124   0.54100   0.04630   0.00000  Uiso   1.00
C261   C     0.48290   0.58052   0.47630   0.00000  Uiso   1.00
C262   C     0.51710   0.41948   0.02370   0.00000  Uiso   1.00
H263   H     0.48506   0.57115   0.38942   0.00000  Uiso   1.00
H264   H     0.51494   0.42885   0.11058   0.00000  Uiso   1.00
H265   H     0.37087   0.42803   0.26521   0.00000  Uiso   1.00
H266   H     0.62913   0.57197   0.23479   0.00000  Uiso   1.00
H267   H     0.62915   0.42805   0.26531   0.00000  Uiso   1.00
H268   H     0.37085   0.57195   0.23469   0.00000  Uiso   1.00
H269   H     0.54430   0.37557   0.30214   0.00000  Uiso   1.00
H270   H     0.45570   0.62443   0.19786   0.00000  Uiso   1.00
H271   H     0.45570   0.37556   0.19787   0.00000  Uiso   1.00
H272   H     0.54430   0.62444   0.30213   0.00000  Uiso   1.00
N273   N     0.50000   0.61907   0.25000   0.00000  Uiso   1.00
N274   N     0.50000   0.38093   0.25000   0.00000  Uiso   1.00
O275   O     0.43892   0.53821   0.25000   0.00000  Uiso   1.00
O276   O     0.56108   0.46179   0.25001   0.00000  Uiso   1.00
O277   O     0.56108   0.53821   0.25001   0.00000  Uiso   1.00
O278   O     0.43892   0.46179   0.25000   0.00000  Uiso   1.00
O279   O     0.49999   0.53823   0.18393   0.00000  Uiso   1.00
O280   O     0.50001   0.46177   0.31607   0.00000  Uiso   1.00
O281   O     0.50001   0.53823   0.31608   0.00000  Uiso   1.00
O282   O     0.49999   0.46177   0.18393   0.00000  Uiso   1.00
Zn283  Zn    0.50000   0.55104   0.25000   0.00000  Uiso   1.00
Zn284  Zn    0.50000   0.44896   0.25000   0.00000  Uiso   1.00
H285   H     0.51533   0.42905   0.38889   0.00000  Uiso   1.00
H286   H     0.48467   0.57095   0.11111   0.00000  Uiso   1.00
H287   H     0.47621   0.61147   0.45813   0.00000  Uiso   1.00
H288   H     0.52379   0.38853   0.04187   0.00000  Uiso   1.00
Cl289  Cl    0.47145   0.63319   0.04904   0.00000  Uiso   1.00
Cl290  Cl    0.52855   0.36681   0.45096   0.00000  Uiso   1.00
C291   C     0.75328   0.50000   0.24997   0.00000  Uiso   1.00
C292   C     0.91339   0.50000   0.25004   0.00000  Uiso   1.00
C293   C     0.81602   0.58120   0.02256   0.00000  Uiso   1.00
C294   C     0.85065   0.41880   0.47744   0.00000  Uiso   1.00
C295   C     0.68797   0.45950   0.25840   0.00000  Uiso   1.00
C296   C     0.97869   0.54050   0.24160   0.00000  Uiso   1.00
C297   C     0.97870   0.45951   0.25845   0.00000  Uiso   1.00
C298   C     0.68796   0.54049   0.24155   0.00000  Uiso   1.00
C299   C     0.95753   0.50001   0.25004   0.00000  Uiso   1.00
C300   C     0.70914   0.49999   0.24996   0.00000  Uiso   1.00
C301   C     0.85796   0.35734   0.27899   0.00000  Uiso   1.00
C302   C     0.80871   0.64266   0.22101   0.00000  Uiso   1.00
C303   C     0.80871   0.35733   0.22101   0.00000  Uiso   1.00
C304   C     0.85796   0.64267   0.27899   0.00000  Uiso   1.00
C305   C     0.83326   0.50001   0.16328   0.00000  Uiso   1.00
C306   C     0.83341   0.49999   0.33672   0.00000  Uiso   1.00
C307   C     0.84197   0.45965   0.40745   0.00000  Uiso   1.00
C308   C     0.82470   0.54035   0.09255   0.00000  Uiso   1.00
C309   C     0.83351   0.49992   0.38463   0.00000  Uiso   1.00
C310   C     0.83315   0.50008   0.11537   0.00000  Uiso   1.00
C311   C     0.82511   0.54009   0.40745   0.00000  Uiso   1.00
C312   C     0.84156   0.45991   0.09255   0.00000  Uiso   1.00
C313   C     0.82492   0.54033   0.45347   0.00000  Uiso   1.00
C314   C     0.84175   0.45967   0.04653   0.00000  Uiso   1.00
C315   C     0.83343   0.49981   0.47680   0.00000  Uiso   1.00
C316   C     0.83324   0.50019   0.02320   0.00000  Uiso   1.00
C317   C     0.84209   0.45901   0.45370   0.00000  Uiso   1.00
C318   C     0.82458   0.54100   0.04630   0.00000  Uiso   1.00
C319   C     0.81624   0.58052   0.47630   0.00000  Uiso   1.00
C320   C     0.85043   0.41948   0.02370   0.00000  Uiso   1.00
H321   H     0.81839   0.57115   0.38942   0.00000  Uiso   1.00
H322   H     0.84827   0.42885   0.11058   0.00000  Uiso   1.00
H323   H     0.70420   0.42803   0.26521   0.00000  Uiso   1.00
H324   H     0.96247   0.57197   0.23479   0.00000  Uiso   1.00
H325   H     0.96248   0.42805   0.26531   0.00000  Uiso   1.00
H326   H     0.70418   0.57195   0.23469   0.00000  Uiso   1.00
H327   H     0.87763   0.37557   0.30214   0.00000  Uiso   1.00
H328   H     0.78903   0.62443   0.19786   0.00000  Uiso   1.00
H329   H     0.78903   0.37556   0.19787   0.00000  Uiso   1.00
H330   H     0.87764   0.62444   0.30213   0.00000  Uiso   1.00
N331   N     0.83333   0.61907   0.25000   0.00000  Uiso   1.00
N332   N     0.83333   0.38093   0.25000   0.00000  Uiso   1.00
O333   O     0.77226   0.53821   0.25000   0.00000  Uiso   1.00
O334   O     0.89441   0.46179   0.25001   0.00000  Uiso   1.00
O335   O     0.89441   0.53821   0.25001   0.00000  Uiso   1.00
O336   O     0.77226   0.46179   0.25000   0.00000  Uiso   1.00
O337   O     0.83333   0.53823   0.18393   0.00000  Uiso   1.00
O338   O     0.83334   0.46177   0.31607   0.00000  Uiso   1.00
O339   O     0.83334   0.53823   0.31608   0.00000  Uiso   1.00
O340   O     0.83333   0.46177   0.18393   0.00000  Uiso   1.00
Zn341  Zn    0.83333   0.55104   0.25000   0.00000  Uiso   1.00
Zn342  Zn    0.83333   0.44896   0.25000   0.00000  Uiso   1.00
H343   H     0.84867   0.42905   0.38889   0.00000  Uiso   1.00
H344   H     0.81800   0.57095   0.11111   0.00000  Uiso   1.00
H345   H     0.80954   0.61147   0.45813   0.00000  Uiso   1.00
H346   H     0.85712   0.38853   0.04187   0.00000  Uiso   1.00
Cl347  Cl    0.80478   0.63319   0.04904   0.00000  Uiso   1.00
Cl348  Cl    0.86189   0.36681   0.45096   0.00000  Uiso   1.00
C349   C     0.08661   0.83333   0.24997   0.00000  Uiso   1.00
C350   C     0.24673   0.83334   0.25004   0.00000  Uiso   1.00
C351   C     0.14935   0.91453   0.02256   0.00000  Uiso   1.00
C352   C     0.18398   0.75213   0.47744   0.00000  Uiso   1.00
C353   C     0.02131   0.79283   0.25840   0.00000  Uiso   1.00
C354   C     0.31203   0.87383   0.24160   0.00000  Uiso   1.00
C355   C     0.31204   0.79285   0.25845   0.00000  Uiso   1.00
C356   C     0.02130   0.87382   0.24155   0.00000  Uiso   1.00
C357   C     0.29086   0.83334   0.25004   0.00000  Uiso   1.00
C358   C     0.04247   0.83332   0.24996   0.00000  Uiso   1.00
C359   C     0.19129   0.69067   0.27899   0.00000  Uiso   1.00
C360   C     0.14204   0.97600   0.22101   0.00000  Uiso   1.00
C361   C     0.14204   0.69067   0.22101   0.00000  Uiso   1.00
C362   C     0.19129   0.97600   0.27899   0.00000  Uiso   1.00
C363   C     0.16659   0.83335   0.16328   0.00000  Uiso   1.00
C364   C     0.16674   0.83332   0.33672   0.00000  Uiso   1.00
C365   C     0.17530   0.79298   0.40745   0.00000  Uiso   1.00
C366   C     0.15803   0.87368   0.09255   0.00000  Uiso   1.00
C367   C     0.16685   0.83326   0.38463   0.00000  Uiso   1.00
C368   C     0.16649   0.83341   0.11537   0.00000  Uiso   1.00
C369   C     0.15844   0.87342   0.40745   0.00000  Uiso   1.00
C370   C     0.17489   0.79324   0.09255   0.00000  Uiso   1.00
C371   C     0.15825   0.87366   0.45347   0.00000  Uiso   1.00
C372   C     0.17508   0.79301   0.04653   0.00000  Uiso   1.00
C373   C     0.16676   0.83315   0.47680   0.00000  Uiso   1.00
C374   C     0.16657   0.83352   0.02320   0.00000  Uiso   1.00
C375   C     0.17542   0.79234   0.45370   0.00000  Uiso   1.00
C376   C     0.15791   0.87433   0.04630   0.00000  Uiso   1.00
C377   C     0.14957   0.91385   0.47630   0.00000  Uiso   1.00
C378   C     0.18376   0.75282   0.02370   0.00000  Uiso   1.00
H379   H     0.15173   0.90448   0.38942   0.00000  Uiso   1.00
H380   H     0.18161   0.76219   0.11058   0.00000  Uiso   1.00
H381   H     0.03753   0.76137   0.26521   0.00000  Uiso   1.00
H382   H     0.29580   0.90530   0.23479   0.00000  Uiso   1.00
H383   H     0.29582   0.76139   0.26531   0.00000  Uiso   1.00
H384   H     0.03752   0.90528   0.23469   0.00000  Uiso   1.00
H385   H     0.21097   0.70890   0.30214   0.00000  Uiso   1.00
H386   H     0.12237   0.95777   0.19786   0.00000  Uiso   1.00
H387   H     0.12236   0.70889   0.19787   0.00000  Uiso   1.00
H388   H     0.21097   0.95777   0.30213   0.00000  Uiso   1.00
N389   N     0.16667   0.95240   0.25000   0.00000  Uiso   1.00
N390   N     0.16667   0.71427   0.25000   0.00000  Uiso   1.00
O391   O     0.10559   0.87154   0.25000   0.00000  Uiso   1.00
O392   O     0.22774   0.79513   0.25001   0.00000  Uiso   1.00
O393   O     0.22774   0.87154   0.25001   0.00000  Uiso   1.00
O394   O     0.10559   0.79513   0.25000   0.00000  Uiso   1.00
O395   O     0.16666   0.87156   0.18393   0.00000  Uiso   1.00
O396   O     0.16667   0.79511   0.31607   0.00000  Uiso   1.00
O397   O     0.16667   0.87156   0.31608   0.00000  Uiso   1.00
O398   O     0.16666   0.79511   0.18393   0.00000  Uiso   1.00
Zn399  Zn    0.16667   0.88437   0.25000   0.00000  Uiso   1.00
Zn400  Zn    0.16667   0.78229   0.25000   0.00000  Uiso   1.00
H401   H     0.18200   0.76239   0.38889   0.00000  Uiso   1.00
H402   H     0.15133   0.90428   0.11111   0.00000  Uiso   1.00
H403   H     0.14288   0.94480   0.45813   0.00000  Uiso   1.00
H404   H     0.19046   0.72187   0.04187   0.00000  Uiso   1.00
Cl405  Cl    0.13811   0.96652   0.04904   0.00000  Uiso   1.00
Cl406  Cl    0.19522   0.70014   0.45096   0.00000  Uiso   1.00
C407   C     0.41994   0.83333   0.24997   0.00000  Uiso   1.00
C408   C     0.58006   0.83334   0.25004   0.00000  Uiso   1.00
C409   C     0.48269   0.91453   0.02256   0.00000  Uiso   1.00
C410   C     0.51731   0.75213   0.47744   0.00000  Uiso   1.00
C411   C     0.35464   0.79283   0.25840   0.00000  Uiso   1.00
C412   C     0.64536   0.87383   0.24160   0.00000  Uiso   1.00
C413   C     0.64537   0.79285   0.25845   0.00000  Uiso   1.00
C414   C     0.35463   0.87382   0.24155   0.00000  Uiso   1.00
C415   C     0.62420   0.83334   0.25004   0.00000  Uiso   1.00
C416   C     0.37580   0.83332   0.24996   0.00000  Uiso   1.00
C417   C     0.52463   0.69067   0.27899   0.00000  Uiso   1.00
C418   C     0.47537   0.97600   0.22101   0.00000  Uiso   1.00
C419   C     0.47537   0.69067   0.22101   0.00000  Uiso   1.00
C420   C     0.52463   0.97600   0.27899   0.00000  Uiso   1.00
C421   C     0.49993   0.83335   0.16328   0.00000  Uiso   1.00
C422   C     0.50007   0.83332   0.33672   0.00000  Uiso   1.00
C423   C     0.50863   0.79298   0.40745   0.00000  Uiso   1.00
C424   C     0.49137   0.87368   0.09255   0.00000  Uiso   1.00
C425   C     0.50018   0.83326   0.38463   0.00000  Uiso   1.00
C426   C     0.49982   0.83341   0.11537   0.00000  Uiso   1.00
C427   C     0.49177   0.87342   0.40745   0.00000  Uiso   1.00
C428   C     0.50823   0.79324   0.09255   0.00000  Uiso   1.00
C429   C     0.49158   0.87366   0.45347   0.00000  Uiso   1.00
C430   C     0.50842   0.79301   0.04653   0.00000  Uiso   1.00
C431   C     0.50009   0.83315   0.47680   0.00000  Uiso   1.00
C432   C     0.49991   0.83352   0.02320   0.00000  Uiso   1.00
C433   C     0.50876   0.79234   0.45370   0.00000  Uiso   1.00
C434   C     0.49124   0.87433   0.04630   0.00000  Uiso   1.00
C435   C     0.48290   0.91385   0.47630   0.00000  Uiso   1.00
C436   C     0.51710   0.75282   0.02370   0.00000  Uiso   1.00
H437   H     0.48506   0.90448   0.38942   0.00000  Uiso   1.00
H438   H     0.51494   0.76219   0.11058   0.00000  Uiso   1.00
H439   H     0.37087   0.76137   0.26521   0.00000  Uiso   1.00
H440   H     0.62913   0.90530   0.23479   0.00000  Uiso   1.00
H441   H     0.62915   0.76139   0.26531   0.00000  Uiso   1.00
H442   H     0.37085   0.90528   0.23469   0.00000  Uiso   1.00
H443   H     0.54430   0.70890   0.30214   0.00000  Uiso   1.00
H444   H     0.45570   0.95777   0.19786   0.00000  Uiso   1.00
H445   H     0.45570   0.70889   0.19787   0.00000  Uiso   1.00
H446   H     0.54430   0.95777   0.30213   0.00000  Uiso   1.00
N447   N     0.50000   0.95240   0.25000   0.00000  Uiso   1.00
N448   N     0.50000   0.71427   0.25000   0.00000  Uiso   1.00
O449   O     0.43892   0.87154   0.25000   0.00000  Uiso   1.00
O450   O     0.56108   0.79513   0.25001   0.00000  Uiso   1.00
O451   O     0.56108   0.87154   0.25001   0.00000  Uiso   1.00
O452   O     0.43892   0.79513   0.25000   0.00000  Uiso   1.00
O453   O     0.49999   0.87156   0.18393   0.00000  Uiso   1.00
O454   O     0.50001   0.79511   0.31607   0.00000  Uiso   1.00
O455   O     0.50001   0.87156   0.31608   0.00000  Uiso   1.00
O456   O     0.49999   0.79511   0.18393   0.00000  Uiso   1.00
Zn457  Zn    0.50000   0.88437   0.25000   0.00000  Uiso   1.00
Zn458  Zn    0.50000   0.78229   0.25000   0.00000  Uiso   1.00
H459   H     0.51533   0.76239   0.38889   0.00000  Uiso   1.00
H460   H     0.48467   0.90428   0.11111   0.00000  Uiso   1.00
H461   H     0.47621   0.94480   0.45813   0.00000  Uiso   1.00
H462   H     0.52379   0.72187   0.04187   0.00000  Uiso   1.00
Cl463  Cl    0.47145   0.96652   0.04904   0.00000  Uiso   1.00
Cl464  Cl    0.52855   0.70014   0.45096   0.00000  Uiso   1.00
C465   C     0.75328   0.83333   0.24997   0.00000  Uiso   1.00
C466   C     0.91339   0.83334   0.25004   0.00000  Uiso   1.00
C467   C     0.81602   0.91453   0.02256   0.00000  Uiso   1.00
C468   C     0.85065   0.75213   0.47744   0.00000  Uiso   1.00
C469   C     0.68797   0.79283   0.25840   0.00000  Uiso   1.00
C470   C     0.97869   0.87383   0.24160   0.00000  Uiso   1.00
C471   C     0.97870   0.79285   0.25845   0.00000  Uiso   1.00
C472   C     0.68796   0.87382   0.24155   0.00000  Uiso   1.00
C473   C     0.95753   0.83334   0.25004   0.00000  Uiso   1.00
C474   C     0.70914   0.83332   0.24996   0.00000  Uiso   1.00
C475   C     0.85796   0.69067   0.27899   0.00000  Uiso   1.00
C476   C     0.80871   0.97600   0.22101   0.00000  Uiso   1.00
C477   C     0.80871   0.69067   0.22101   0.00000  Uiso   1.00
C478   C     0.85796   0.97600   0.27899   0.00000  Uiso   1.00
C479   C     0.83326   0.83335   0.16328   0.00000  Uiso   1.00
C480   C     0.83341   0.83332   0.33672   0.00000  Uiso   1.00
C481   C     0.84197   0.79298   0.40745   0.00000  Uiso   1.00
C482   C     0.82470   0.87368   0.09255   0.00000  Uiso   1.00
C483   C     0.83351   0.83326   0.38463   0.00000  Uiso   1.00
C484   C     0.83315   0.83341   0.11537   0.00000  Uiso   1.00
C485   C     0.82511   0.87342   0.40745   0.00000  Uiso   1.00
C486   C     0.84156   0.79324   0.09255   0.00000  Uiso   1.00
C487   C     0.82492   0.87366   0.45347   0.00000  Uiso   1.00
C488   C     0.84175   0.79301   0.04653   0.00000  Uiso   1.00
C489   C     0.83343   0.83315   0.47680   0.00000  Uiso   1.00
C490   C     0.83324   0.83352   0.02320   0.00000  Uiso   1.00
C491   C     0.84209   0.79234   0.45370   0.00000  Uiso   1.00
C492   C     0.82458   0.87433   0.04630   0.00000  Uiso   1.00
C493   C     0.81624   0.91385   0.47630   0.00000  Uiso   1.00
C494   C     0.85043   0.75282   0.02370   0.00000  Uiso   1.00
H495   H     0.81839   0.90448   0.38942   0.00000  Uiso   1.00
H496   H     0.84827   0.76219   0.11058   0.00000  Uiso   1.00
H497   H     0.70420   0.76137   0.26521   0.00000  Uiso   1.00
H498   H     0.96247   0.90530   0.23479   0.00000  Uiso   1.00
H499   H     0.96248   0.76139   0.26531   0.00000  Uiso   1.00
H500   H     0.70418   0.90528   0.23469   0.00000  Uiso   1.00
H501   H     0.87763   0.70890   0.30214   0.00000  Uiso   1.00
H502   H     0.78903   0.95777   0.19786   0.00000  Uiso   1.00
H503   H     0.78903   0.70889   0.19787   0.00000  Uiso   1.00
H504   H     0.87764   0.95777   0.30213   0.00000  Uiso   1.00
N505   N     0.83333   0.95240   0.25000   0.00000  Uiso   1.00
N506   N     0.83333   0.71427   0.25000   0.00000  Uiso   1.00
O507   O     0.77226   0.87154   0.25000   0.00000  Uiso   1.00
O508   O     0.89441   0.79513   0.25001   0.00000  Uiso   1.00
O509   O     0.89441   0.87154   0.25001   0.00000  Uiso   1.00
O510   O     0.77226   0.79513   0.25000   0.00000  Uiso   1.00
O511   O     0.83333   0.87156   0.18393   0.00000  Uiso   1.00
O512   O     0.83334   0.79511   0.31607   0.00000  Uiso   1.00
O513   O     0.83334   0.87156   0.31608   0.00000  Uiso   1.00
O514   O     0.83333   0.79511   0.18393   0.00000  Uiso   1.00
Zn515  Zn    0.83333   0.88437   0.25000   0.00000  Uiso   1.00
Zn516  Zn    0.83333   0.78229   0.25000   0.00000  Uiso   1.00
H517   H     0.84867   0.76239   0.38889   0.00000  Uiso   1.00
H518   H     0.81800   0.90428   0.11111   0.00000  Uiso   1.00
H519   H     0.80954   0.94480   0.45813   0.00000  Uiso   1.00
H520   H     0.85712   0.72187   0.04187   0.00000  Uiso   1.00
Cl521  Cl    0.80478   0.96652   0.04904   0.00000  Uiso   1.00
Cl522  Cl    0.86189   0.70014   0.45096   0.00000  Uiso   1.00
C523   C     0.08661   0.16666   0.74997   0.00000  Uiso   1.00
C524   C     0.24673   0.16667   0.75004   0.00000  Uiso   1.00
C525   C     0.14935   0.24787   0.52256   0.00000  Uiso   1.00
C526   C     0.18398   0.08547   0.97744   0.00000  Uiso   1.00
C527   C     0.02131   0.12617   0.75840   0.00000  Uiso   1.00
C528   C     0.31203   0.20717   0.74160   0.00000  Uiso   1.00
C529   C     0.31204   0.12618   0.75845   0.00000  Uiso   1.00
C530   C     0.02130   0.20715   0.74155   0.00000  Uiso   1.00
C531   C     0.29086   0.16668   0.75004   0.00000  Uiso   1.00
C532   C     0.04247   0.16666   0.74996   0.00000  Uiso   1.00
C533   C     0.19129   0.02400   0.77899   0.00000  Uiso   1.00
C534   C     0.14204   0.30933   0.72101   0.00000  Uiso   1.00
C535   C     0.14204   0.02400   0.72101   0.00000  Uiso   1.00
C536   C     0.19129   0.30933   0.77899   0.00000  Uiso   1.00
C537   C     0.16659   0.16668   0.66328   0.00000  Uiso   1.00
C538   C     0.16674   0.16665   0.83672   0.00000  Uiso   1.00
C539   C     0.17530   0.12632   0.90745   0.00000  Uiso   1.00
C540   C     0.15803   0.20702   0.59255   0.00000  Uiso   1.00
C541   C     0.16685   0.16659   0.88463   0.00000  Uiso   1.00
C542   C     0.16649   0.16674   0.61537   0.00000  Uiso   1.00
C543   C     0.15844   0.20676   0.90745   0.00000  Uiso   1.00
C544   C     0.17489   0.12658   0.59255   0.00000  Uiso   1.00
C545   C     0.15825   0.20699   0.95347   0.00000  Uiso   1.00
C546   C     0.17508   0.12634   0.54653   0.00000  Uiso   1.00
C547   C     0.16676   0.16648   0.97680   0.00000  Uiso   1.00
C548   C     0.16657   0.16685   0.52320   0.00000  Uiso   1.00
C549   C     0.17542   0.12567   0.95370   0.00000  Uiso   1.00
C550   C     0.15791   0.20766   0.54630   0.00000  Uiso   1.00
C551   C     0.14957   0.24718   0.97630   0.00000  Uiso   1.00
C552   C     0.18376   0.08615   0.52370   0.00000  Uiso   1.00
H553   H     0.15173   0.23781   0.88942   0.00000  Uiso   1.00
H554   H     0.18161   0.09552   0.61058   0.00000  Uiso   1.00
H555   H     0.03753   0.09470   0.76521   0.00000  Uiso   1.00
H556   H     0.29580   0.23863   0.73479   0.00000  Uiso   1.00
H557   H     0.29582   0.09472   0.76531   0.00000  Uiso   1.00
H558   H     0.03752   0.23861   0.73469   0.00000  Uiso   1.00
H559   H     0.21097   0.04223   0.80214   0.00000  Uiso   1.00
H560   H     0.12237   0.29110   0.69786   0.00000  Uiso   1.00
H561   H     0.12236   0.04223   0.69787   0.00000  Uiso   1.00
H562   H     0.21097   0.29111   0.80213   0.00000  Uiso   1.00
N563   N     0.16667   0.28573   0.75000   0.00000  Uiso   1.00
N564   N     0.16667   0.04760   0.75000   0.00000  Uiso   1.00
O565   O     0.10559   0.20487   0.75000   0.00000  Uiso   1.00
O566   O     0.22774   0.12846   0.75001   0.00000  Uiso   1.00
O567   O     0.22774   0.20487   0.75001   0.00000  Uiso   1.00
O568   O     0.10559   0.12846   0.75000   0.00000  Uiso   1.00
O569   O     0.16666   0.20489   0.68393   0.00000  Uiso   1.00
O570   O     0.16667   0.12844   0.81607   0.00000  Uiso   1.00
O571   O     0.16667   0.20489   0.81608   0.00000  Uiso   1.00
O572   O     0.16666   0.12844   0.68393   0.00000  Uiso   1.00
Zn573  Zn    0.16667   0.21771   0.75000   0.00000  Uiso   1.00
Zn574  Zn    0.16667   0.11563   0.75000   0.00000  Uiso   1.00
H575   H     0.18200   0.09572   0.88889   0.00000  Uiso   1.00
H576   H     0.15133   0.23761   0.61111   0.00000  Uiso   1.00
H577   H     0.14288   0.27813   0.95813   0.00000  Uiso   1.00
H578   H     0.19046   0.05520   0.54187   0.00000  Uiso   1.00
Cl579  Cl    0.13811   0.29986   0.54904   0.00000  Uiso   1.00
Cl580  Cl    0.19522   0.03348   0.95096   0.00000  Uiso   1.00
C581   C     0.41994   0.16666   0.74997   0.00000  Uiso   1.00
C582   C     0.58006   0.16667   0.75004   0.00000  Uiso   1.00
C583   C     0.48269   0.24787   0.52256   0.00000  Uiso   1.00
C584   C     0.51731   0.08547   0.97744   0.00000  Uiso   1.00
C585   C     0.35464   0.12617   0.75840   0.00000  Uiso   1.00
C586   C     0.64536   0.20717   0.74160   0.00000  Uiso   1.00
C587   C     0.64537   0.12618   0.75845   0.00000  Uiso   1.00
C588   C     0.35463   0.20715   0.74155   0.00000  Uiso   1.00
C589   C     0.62420   0.16668   0.75004   0.00000  Uiso   1.00
C590   C     0.37580   0.16666   0.74996   0.00000  Uiso   1.00
C591   C     0.52463   0.02400   0.77899   0.00000  Uiso   1.00
C592   C     0.47537   0.30933   0.72101   0.00000  Uiso   1.00
C593   C     0.47537   0.02400   0.72101   0.00000  Uiso   1.00
C594   C     0.52463   0.30933   0.77899   0.00000  Uiso   1.00
C595   C     0.49993   0.16668   0.66328   0.00000  Uiso   1.00
C596   C     0.50007   0.16665   0.83672   0.00000  Uiso   1.00
C597   C     0.50863   0.12632   0.90745   0.00000  Uiso   1.00
C598   C     0.49137   0.20702   0.59255   0.00000  Uiso   1.00
C599   C     0.50018   0.16659   0.88463   0.00000  Uiso   1.00
C600   C     0.49982   0.16674   0.61537   0.00000  Uiso   1.00
C601   C     0.49177   0.20676   0.90745   0.00000  Uiso   1.00
C602   C     0.50823   0.12658   0.59255   0.00000  Uiso   1.00
C603   C     0.49158   0.20699   0.95347   0.00000  Uiso   1.00
C604   C     0.50842   0.12634   0.54653   0.00000  Uiso   1.00
C605   C     0.50009   0.16648   0.97680   0.00000  Uiso   1.00
C606   C     0.49991   0.16685   0.52320   0.00000  Uiso   1.00
C607   C     0.50876   0.12567   0.95370   0.00000  Uiso   1.00
C608   C     0.49124   0.20766   0.54630   0.00000  Uiso   1.00
C609   C     0.48290   0.24718   0.97630   0.00000  Uiso   1.00
C610   C     0.51710   0.08615   0.52370   0.00000  Uiso   1.00
H611   H     0.48506   0.23781   0.88942   0.00000  Uiso   1.00
H612   H     0.51494   0.09552   0.61058   0.00000  Uiso   1.00
H613   H     0.37087   0.09470   0.76521   0.00000  Uiso   1.00
H614   H     0.62913   0.23863   0.73479   0.00000  Uiso   1.00
H615   H     0.62915   0.09472   0.76531   0.00000  Uiso   1.00
H616   H     0.37085   0.23861   0.73469   0.00000  Uiso   1.00
H617   H     0.54430   0.04223   0.80214   0.00000  Uiso   1.00
H618   H     0.45570   0.29110   0.69786   0.00000  Uiso   1.00
H619   H     0.45570   0.04223   0.69787   0.00000  Uiso   1.00
H620   H     0.54430   0.29111   0.80213   0.00000  Uiso   1.00
N621   N     0.50000   0.28573   0.75000   0.00000  Uiso   1.00
N622   N     0.50000   0.04760   0.75000   0.00000  Uiso   1.00
O623   O     0.43892   0.20487   0.75000   0.00000  Uiso   1.00
O624   O     0.56108   0.12846   0.75001   0.00000  Uiso   1.00
O625   O     0.56108   0.20487   0.75001   0.00000  Uiso   1.00
O626   O     0.43892   0.12846   0.75000   0.00000  Uiso   1.00
O627   O     0.49999   0.20489   0.68393   0.00000  Uiso   1.00
O628   O     0.50001   0.12844   0.81607   0.00000  Uiso   1.00
O629   O     0.50001   0.20489   0.81608   0.00000  Uiso   1.00
O630   O     0.49999   0.12844   0.68393   0.00000  Uiso   1.00
Zn631  Zn    0.50000   0.21771   0.75000   0.00000  Uiso   1.00
Zn632  Zn    0.50000   0.11563   0.75000   0.00000  Uiso   1.00
H633   H     0.51533   0.09572   0.88889   0.00000  Uiso   1.00
H634   H     0.48467   0.23761   0.61111   0.00000  Uiso   1.00
H635   H     0.47621   0.27813   0.95813   0.00000  Uiso   1.00
H636   H     0.52379   0.05520   0.54187   0.00000  Uiso   1.00
Cl637  Cl    0.47145   0.29986   0.54904   0.00000  Uiso   1.00
Cl638  Cl    0.52855   0.03348   0.95096   0.00000  Uiso   1.00
C639   C     0.75328   0.16666   0.74997   0.00000  Uiso   1.00
C640   C     0.91339   0.16667   0.75004   0.00000  Uiso   1.00
C641   C     0.81602   0.24787   0.52256   0.00000  Uiso   1.00
C642   C     0.85065   0.08547   0.97744   0.00000  Uiso   1.00
C643   C     0.68797   0.12617   0.75840   0.00000  Uiso   1.00
C644   C     0.97869   0.20717   0.74160   0.00000  Uiso   1.00
C645   C     0.97870   0.12618   0.75845   0.00000  Uiso   1.00
C646   C     0.68796   0.20715   0.74155   0.00000  Uiso   1.00
C647   C     0.95753   0.16668   0.75004   0.00000  Uiso   1.00
C648   C     0.70914   0.16666   0.74996   0.00000  Uiso   1.00
C649   C     0.85796   0.02400   0.77899   0.00000  Uiso   1.00
C650   C     0.80871   0.30933   0.72101   0.00000  Uiso   1.00
C651   C     0.80871   0.02400   0.72101   0.00000  Uiso   1.00
C652   C     0.85796   0.30933   0.77899   0.00000  Uiso   1.00
C653   C     0.83326   0.16668   0.66328   0.00000  Uiso   1.00
C654   C     0.83341   0.16665   0.83672   0.00000  Uiso   1.00
C655   C     0.84197   0.12632   0.90745   0.00000  Uiso   1.00
C656   C     0.82470   0.20702   0.59255   0.00000  Uiso   1.00
C657   C     0.83351   0.16659   0.88463   0.00000  Uiso   1.00
C658   C     0.83315   0.16674   0.61537   0.00000  Uiso   1.00
C659   C     0.82511   0.20676   0.90745   0.00000  Uiso   1.00
C660   C     0.84156   0.12658   0.59255   0.00000  Uiso   1.00
C661   C     0.82492   0.20699   0.95347   0.00000  Uiso   1.00
C662   C     0.84175   0.12634   0.54653   0.00000  Uiso   1.00
C663   C     0.83343   0.16648   0.97680   0.00000  Uiso   1.00
C664   C     0.83324   0.16685   0.52320   0.00000  Uiso   1.00
C665   C     0.84209   0.12567   0.95370   0.00000  Uiso   1.00
C666   C     0.82458   0.20766   0.54630   0.00000  Uiso   1.00
C667   C     0.81624   0.24718   0.97630   0.00000  Uiso   1.00
C668   C     0.85043   0.08615   0.52370   0.00000  Uiso   1.00
H669   H     0.81839   0.23781   0.88942   0.00000  Uiso   1.00
H670   H     0.84827   0.09552   0.61058   0.00000  Uiso   1.00
H671   H     0.70420   0.09470   0.76521   0.00000  Uiso   1.00
H672   H     0.96247   0.23863   0.73479   0.00000  Uiso   1.00
H673   H     0.96248   0.09472   0.76531   0.00000  Uiso   1.00
H674   H     0.70418   0.23861   0.73469   0.00000  Uiso   1.00
H675   H     0.87763   0.04223   0.80214   0.00000  Uiso   1.00
H676   H     0.78903   0.29110   0.69786   0.00000  Uiso   1.00
H677   H     0.78903   0.04223   0.69787   0.00000  Uiso   1.00
H678   H     0.87764   0.29111   0.80213   0.00000  Uiso   1.00
N679   N     0.83333   0.28573   0.75000   0.00000  Uiso   1.00
N680   N     0.83333   0.04760   0.75000   0.00000  Uiso   1.00
O681   O     0.77226   0.20487   0.75000   0.00000  Uiso   1.00
O682   O     0.89441   0.12846   0.75001   0.00000  Uiso   1.00
O683   O     0.89441   0.20487   0.75001   0.00000  Uiso   1.00
O684   O     0.77226   0.12846   0.75000   0.00000  Uiso   1.00
O685   O     0.83333   0.20489   0.68393   0.00000  Uiso   1.00
O686   O     0.83334   0.12844   0.81607   0.00000  Uiso   1.00
O687   O     0.83334   0.20489   0.81608   0.00000  Uiso   1.00
O688   O     0.83333   0.12844   0.68393   0.00000  Uiso   1.00
Zn689  Zn    0.83333   0.21771   0.75000   0.00000  Uiso   1.00
Zn690  Zn    0.83333   0.11563   0.75000   0.00000  Uiso   1.00
H691   H     0.84867   0.09572   0.88889   0.00000  Uiso   1.00
H692   H     0.81800   0.23761   0.61111   0.00000  Uiso   1.00
H693   H     0.80954   0.27813   0.95813   0.00000  Uiso   1.00
H694   H     0.85712   0.05520   0.54187   0.00000  Uiso   1.00
Cl695  Cl    0.80478   0.29986   0.54904   0.00000  Uiso   1.00
Cl696  Cl    0.86189   0.03348   0.95096   0.00000  Uiso   1.00
C697   C     0.08661   0.50000   0.74997   0.00000  Uiso   1.00
C698   C     0.24673   0.50000   0.75004   0.00000  Uiso   1.00
C699   C     0.14935   0.58120   0.52256   0.00000  Uiso   1.00
C700   C     0.18398   0.41880   0.97744   0.00000  Uiso   1.00
C701   C     0.02131   0.45950   0.75840   0.00000  Uiso   1.00
C702   C     0.31203   0.54050   0.74160   0.00000  Uiso   1.00
C703   C     0.31204   0.45951   0.75845   0.00000  Uiso   1.00
C704   C     0.02130   0.54049   0.74155   0.00000  Uiso   1.00
C705   C     0.29086   0.50001   0.75004   0.00000  Uiso   1.00
C706   C     0.04247   0.49999   0.74996   0.00000  Uiso   1.00
C707   C     0.19129   0.35734   0.77899   0.00000  Uiso   1.00
C708   C     0.14204   0.64266   0.72101   0.00000  Uiso   1.00
C709   C     0.14204   0.35733   0.72101   0.00000  Uiso   1.00
C710   C     0.19129   0.64267   0.77899   0.00000  Uiso   1.00
C711   C     0.16659   0.50001   0.66328   0.00000  Uiso   1.00
C712   C     0.16674   0.49999   0.83672   0.00000  Uiso   1.00
C713   C     0.17530   0.45965   0.90745   0.00000  Uiso   1.00
C714   C     0.15803   0.54035   0.59255   0.00000  Uiso   1.00
C715   C     0.16685   0.49992   0.88463   0.00000  Uiso   1.00
C716   C     0.16649   0.50008   0.61537   0.00000  Uiso   1.00
C717   C     0.15844   0.54009   0.90745   0.00000  Uiso   1.00
C718   C     0.17489   0.45991   0.59255   0.00000  Uiso   1.00
C719   C     0.15825   0.54033   0.95347   0.00000  Uiso   1.00
C720   C     0.17508   0.45967   0.54653   0.00000  Uiso   1.00
C721   C     0.16676   0.49981   0.97680   0.00000  Uiso   1.00
C722   C     0.16657   0.50019   0.52320   0.00000  Uiso   1.00
C723   C     0.17542   0.45901   0.95370   0.00000  Uiso   1.00
C724   C     0.15791   0.54100   0.54630   0.00000  Uiso   1.00
C725   C     0.14957   0.58052   0.97630   0.00000  Uiso   1.00
C726   C     0.18376   0.41948   0.52370   0.00000  Uiso   1.00
H727   H     0.15173   0.57115   0.88942   0.00000  Uiso   1.00
H728   H     0.18161   0.42885   0.61058   0.00000  Uiso   1.00
H729   H     0.03753   0.42803   0.76521   0.00000  Uiso   1.00
H730   H     0.29580   0.57197   0.73479   0.00000  Uiso   1.00
H731   H     0.29582   0.42805   0.76531   0.00000  Uiso   1.00
H732   H     0.03752   0.57195   0.73469   0.00000  Uiso   1.00
H733   H     0.21097   0.37557   0.80214   0.00000  Uiso   1.00
H734   H     0.12237   0.62443   0.69786   0.00000  Uiso   1.00
H735   H     0.12236   0.37556   0.69787   0.00000  Uiso   1.00
H736   H     0.21097   0.62444   0.80213   0.00000  Uiso   1.00
N737   N     0.16667   0.61907   0.75000   0.00000  Uiso   1.00
N738   N     0.16667   0.38093   0.75000   0.00000  Uiso   1.00
O739   O     0.10559   0.53821   0.75000   0.00000  Uiso   1.00
O740   O     0.22774   0.46179   0.75001   0.00000  Uiso   1.00
O741   O     0.22774   0.53821   0.75001   0.00000  Uiso   1.00
O742   O     0.10559   0.46179   0.75000   0.00000  Uiso   1.00
O743   O     0.16666   0.53823   0.68393   0.00000  Uiso   1.00
O744   O     0.16667   0.46177   0.81607   0.00000  Uiso   1.00
O745   O     0.16667   0.53823   0.81608   0.00000  Uiso   1.00
O746   O     0.16666   0.46177   0.68393   0.00000  Uiso   1.00
Zn747  Zn    0.16667   0.55104   0.75000   0.00000  Uiso   1.00
Zn748  Zn    0.16667   0.44896   0.75000   0.00000  Uiso   1.00
H749   H     0.18200   0.42905   0.88889   0.00000  Uiso   1.00
H750   H     0.15133   0.57095   0.61111   0.00000  Uiso   1.00
H751   H     0.14288   0.61147   0.95813   0.00000  Uiso   1.00
H752   H     0.19046   0.38853   0.54187   0.00000  Uiso   1.00
Cl753  Cl    0.13811   0.63319   0.54904   0.00000  Uiso   1.00
Cl754  Cl    0.19522   0.36681   0.95096   0.00000  Uiso   1.00
C755   C     0.41994   0.50000   0.74997   0.00000  Uiso   1.00
C756   C     0.58006   0.50000   0.75004   0.00000  Uiso   1.00
C757   C     0.48269   0.58120   0.52256   0.00000  Uiso   1.00
C758   C     0.51731   0.41880   0.97744   0.00000  Uiso   1.00
C759   C     0.35464   0.45950   0.75840   0.00000  Uiso   1.00
C760   C     0.64536   0.54050   0.74160   0.00000  Uiso   1.00
C761   C     0.64537   0.45951   0.75845   0.00000  Uiso   1.00
C762   C     0.35463   0.54049   0.74155   0.00000  Uiso   1.00
C763   C     0.62420   0.50001   0.75004   0.00000  Uiso   1.00
C764   C     0.37580   0.49999   0.74996   0.00000  Uiso   1.00
C765   C     0.52463   0.35734   0.77899   0.00000  Uiso   1.00
C766   C     0.47537   0.64266   0.72101   0.00000  Uiso   1.00
C767   C     0.47537   0.35733   0.72101   0.00000  Uiso   1.00
C768   C     0.52463   0.64267   0.77899   0.00000  Uiso   1.00
C769   C     0.49993   0.50001   0.66328   0.00000  Uiso   1.00
C770   C     0.50007   0.49999   0.83672   0.00000  Uiso   1.00
C771   C     0.50863   0.45965   0.90745   0.00000  Uiso   1.00
C772   C     0.49137   0.54035   0.59255   0.00000  Uiso   1.00
C773   C     0.50018   0.49992   0.88463   0.00000  Uiso   1.00
C774   C     0.49982   0.50008   0.61537   0.00000  Uiso   1.00
C775   C     0.49177   0.54009   0.90745   0.00000  Uiso   1.00
C776   C     0.50823   0.45991   0.59255   0.00000  Uiso   1.00
C777   C     0.49158   0.54033   0.95347   0.00000  Uiso   1.00
C778   C     0.50842   0.45967   0.54653   0.00000  Uiso   1.00
C779   C     0.50009   0.49981   0.97680   0.00000  Uiso   1.00
C780   C     0.49991   0.50019   0.52320   0.00000  Uiso   1.00
C781   C     0.50876   0.45901   0.95370   0.00000  Uiso   1.00
C782   C     0.49124   0.54100   0.54630   0.00000  Uiso   1.00
C783   C     0.48290   0.58052   0.97630   0.00000  Uiso   1.00
C784   C     0.51710   0.41948   0.52370   0.00000  Uiso   1.00
H785   H     0.48506   0.57115   0.88942   0.00000  Uiso   1.00
H786   H     0.51494   0.42885   0.61058   0.00000  Uiso   1.00
H787   H     0.37087   0.42803   0.76521   0.00000  Uiso   1.00
H788   H     0.62913   0.57197   0.73479   0.00000  Uiso   1.00
H789   H     0.62915   0.42805   0.76531   0.00000  Uiso   1.00
H790   H     0.37085   0.57195   0.73469   0.00000  Uiso   1.00
H791   H     0.54430   0.37557   0.80214   0.00000  Uiso   1.00
H792   H     0.45570   0.62443   0.69786   0.00000  Uiso   1.00
H793   H     0.45570   0.37556   0.69787   0.00000  Uiso   1.00
H794   H     0.54430   0.62444   0.80213   0.00000  Uiso   1.00
N795   N     0.50000   0.61907   0.75000   0.00000  Uiso   1.00
N796   N     0.50000   0.38093   0.75000   0.00000  Uiso   1.00
O797   O     0.43892   0.53821   0.75000   0.00000  Uiso   1.00
O798   O     0.56108   0.46179   0.75001   0.00000  Uiso   1.00
O799   O     0.56108   0.53821   0.75001   0.00000  Uiso   1.00
O800   O     0.43892   0.46179   0.75000   0.00000  Uiso   1.00
O801   O     0.49999   0.53823   0.68393   0.00000  Uiso   1.00
O802   O     0.50001   0.46177   0.81607   0.00000  Uiso   1.00
O803   O     0.50001   0.53823   0.81608   0.00000  Uiso   1.00
O804   O     0.49999   0.46177   0.68393   0.00000  Uiso   1.00
Zn805  Zn    0.50000   0.55104   0.75000   0.00000  Uiso   1.00
Zn806  Zn    0.50000   0.44896   0.75000   0.00000  Uiso   1.00
H807   H     0.51533   0.42905   0.88889   0.00000  Uiso   1.00
H808   H     0.48467   0.57095   0.61111   0.00000  Uiso   1.00
H809   H     0.47621   0.61147   0.95813   0.00000  Uiso   1.00
H810   H     0.52379   0.38853   0.54187   0.00000  Uiso   1.00
Cl811  Cl    0.47145   0.63319   0.54904   0.00000  Uiso   1.00
Cl812  Cl    0.52855   0.36681   0.95096   0.00000  Uiso   1.00
C813   C     0.75328   0.50000   0.74997   0.00000  Uiso   1.00
C814   C     0.91339   0.50000   0.75004   0.00000  Uiso   1.00
C815   C     0.81602   0.58120   0.52256   0.00000  Uiso   1.00
C816   C     0.85065   0.41880   0.97744   0.00000  Uiso   1.00
C817   C     0.68797   0.45950   0.75840   0.00000  Uiso   1.00
C818   C     0.97869   0.54050   0.74160   0.00000  Uiso   1.00
C819   C     0.97870   0.45951   0.75845   0.00000  Uiso   1.00
C820   C     0.68796   0.54049   0.74155   0.00000  Uiso   1.00
C821   C     0.95753   0.50001   0.75004   0.00000  Uiso   1.00
C822   C     0.70914   0.49999   0.74996   0.00000  Uiso   1.00
C823   C     0.85796   0.35734   0.77899   0.00000  Uiso   1.00
C824   C     0.80871   0.64266   0.72101   0.00000  Uiso   1.00
C825   C     0.80871   0.35733   0.72101   0.00000  Uiso   1.00
C826   C     0.85796   0.64267   0.77899   0.00000  Uiso   1.00
C827   C     0.83326   0.50001   0.66328   0.00000  Uiso   1.00
C828   C     0.83341   0.49999   0.83672   0.00000  Uiso   1.00
C829   C     0.84197   0.45965   0.90745   0.00000  Uiso   1.00
C830   C     0.82470   0.54035   0.59255   0.00000  Uiso   1.00
C831   C     0.83351   0.49992   0.88463   0.00000  Uiso   1.00
C832   C     0.83315   0.50008   0.61537   0.00000  Uiso   1.00
C833   C     0.82511   0.54009   0.90745   0.00000  Uiso   1.00
C834   C     0.84156   0.45991   0.59255   0.00000  Uiso   1.00
C835   C     0.82492   0.54033   0.95347   0.00000  Uiso   1.00
C836   C     0.84175   0.45967   0.54653   0.00000  Uiso   1.00
C837   C     0.83343   0.49981   0.97680   0.00000  Uiso   1.00
C838   C     0.83324   0.50019   0.52320   0.00000  Uiso   1.00
C839   C     0.84209   0.45901   0.95370   0.00000  Uiso   1.00
C840   C     0.82458   0.54100   0.54630   0.00000  Uiso   1.00
C841   C     0.81624   0.58052   0.97630   0.00000  Uiso   1.00
C842   C     0.85043   0.41948   0.52370   0.00000  Uiso   1.00
H843   H     0.81839   0.57115   0.88942   0.00000  Uiso   1.00
H844   H     0.84827   0.42885   0.61058   0.00000  Uiso   1.00
H845   H     0.70420   0.42803   0.76521   0.00000  Uiso   1.00
H846   H     0.96247   0.57197   0.73479   0.00000  Uiso   1.00
H847   H     0.96248   0.42805   0.76531   0.00000  Uiso   1.00
H848   H     0.70418   0.57195   0.73469   0.00000  Uiso   1.00
H849   H     0.87763   0.37557   0.80214   0.00000  Uiso   1.00
H850   H     0.78903   0.62443   0.69786   0.00000  Uiso   1.00
H851   H     0.78903   0.37556   0.69787   0.00000  Uiso   1.00
H852   H     0.87764   0.62444   0.80213   0.00000  Uiso   1.00
N853   N     0.83333   0.61907   0.75000   0.00000  Uiso   1.00
N854   N     0.83333   0.38093   0.75000   0.00000  Uiso   1.00
O855   O     0.77226   0.53821   0.75000   0.00000  Uiso   1.00
O856   O     0.89441   0.46179   0.75001   0.00000  Uiso   1.00
O857   O     0.89441   0.53821   0.75001   0.00000  Uiso   1.00
O858   O     0.77226   0.46179   0.75000   0.00000  Uiso   1.00
O859   O     0.83333   0.53823   0.68393   0.00000  Uiso   1.00
O860   O     0.83334   0.46177   0.81607   0.00000  Uiso   1.00
O861   O     0.83334   0.53823   0.81608   0.00000  Uiso   1.00
O862   O     0.83333   0.46177   0.68393   0.00000  Uiso   1.00
Zn863  Zn    0.83333   0.55104   0.75000   0.00000  Uiso   1.00
Zn864  Zn    0.83333   0.44896   0.75000   0.00000  Uiso   1.00
H865   H     0.84867   0.42905   0.88889   0.00000  Uiso   1.00
H866   H     0.81800   0.57095   0.61111   0.00000  Uiso   1.00
H867   H     0.80954   0.61147   0.95813   0.00000  Uiso   1.00
H868   H     0.85712   0.38853   0.54187   0.00000  Uiso   1.00
Cl869  Cl    0.80478   0.63319   0.54904   0.00000  Uiso   1.00
Cl870  Cl    0.86189   0.36681   0.95096   0.00000  Uiso   1.00
C871   C     0.08661   0.83333   0.74997   0.00000  Uiso   1.00
C872   C     0.24673   0.83334   0.75004   0.00000  Uiso   1.00
C873   C     0.14935   0.91453   0.52256   0.00000  Uiso   1.00
C874   C     0.18398   0.75213   0.97744   0.00000  Uiso   1.00
C875   C     0.02131   0.79283   0.75840   0.00000  Uiso   1.00
C876   C     0.31203   0.87383   0.74160   0.00000  Uiso   1.00
C877   C     0.31204   0.79285   0.75845   0.00000  Uiso   1.00
C878   C     0.02130   0.87382   0.74155   0.00000  Uiso   1.00
C879   C     0.29086   0.83334   0.75004   0.00000  Uiso   1.00
C880   C     0.04247   0.83332   0.74996   0.00000  Uiso   1.00
C881   C     0.19129   0.69067   0.77899   0.00000  Uiso   1.00
C882   C     0.14204   0.97600   0.72101   0.00000  Uiso   1.00
C883   C     0.14204   0.69067   0.72101   0.00000  Uiso   1.00
C884   C     0.19129   0.97600   0.77899   0.00000  Uiso   1.00
C885   C     0.16659   0.83335   0.66328   0.00000  Uiso   1.00
C886   C     0.16674   0.83332   0.83672   0.00000  Uiso   1.00
C887   C     0.17530   0.79298   0.90745   0.00000  Uiso   1.00
C888   C     0.15803   0.87368   0.59255   0.00000  Uiso   1.00
C889   C     0.16685   0.83326   0.88463   0.00000  Uiso   1.00
C890   C     0.16649   0.83341   0.61537   0.00000  Uiso   1.00
C891   C     0.15844   0.87342   0.90745   0.00000  Uiso   1.00
C892   C     0.17489   0.79324   0.59255   0.00000  Uiso   1.00
C893   C     0.15825   0.87366   0.95347   0.00000  Uiso   1.00
C894   C     0.17508   0.79301   0.54653   0.00000  Uiso   1.00
C895   C     0.16676   0.83315   0.97680   0.00000  Uiso   1.00
C896   C     0.16657   0.83352   0.52320   0.00000  Uiso   1.00
C897   C     0.17542   0.79234   0.95370   0.00000  Uiso   1.00
C898   C     0.15791   0.87433   0.54630   0.00000  Uiso   1.00
C899   C     0.14957   0.91385   0.97630   0.00000  Uiso   1.00
C900   C     0.18376   0.75282   0.52370   0.00000  Uiso   1.00
H901   H     0.15173   0.90448   0.88942   0.00000  Uiso   1.00
H902   H     0.18161   0.76219   0.61058   0.00000  Uiso   1.00
H903   H     0.03753   0.76137   0.76521   0.00000  Uiso   1.00
H904   H     0.29580   0.90530   0.73479   0.00000  Uiso   1.00
H905   H     0.29582   0.76139   0.76531   0.00000  Uiso   1.00
H906   H     0.03752   0.90528   0.73469   0.00000  Uiso   1.00
H907   H     0.21097   0.70890   0.80214   0.00000  Uiso   1.00
H908   H     0.12237   0.95777   0.69786   0.00000  Uiso   1.00
H909   H     0.12236   0.70889   0.69787   0.00000  Uiso   1.00
H910   H     0.21097   0.95777   0.80213   0.00000  Uiso   1.00
N911   N     0.16667   0.95240   0.75000   0.00000  Uiso   1.00
N912   N     0.16667   0.71427   0.75000   0.00000  Uiso   1.00
O913   O     0.10559   0.87154   0.75000   0.00000  Uiso   1.00
O914   O     0.22774   0.79513   0.75001   0.00000  Uiso   1.00
O915   O     0.22774   0.87154   0.75001   0.00000  Uiso   1.00
O916   O     0.10559   0.79513   0.75000   0.00000  Uiso   1.00
O917   O     0.16666   0.87156   0.68393   0.00000  Uiso   1.00
O918   O     0.16667   0.79511   0.81607   0.00000  Uiso   1.00
O919   O     0.16667   0.87156   0.81608   0.00000  Uiso   1.00
O920   O     0.16666   0.79511   0.68393   0.00000  Uiso   1.00
Zn921  Zn    0.16667   0.88437   0.75000   0.00000  Uiso   1.00
Zn922  Zn    0.16667   0.78229   0.75000   0.00000  Uiso   1.00
H923   H     0.18200   0.76239   0.88889   0.00000  Uiso   1.00
H924   H     0.15133   0.90428   0.61111   0.00000  Uiso   1.00
H925   H     0.14288   0.94480   0.95813   0.00000  Uiso   1.00
H926   H     0.19046   0.72187   0.54187   0.00000  Uiso   1.00
Cl927  Cl    0.13811   0.96652   0.54904   0.00000  Uiso   1.00
Cl928  Cl    0.19522   0.70014   0.95096   0.00000  Uiso   1.00
C929   C     0.41994   0.83333   0.74997   0.00000  Uiso   1.00
C930   C     0.58006   0.83334   0.75004   0.00000  Uiso   1.00
C931   C     0.48269   0.91453   0.52256   0.00000  Uiso   1.00
C932   C     0.51731   0.75213   0.97744   0.00000  Uiso   1.00
C933   C     0.35464   0.79283   0.75840   0.00000  Uiso   1.00
C934   C     0.64536   0.87383   0.74160   0.00000  Uiso   1.00
C935   C     0.64537   0.79285   0.75845   0.00000  Uiso   1.00
C936   C     0.35463   0.87382   0.74155   0.00000  Uiso   1.00
C937   C     0.62420   0.83334   0.75004   0.00000  Uiso   1.00
C938   C     0.37580   0.83332   0.74996   0.00000  Uiso   1.00
C939   C     0.52463   0.69067   0.77899   0.00000  Uiso   1.00
C940   C     0.47537   0.97600   0.72101   0.00000  Uiso   1.00
C941   C     0.47537   0.69067   0.72101   0.00000  Uiso   1.00
C942   C     0.52463   0.97600   0.77899   0.00000  Uiso   1.00
C943   C     0.49993   0.83335   0.66328   0.00000  Uiso   1.00
C944   C     0.50007   0.83332   0.83672   0.00000  Uiso   1.00
C945   C     0.50863   0.79298   0.90745   0.00000  Uiso   1.00
C946   C     0.49137   0.87368   0.59255   0.00000  Uiso   1.00
C947   C     0.50018   0.83326   0.88463   0.00000  Uiso   1.00
C948   C     0.49982   0.83341   0.61537   0.00000  Uiso   1.00
C949   C     0.49177   0.87342   0.90745   0.00000  Uiso   1.00
C950   C     0.50823   0.79324   0.59255   0.00000  Uiso   1.00
C951   C     0.49158   0.87366   0.95347   0.00000  Uiso   1.00
C952   C     0.50842   0.79301   0.54653   0.00000  Uiso   1.00
C953   C     0.50009   0.83315   0.97680   0.00000  Uiso   1.00
C954   C     0.49991   0.83352   0.52320   0.00000  Uiso   1.00
C955   C     0.50876   0.79234   0.95370   0.00000  Uiso   1.00
C956   C     0.49124   0.87433   0.54630   0.00000  Uiso   1.00
C957   C     0.48290   0.91385   0.97630   0.00000  Uiso   1.00
C958   C     0.51710   0.75282   0.52370   0.00000  Uiso   1.00
H959   H     0.48506   0.90448   0.88942   0.00000  Uiso   1.00
H960   H     0.51494   0.76219   0.61058   0.00000  Uiso   1.00
H961   H     0.37087   0.76137   0.76521   0.00000  Uiso   1.00
H962   H     0.62913   0.90530   0.73479   0.00000  Uiso   1.00
H963   H     0.62915   0.76139   0.76531   0.00000  Uiso   1.00
H964   H     0.37085   0.90528   0.73469   0.00000  Uiso   1.00
H965   H     0.54430   0.70890   0.80214   0.00000  Uiso   1.00
H966   H     0.45570   0.95777   0.69786   0.00000  Uiso   1.00
H967   H     0.45570   0.70889   0.69787   0.00000  Uiso   1.00
H968   H     0.54430   0.95777   0.80213   0.00000  Uiso   1.00
N969   N     0.50000   0.95240   0.75000   0.00000  Uiso   1.00
N970   N     0.50000   0.71427   0.75000   0.00000  Uiso   1.00
O971   O     0.43892   0.87154   0.75000   0.00000  Uiso   1.00
O972   O     0.56108   0.79513   0.75001   0.00000  Uiso   1.00
O973   O     0.56108   0.87154   0.75001   0.00000  Uiso   1.00
O974   O     0.43892   0.79513   0.75000   0.00000  Uiso   1.00
O975   O     0.49999   0.87156   0.68393   0.00000  Uiso   1.00
O976   O     0.50001   0.79511   0.81607   0.00000  Uiso   1.00
O977   O     0.50001   0.87156   0.81608   0.00000  Uiso   1.00
O978   O     0.49999   0.79511   0.68393   0.00000  Uiso   1.00
Zn979  Zn    0.50000   0.88437   0.75000   0.00000  Uiso   1.00
Zn980  Zn    0.50000   0.78229   0.75000   0.00000  Uiso   1.00
H981   H     0.51533   0.76239   0.88889   0.00000  Uiso   1.00
H982   H     0.48467   0.90428   0.61111   0.00000  Uiso   1.00
H983   H     0.47621   0.94480   0.95813   0.00000  Uiso   1.00
H984   H     0.52379   0.72187   0.54187   0.00000  Uiso   1.00
Cl985  Cl    0.47145   0.96652   0.54904   0.00000  Uiso   1.00
Cl986  Cl    0.52855   0.70014   0.95096   0.00000  Uiso   1.00
C987   C     0.75328   0.83333   0.74997   0.00000  Uiso   1.00
C988   C     0.91339   0.83334   0.75004   0.00000  Uiso   1.00
C989   C     0.81602   0.91453   0.52256   0.00000  Uiso   1.00
C990   C     0.85065   0.75213   0.97744   0.00000  Uiso   1.00
C991   C     0.68797   0.79283   0.75840   0.00000  Uiso   1.00
C992   C     0.97869   0.87383   0.74160   0.00000  Uiso   1.00
C993   C     0.97870   0.79285   0.75845   0.00000  Uiso   1.00
C994   C     0.68796   0.87382   0.74155   0.00000  Uiso   1.00
C995   C     0.95753   0.83334   0.75004   0.00000  Uiso   1.00
C996   C     0.70914   0.83332   0.74996   0.00000  Uiso   1.00
C997   C     0.85796   0.69067   0.77899   0.00000  Uiso   1.00
C998   C     0.80871   0.97600   0.72101   0.00000  Uiso   1.00
C999   C     0.80871   0.69067   0.72101   0.00000  Uiso   1.00
C1000  C     0.85796   0.97600   0.77899   0.00000  Uiso   1.00
C1001  C     0.83326   0.83335   0.66328   0.00000  Uiso   1.00
C1002  C     0.83341   0.83332   0.83672   0.00000  Uiso   1.00
C1003  C     0.84197   0.79298   0.90745   0.00000  Uiso   1.00
C1004  C     0.82470   0.87368   0.59255   0.00000  Uiso   1.00
C1005  C     0.83351   0.83326   0.88463   0.00000  Uiso   1.00
C1006  C     0.83315   0.83341   0.61537   0.00000  Uiso   1.00
C1007  C     0.82511   0.87342   0.90745   0.00000  Uiso   1.00
C1008  C     0.84156   0.79324   0.59255   0.00000  Uiso   1.00
C1009  C     0.82492   0.87366   0.95347   0.00000  Uiso   1.00
C1010  C     0.84175   0.79301   0.54653   0.00000  Uiso   1.00
C1011  C     0.83343   0.83315   0.97680   0.00000  Uiso   1.00
C1012  C     0.83324   0.83352   0.52320   0.00000  Uiso   1.00
C1013  C     0.84209   0.79234   0.95370   0.00000  Uiso   1.00
C1014  C     0.82458   0.87433   0.54630   0.00000  Uiso   1.00
C1015  C     0.81624   0.91385   0.97630   0.00000  Uiso   1.00
C1016  C     0.85043   0.75282   0.52370   0.00000  Uiso   1.00
H1017  H     0.81839   0.90448   0.88942   0.00000  Uiso   1.00
H1018  H     0.84827   0.76219   0.61058   0.00000  Uiso   1.00
H1019  H     0.70420   0.76137   0.76521   0.00000  Uiso   1.00
H1020  H     0.96247   0.90530   0.73479   0.00000  Uiso   1.00
H1021  H     0.96248   0.76139   0.76531   0.00000  Uiso   1.00
H1022  H     0.70418   0.90528   0.73469   0.00000  Uiso   1.00
H1023  H     0.87763   0.70890   0.80214   0.00000  Uiso   1.00
H1024  H     0.78903   0.95777   0.69786   0.00000  Uiso   1.00
H1025  H     0.78903   0.70889   0.69787   0.00000  Uiso   1.00
H1026  H     0.87764   0.95777   0.80213   0.00000  Uiso   1.00
N1027  N     0.83333   0.95240   0.75000   0.00000  Uiso   1.00
N1028  N     0.83333   0.71427   0.75000   0.00000  Uiso   1.00
O1029  O     0.77226   0.87154   0.75000   0.00000  Uiso   1.00
O1030  O     0.89441   0.79513   0.75001   0.00000  Uiso   1.00
O1031  O     0.89441   0.87154   0.75001   0.00000  Uiso   1.00
O1032  O     0.77226   0.79513   0.75000   0.00000  Uiso   1.00
O1033  O     0.83333   0.87156   0.68393   0.00000  Uiso   1.00
O1034  O     0.83334   0.79511   0.81607   0.00000  Uiso   1.00
O1035  O     0.83334   0.87156   0.81608   0.00000  Uiso   1.00
O1036  O     0.83333   0.79511   0.68393   0.00000  Uiso   1.00
Zn1037 Zn    0.83333   0.88437   0.75000   0.00000  Uiso   1.00
Zn1038 Zn    0.83333   0.78229   0.75000   0.00000  Uiso   1.00
H1039  H     0.84867   0.76239   0.88889   0.00000  Uiso   1.00
H1040  H     0.81800   0.90428   0.61111   0.00000  Uiso   1.00
H1041  H     0.80954   0.94480   0.95813   0.00000  Uiso   1.00
H1042  H     0.85712   0.72187   0.54187   0.00000  Uiso   1.00
Cl1043 Cl    0.80478   0.96652   0.54904   0.00000  Uiso   1.00
Cl1044 Cl    0.86189   0.70014   0.95096   0.00000  Uiso   1.00
loop_
_geom_bond_atom_site_label_1
_geom_bond_atom_site_label_2
_geom_bond_distance
_geom_bond_site_symmetry_2
_ccdc_geom_bond_type
C1     O46     1.281   .     A
C1     O43     1.281   .     A
C1     C10     1.419   .     S
C2     O45     1.281   .     A
C2     C9      1.419   .     S
C2     O44     1.281   .     A
C3     C28     1.410   .     A
C3     Cl57    1.764   .     S
C3     C551    1.389   1_554 S
C4     C27     1.410   .     A
C4     Cl58    1.764   .     S
C4     C552    1.389   .     S
C5     C10     1.397   .     A
C5     H33     1.084   .     S
C5     C123    1.370   1_455 S
C6     C9      1.397   .     A
C6     H34     1.084   .     S
C6     C66     1.370   .     S
C7     C9      1.397   .     A
C7     H35     1.084   .     S
C7     C63     1.370   .     S
C8     C10     1.397   .     A
C8     H36     1.084   .     S
C8     C122    1.370   1_455 S
C11    N42     1.366   .     A
C11    H37     1.082   .     S
C11    C362    1.415   1_545 S
C12    N41     1.366   .     A
C12    H38     1.082   .     S
C12    C187    1.415   .     S
C13    H39     1.082   .     S
C13    N42     1.366   .     A
C13    C360    1.415   1_545 S
C14    N41     1.366   .     A
C14    H40     1.082   .     S
C14    C185    1.415   .     S
C15    O47     1.286   .     A
C15    C20     1.439   .     S
C15    O50     1.286   .     A
C16    O48     1.286   .     A
C16    O49     1.286   .     A
C16    C19     1.439   .     S
C17    C27     1.389   .     A
C17    H53     1.082   .     S
C17    C19     1.397   .     A
C18    C20     1.397   .     A
C18    C28     1.389   .     A
C18    H54     1.082   .     S
C19    C21     1.395   .     A
C20    C22     1.395   .     A
C21    H31     1.085   .     S
C21    C23     1.382   .     A
C22    H32     1.085   .     S
C22    C24     1.382   .     A
C23    C25     1.411   .     A
C23    C29     1.397   .     A
C24    C26     1.411   .     A
C24    C30     1.397   .     A
C25    C27     1.417   .     A
C25    C548    1.393   .     S
C26    C28     1.417   .     A
C26    C547    1.393   1_554 S
C29    H55     1.084   .     S
C29    C525    1.389   .     S
C30    H56     1.084   .     S
C30    C526    1.389   1_554 S
N41    Zn51    2.005   .     S
N42    Zn52    2.005   .     S
O43    Zn51    2.000   .     S
O44    Zn52    2.000   .     S
O45    Zn51    2.000   .     S
O46    Zn52    2.000   .     S
O47    Zn51    2.020   .     S
O48    Zn52    2.020   .     S
O49    Zn51    2.019   .     S
O50    Zn52    2.019   .     S
C59    O104    1.281   .     A
C59    O101    1.281   .     A
C59    C68     1.419   .     S
C60    O103    1.281   .     A
C60    C67     1.419   .     S
C60    O102    1.281   .     A
C61    C86     1.410   .     A
C61    Cl115   1.764   .     S
C61    C609    1.389   1_554 S
C62    C85     1.410   .     A
C62    Cl116   1.764   .     S
C62    C610    1.389   .     S
C63    C68     1.397   .     A
C63    H91     1.084   .     S
C64    C67     1.397   .     A
C64    H92     1.084   .     S
C64    C124    1.370   .     S
C65    C67     1.397   .     A
C65    H93     1.084   .     S
C65    C121    1.370   .     S
C66    C68     1.397   .     A
C66    H94     1.084   .     S
C69    N100    1.366   .     A
C69    H95     1.082   .     S
C69    C420    1.415   1_545 S
C70    N99     1.366   .     A
C70    H96     1.082   .     S
C70    C245    1.415   .     S
C71    H97     1.082   .     S
C71    N100    1.366   .     A
C71    C418    1.415   1_545 S
C72    N99     1.366   .     A
C72    H98     1.082   .     S
C72    C243    1.415   .     S
C73    O105    1.286   .     A
C73    C78     1.439   .     S
C73    O108    1.286   .     A
C74    O106    1.286   .     A
C74    O107    1.286   .     A
C74    C77     1.439   .     S
C75    C85     1.389   .     A
C75    H111    1.082   .     S
C75    C77     1.397   .     A
C76    C78     1.397   .     A
C76    C86     1.389   .     A
C76    H112    1.082   .     S
C77    C79     1.395   .     A
C78    C80     1.395   .     A
C79    H89     1.085   .     S
C79    C81     1.382   .     A
C80    H90     1.085   .     S
C80    C82     1.382   .     A
C81    C83     1.411   .     A
C81    C87     1.397   .     A
C82    C84     1.411   .     A
C82    C88     1.397   .     A
C83    C85     1.417   .     A
C83    C606    1.393   .     S
C84    C86     1.417   .     A
C84    C605    1.393   1_554 S
C87    H113    1.084   .     S
C87    C583    1.389   .     S
C88    H114    1.084   .     S
C88    C584    1.389   1_554 S
N99    Zn109   2.005   .     S
N100   Zn110   2.005   .     S
O101   Zn109   2.000   .     S
O102   Zn110   2.000   .     S
O103   Zn109   2.000   .     S
O104   Zn110   2.000   .     S
O105   Zn109   2.020   .     S
O106   Zn110   2.020   .     S
O107   Zn109   2.019   .     S
O108   Zn110   2.019   .     S
C117   O162    1.281   .     A
C117   O159    1.281   .     A
C117   C126    1.419   .     S
C118   O161    1.281   .     A
C118   C125    1.419   .     S
C118   O160    1.281   .     A
C119   C144    1.410   .     A
C119   Cl173   1.764   .     S
C119   C667    1.389   1_554 S
C120   C143    1.410   .     A
C120   Cl174   1.764   .     S
C120   C668    1.389   .     S
C121   C126    1.397   .     A
C121   H149    1.084   .     S
C122   C125    1.397   .     A
C122   H150    1.084   .     S
C122   C8      1.370   1_655 S
C123   C125    1.397   .     A
C123   H151    1.084   .     S
C123   C5      1.370   1_655 S
C124   C126    1.397   .     A
C124   H152    1.084   .     S
C127   N158    1.366   .     A
C127   H153    1.082   .     S
C127   C478    1.415   1_545 S
C128   N157    1.366   .     A
C128   H154    1.082   .     S
C128   C303    1.415   .     S
C129   H155    1.082   .     S
C129   N158    1.366   .     A
C129   C476    1.415   1_545 S
C130   N157    1.366   .     A
C130   H156    1.082   .     S
C130   C301    1.415   .     S
C131   O163    1.286   .     A
C131   C136    1.439   .     S
C131   O166    1.286   .     A
C132   O164    1.286   .     A
C132   O165    1.286   .     A
C132   C135    1.439   .     S
C133   C143    1.389   .     A
C133   H169    1.082   .     S
C133   C135    1.397   .     A
C134   C136    1.397   .     A
C134   C144    1.389   .     A
C134   H170    1.082   .     S
C135   C137    1.395   .     A
C136   C138    1.395   .     A
C137   H147    1.085   .     S
C137   C139    1.382   .     A
C138   H148    1.085   .     S
C138   C140    1.382   .     A
C139   C141    1.411   .     A
C139   C145    1.397   .     A
C140   C142    1.411   .     A
C140   C146    1.397   .     A
C141   C143    1.417   .     A
C141   C664    1.393   .     S
C142   C144    1.417   .     A
C142   C663    1.393   1_554 S
C145   H171    1.084   .     S
C145   C641    1.389   .     S
C146   H172    1.084   .     S
C146   C642    1.389   1_554 S
N157   Zn167   2.005   .     S
N158   Zn168   2.005   .     S
O159   Zn167   2.000   .     S
O160   Zn168   2.000   .     S
O161   Zn167   2.000   .     S
O162   Zn168   2.000   .     S
O163   Zn167   2.020   .     S
O164   Zn168   2.020   .     S
O165   Zn167   2.019   .     S
O166   Zn168   2.019   .     S
C175   O220    1.281   .     A
C175   O217    1.281   .     A
C175   C184    1.419   .     S
C176   O219    1.281   .     A
C176   C183    1.419   .     S
C176   O218    1.281   .     A
C177   C202    1.410   .     A
C177   Cl231   1.764   .     S
C177   C725    1.389   1_554 S
C178   C201    1.410   .     A
C178   Cl232   1.764   .     S
C178   C726    1.389   .     S
C179   C184    1.397   .     A
C179   H207    1.084   .     S
C179   C297    1.370   1_455 S
C180   C183    1.397   .     A
C180   H208    1.084   .     S
C180   C240    1.370   .     S
C181   C183    1.397   .     A
C181   H209    1.084   .     S
C181   C237    1.370   .     S
C182   C184    1.397   .     A
C182   H210    1.084   .     S
C182   C296    1.370   1_455 S
C185   N216    1.366   .     A
C185   H211    1.082   .     S
C186   N215    1.366   .     A
C186   H212    1.082   .     S
C186   C361    1.415   .     S
C187   H213    1.082   .     S
C187   N216    1.366   .     A
C188   N215    1.366   .     A
C188   H214    1.082   .     S
C188   C359    1.415   .     S
C189   O221    1.286   .     A
C189   C194    1.439   .     S
C189   O224    1.286   .     A
C190   O222    1.286   .     A
C190   O223    1.286   .     A
C190   C193    1.439   .     S
C191   C201    1.389   .     A
C191   H227    1.082   .     S
C191   C193    1.397   .     A
C192   C194    1.397   .     A
C192   C202    1.389   .     A
C192   H228    1.082   .     S
C193   C195    1.395   .     A
C194   C196    1.395   .     A
C195   H205    1.085   .     S
C195   C197    1.382   .     A
C196   H206    1.085   .     S
C196   C198    1.382   .     A
C197   C199    1.411   .     A
C197   C203    1.397   .     A
C198   C200    1.411   .     A
C198   C204    1.397   .     A
C199   C201    1.417   .     A
C199   C722    1.393   .     S
C200   C202    1.417   .     A
C200   C721    1.393   1_554 S
C203   H229    1.084   .     S
C203   C699    1.389   .     S
C204   H230    1.084   .     S
C204   C700    1.389   1_554 S
N215   Zn225   2.005   .     S
N216   Zn226   2.005   .     S
O217   Zn225   2.000   .     S
O218   Zn226   2.000   .     S
O219   Zn225   2.000   .     S
O220   Zn226   2.000   .     S
O221   Zn225   2.020   .     S
O222   Zn226   2.020   .     S
O223   Zn225   2.019   .     S
O224   Zn226   2.019   .     S
C233   O278    1.281   .     A
C233   O275    1.281   .     A
C233   C242    1.419   .     S
C234   O277    1.281   .     A
C234   C241    1.419   .     S
C234   O276    1.281   .     A
C235   C260    1.410   .     A
C235   Cl289   1.764   .     S
C235   C783    1.389   1_554 S
C236   C259    1.410   .     A
C236   Cl290   1.764   .     S
C236   C784    1.389   .     S
C237   C242    1.397   .     A
C237   H265    1.084   .     S
C238   C241    1.397   .     A
C238   H266    1.084   .     S
C238   C298    1.370   .     S
C239   C241    1.397   .     A
C239   H267    1.084   .     S
C239   C295    1.370   .     S
C240   C242    1.397   .     A
C240   H268    1.084   .     S
C243   N274    1.366   .     A
C243   H269    1.082   .     S
C244   N273    1.366   .     A
C244   H270    1.082   .     S
C244   C419    1.415   .     S
C245   H271    1.082   .     S
C245   N274    1.366   .     A
C246   N273    1.366   .     A
C246   H272    1.082   .     S
C246   C417    1.415   .     S
C247   O279    1.286   .     A
C247   C252    1.439   .     S
C247   O282    1.286   .     A
C248   O280    1.286   .     A
C248   O281    1.286   .     A
C248   C251    1.439   .     S
C249   C259    1.389   .     A
C249   H285    1.082   .     S
C249   C251    1.397   .     A
C250   C252    1.397   .     A
C250   C260    1.389   .     A
C250   H286    1.082   .     S
C251   C253    1.395   .     A
C252   C254    1.395   .     A
C253   H263    1.085   .     S
C253   C255    1.382   .     A
C254   H264    1.085   .     S
C254   C256    1.382   .     A
C255   C257    1.411   .     A
C255   C261    1.397   .     A
C256   C258    1.411   .     A
C256   C262    1.397   .     A
C257   C259    1.417   .     A
C257   C780    1.393   .     S
C258   C260    1.417   .     A
C258   C779    1.393   1_554 S
C261   H287    1.084   .     S
C261   C757    1.389   .     S
C262   H288    1.084   .     S
C262   C758    1.389   1_554 S
N273   Zn283   2.005   .     S
N274   Zn284   2.005   .     S
O275   Zn283   2.000   .     S
O276   Zn284   2.000   .     S
O277   Zn283   2.000   .     S
O278   Zn284   2.000   .     S
O279   Zn283   2.020   .     S
O280   Zn284   2.020   .     S
O281   Zn283   2.019   .     S
O282   Zn284   2.019   .     S
C291   O336    1.281   .     A
C291   O333    1.281   .     A
C291   C300    1.419   .     S
C292   O335    1.281   .     A
C292   C299    1.419   .     S
C292   O334    1.281   .     A
C293   C318    1.410   .     A
C293   Cl347   1.764   .     S
C293   C841    1.389   1_554 S
C294   C317    1.410   .     A
C294   Cl348   1.764   .     S
C294   C842    1.389   .     S
C295   C300    1.397   .     A
C295   H323    1.084   .     S
C296   C299    1.397   .     A
C296   H324    1.084   .     S
C296   C182    1.370   1_655 S
C297   C299    1.397   .     A
C297   H325    1.084   .     S
C297   C179    1.370   1_655 S
C298   C300    1.397   .     A
C298   H326    1.084   .     S
C301   N332    1.366   .     A
C301   H327    1.082   .     S
C302   N331    1.366   .     A
C302   H328    1.082   .     S
C302   C477    1.415   .     S
C303   H329    1.082   .     S
C303   N332    1.366   .     A
C304   N331    1.366   .     A
C304   H330    1.082   .     S
C304   C475    1.415   .     S
C305   O337    1.286   .     A
C305   C310    1.439   .     S
C305   O340    1.286   .     A
C306   O338    1.286   .     A
C306   O339    1.286   .     A
C306   C309    1.439   .     S
C307   C317    1.389   .     A
C307   H343    1.082   .     S
C307   C309    1.397   .     A
C308   C310    1.397   .     A
C308   C318    1.389   .     A
C308   H344    1.082   .     S
C309   C311    1.395   .     A
C310   C312    1.395   .     A
C311   H321    1.085   .     S
C311   C313    1.382   .     A
C312   H322    1.085   .     S
C312   C314    1.382   .     A
C313   C315    1.411   .     A
C313   C319    1.397   .     A
C314   C316    1.411   .     A
C314   C320    1.397   .     A
C315   C317    1.417   .     A
C315   C838    1.393   .     S
C316   C318    1.417   .     A
C316   C837    1.393   1_554 S
C319   H345    1.084   .     S
C319   C815    1.389   .     S
C320   H346    1.084   .     S
C320   C816    1.389   1_554 S
N331   Zn341   2.005   .     S
N332   Zn342   2.005   .     S
O333   Zn341   2.000   .     S
O334   Zn342   2.000   .     S
O335   Zn341   2.000   .     S
O336   Zn342   2.000   .     S
O337   Zn341   2.020   .     S
O338   Zn342   2.020   .     S
O339   Zn341   2.019   .     S
O340   Zn342   2.019   .     S
C349   O394    1.281   .     A
C349   O391    1.281   .     A
C349   C358    1.419   .     S
C350   O393    1.281   .     A
C350   C357    1.419   .     S
C350   O392    1.281   .     A
C351   C376    1.410   .     A
C351   Cl405   1.764   .     S
C351   C899    1.389   1_554 S
C352   C375    1.410   .     A
C352   Cl406   1.764   .     S
C352   C900    1.389   .     S
C353   C358    1.397   .     A
C353   H381    1.084   .     S
C353   C471    1.370   1_455 S
C354   C357    1.397   .     A
C354   H382    1.084   .     S
C354   C414    1.370   .     S
C355   C357    1.397   .     A
C355   H383    1.084   .     S
C355   C411    1.370   .     S
C356   C358    1.397   .     A
C356   H384    1.084   .     S
C356   C470    1.370   1_455 S
C359   N390    1.366   .     A
C359   H385    1.082   .     S
C360   N389    1.366   .     A
C360   H386    1.082   .     S
C360   C13     1.415   1_565 S
C361   H387    1.082   .     S
C361   N390    1.366   .     A
C362   N389    1.366   .     A
C362   H388    1.082   .     S
C362   C11     1.415   1_565 S
C363   O395    1.286   .     A
C363   C368    1.439   .     S
C363   O398    1.286   .     A
C364   O396    1.286   .     A
C364   O397    1.286   .     A
C364   C367    1.439   .     S
C365   C375    1.389   .     A
C365   H401    1.082   .     S
C365   C367    1.397   .     A
C366   C368    1.397   .     A
C366   C376    1.389   .     A
C366   H402    1.082   .     S
C367   C369    1.395   .     A
C368   C370    1.395   .     A
C369   H379    1.085   .     S
C369   C371    1.382   .     A
C370   H380    1.085   .     S
C370   C372    1.382   .     A
C371   C373    1.411   .     A
C371   C377    1.397   .     A
C372   C374    1.411   .     A
C372   C378    1.397   .     A
C373   C375    1.417   .     A
C373   C896    1.393   .     S
C374   C376    1.417   .     A
C374   C895    1.393   1_554 S
C377   H403    1.084   .     S
C377   C873    1.389   .     S
C378   H404    1.084   .     S
C378   C874    1.389   1_554 S
N389   Zn399   2.005   .     S
N390   Zn400   2.005   .     S
O391   Zn399   2.000   .     S
O392   Zn400   2.000   .     S
O393   Zn399   2.000   .     S
O394   Zn400   2.000   .     S
O395   Zn399   2.020   .     S
O396   Zn400   2.020   .     S
O397   Zn399   2.019   .     S
O398   Zn400   2.019   .     S
C407   O452    1.281   .     A
C407   O449    1.281   .     A
C407   C416    1.419   .     S
C408   O451    1.281   .     A
C408   C415    1.419   .     S
C408   O450    1.281   .     A
C409   C434    1.410   .     A
C409   Cl463   1.764   .     S
C409   C957    1.389   1_554 S
C410   C433    1.410   .     A
C410   Cl464   1.764   .     S
C410   C958    1.389   .     S
C411   C416    1.397   .     A
C411   H439    1.084   .     S
C412   C415    1.397   .     A
C412   H440    1.084   .     S
C412   C472    1.370   .     S
C413   C415    1.397   .     A
C413   H441    1.084   .     S
C413   C469    1.370   .     S
C414   C416    1.397   .     A
C414   H442    1.084   .     S
C417   N448    1.366   .     A
C417   H443    1.082   .     S
C418   N447    1.366   .     A
C418   H444    1.082   .     S
C418   C71     1.415   1_565 S
C419   H445    1.082   .     S
C419   N448    1.366   .     A
C420   N447    1.366   .     A
C420   H446    1.082   .     S
C420   C69     1.415   1_565 S
C421   O453    1.286   .     A
C421   C426    1.439   .     S
C421   O456    1.286   .     A
C422   O454    1.286   .     A
C422   O455    1.286   .     A
C422   C425    1.439   .     S
C423   C433    1.389   .     A
C423   H459    1.082   .     S
C423   C425    1.397   .     A
C424   C426    1.397   .     A
C424   C434    1.389   .     A
C424   H460    1.082   .     S
C425   C427    1.395   .     A
C426   C428    1.395   .     A
C427   H437    1.085   .     S
C427   C429    1.382   .     A
C428   H438    1.085   .     S
C428   C430    1.382   .     A
C429   C431    1.411   .     A
C429   C435    1.397   .     A
C430   C432    1.411   .     A
C430   C436    1.397   .     A
C431   C433    1.417   .     A
C431   C954    1.393   .     S
C432   C434    1.417   .     A
C432   C953    1.393   1_554 S
C435   H461    1.084   .     S
C435   C931    1.389   .     S
C436   H462    1.084   .     S
C436   C932    1.389   1_554 S
N447   Zn457   2.005   .     S
N448   Zn458   2.005   .     S
O449   Zn457   2.000   .     S
O450   Zn458   2.000   .     S
O451   Zn457   2.000   .     S
O452   Zn458   2.000   .     S
O453   Zn457   2.020   .     S
O454   Zn458   2.020   .     S
O455   Zn457   2.019   .     S
O456   Zn458   2.019   .     S
C465   O510    1.281   .     A
C465   O507    1.281   .     A
C465   C474    1.419   .     S
C466   O509    1.281   .     A
C466   C473    1.419   .     S
C466   O508    1.281   .     A
C467   C492    1.410   .     A
C467   Cl521   1.764   .     S
C467   C1015   1.389   1_554 S
C468   C491    1.410   .     A
C468   Cl522   1.764   .     S
C468   C1016   1.389   .     S
C469   C474    1.397   .     A
C469   H497    1.084   .     S
C470   C473    1.397   .     A
C470   H498    1.084   .     S
C470   C356    1.370   1_655 S
C471   C473    1.397   .     A
C471   H499    1.084   .     S
C471   C353    1.370   1_655 S
C472   C474    1.397   .     A
C472   H500    1.084   .     S
C475   N506    1.366   .     A
C475   H501    1.082   .     S
C476   N505    1.366   .     A
C476   H502    1.082   .     S
C476   C129    1.415   1_565 S
C477   H503    1.082   .     S
C477   N506    1.366   .     A
C478   N505    1.366   .     A
C478   H504    1.082   .     S
C478   C127    1.415   1_565 S
C479   O511    1.286   .     A
C479   C484    1.439   .     S
C479   O514    1.286   .     A
C480   O512    1.286   .     A
C480   O513    1.286   .     A
C480   C483    1.439   .     S
C481   C491    1.389   .     A
C481   H517    1.082   .     S
C481   C483    1.397   .     A
C482   C484    1.397   .     A
C482   C492    1.389   .     A
C482   H518    1.082   .     S
C483   C485    1.395   .     A
C484   C486    1.395   .     A
C485   H495    1.085   .     S
C485   C487    1.382   .     A
C486   H496    1.085   .     S
C486   C488    1.382   .     A
C487   C489    1.411   .     A
C487   C493    1.397   .     A
C488   C490    1.411   .     A
C488   C494    1.397   .     A
C489   C491    1.417   .     A
C489   C1012   1.393   .     S
C490   C492    1.417   .     A
C490   C1011   1.393   1_554 S
C493   H519    1.084   .     S
C493   C989    1.389   .     S
C494   H520    1.084   .     S
C494   C990    1.389   1_554 S
N505   Zn515   2.005   .     S
N506   Zn516   2.005   .     S
O507   Zn515   2.000   .     S
O508   Zn516   2.000   .     S
O509   Zn515   2.000   .     S
O510   Zn516   2.000   .     S
O511   Zn515   2.020   .     S
O512   Zn516   2.020   .     S
O513   Zn515   2.019   .     S
O514   Zn516   2.019   .     S
C523   O568    1.281   .     A
C523   O565    1.281   .     A
C523   C532    1.419   .     S
C524   O567    1.281   .     A
C524   C531    1.419   .     S
C524   O566    1.281   .     A
C525   C550    1.410   .     A
C525   Cl579   1.764   .     S
C526   C549    1.410   .     A
C526   Cl580   1.764   .     S
C526   C30     1.389   1_556 S
C527   C532    1.397   .     A
C527   H555    1.084   .     S
C527   C645    1.370   1_455 S
C528   C531    1.397   .     A
C528   H556    1.084   .     S
C528   C588    1.370   .     S
C529   C531    1.397   .     A
C529   H557    1.084   .     S
C529   C585    1.370   .     S
C530   C532    1.397   .     A
C530   H558    1.084   .     S
C530   C644    1.370   1_455 S
C533   N564    1.366   .     A
C533   H559    1.082   .     S
C533   C884    1.415   1_545 S
C534   N563    1.366   .     A
C534   H560    1.082   .     S
C534   C709    1.415   .     S
C535   H561    1.082   .     S
C535   N564    1.366   .     A
C535   C882    1.415   1_545 S
C536   N563    1.366   .     A
C536   H562    1.082   .     S
C536   C707    1.415   .     S
C537   O569    1.286   .     A
C537   C542    1.439   .     S
C537   O572    1.286   .     A
C538   O570    1.286   .     A
C538   O571    1.286   .     A
C538   C541    1.439   .     S
C539   C549    1.389   .     A
C539   H575    1.082   .     S
C539   C541    1.397   .     A
C540   C542    1.397   .     A
C540   C550    1.389   .     A
C540   H576    1.082   .     S
C541   C543    1.395   .     A
C542   C544    1.395   .     A
C543   H553    1.085   .     S
C543   C545    1.382   .     A
C544   H554    1.085   .     S
C544   C546    1.382   .     A
C545   C547    1.411   .     A
C545   C551    1.397   .     A
C546   C548    1.411   .     A
C546   C552    1.397   .     A
C547   C549    1.417   .     A
C547   C26     1.393   1_556 S
C548   C550    1.417   .     A
C551   H577    1.084   .     S
C551   C3      1.389   1_556 S
C552   H578    1.084   .     S
N563   Zn573   2.005   .     S
N564   Zn574   2.005   .     S
O565   Zn573   2.000   .     S
O566   Zn574   2.000   .     S
O567   Zn573   2.000   .     S
O568   Zn574   2.000   .     S
O569   Zn573   2.020   .     S
O570   Zn574   2.020   .     S
O571   Zn573   2.019   .     S
O572   Zn574   2.019   .     S
C581   O626    1.281   .     A
C581   O623    1.281   .     A
C581   C590    1.419   .     S
C582   O625    1.281   .     A
C582   C589    1.419   .     S
C582   O624    1.281   .     A
C583   C608    1.410   .     A
C583   Cl637   1.764   .     S
C584   C607    1.410   .     A
C584   Cl638   1.764   .     S
C584   C88     1.389   1_556 S
C585   C590    1.397   .     A
C585   H613    1.084   .     S
C586   C589    1.397   .     A
C586   H614    1.084   .     S
C586   C646    1.370   .     S
C587   C589    1.397   .     A
C587   H615    1.084   .     S
C587   C643    1.370   .     S
C588   C590    1.397   .     A
C588   H616    1.084   .     S
C591   N622    1.366   .     A
C591   H617    1.082   .     S
C591   C942    1.415   1_545 S
C592   N621    1.366   .     A
C592   H618    1.082   .     S
C592   C767    1.415   .     S
C593   H619    1.082   .     S
C593   N622    1.366   .     A
C593   C940    1.415   1_545 S
C594   N621    1.366   .     A
C594   H620    1.082   .     S
C594   C765    1.415   .     S
C595   O627    1.286   .     A
C595   C600    1.439   .     S
C595   O630    1.286   .     A
C596   O628    1.286   .     A
C596   O629    1.286   .     A
C596   C599    1.439   .     S
C597   C607    1.389   .     A
C597   H633    1.082   .     S
C597   C599    1.397   .     A
C598   C600    1.397   .     A
C598   C608    1.389   .     A
C598   H634    1.082   .     S
C599   C601    1.395   .     A
C600   C602    1.395   .     A
C601   H611    1.085   .     S
C601   C603    1.382   .     A
C602   H612    1.085   .     S
C602   C604    1.382   .     A
C603   C605    1.411   .     A
C603   C609    1.397   .     A
C604   C606    1.411   .     A
C604   C610    1.397   .     A
C605   C607    1.417   .     A
C605   C84     1.393   1_556 S
C606   C608    1.417   .     A
C609   H635    1.084   .     S
C609   C61     1.389   1_556 S
C610   H636    1.084   .     S
N621   Zn631   2.005   .     S
N622   Zn632   2.005   .     S
O623   Zn631   2.000   .     S
O624   Zn632   2.000   .     S
O625   Zn631   2.000   .     S
O626   Zn632   2.000   .     S
O627   Zn631   2.020   .     S
O628   Zn632   2.020   .     S
O629   Zn631   2.019   .     S
O630   Zn632   2.019   .     S
C639   O684    1.281   .     A
C639   O681    1.281   .     A
C639   C648    1.419   .     S
C640   O683    1.281   .     A
C640   C647    1.419   .     S
C640   O682    1.281   .     A
C641   C666    1.410   .     A
C641   Cl695   1.764   .     S
C642   C665    1.410   .     A
C642   Cl696   1.764   .     S
C642   C146    1.389   1_556 S
C643   C648    1.397   .     A
C643   H671    1.084   .     S
C644   C647    1.397   .     A
C644   H672    1.084   .     S
C644   C530    1.370   1_655 S
C645   C647    1.397   .     A
C645   H673    1.084   .     S
C645   C527    1.370   1_655 S
C646   C648    1.397   .     A
C646   H674    1.084   .     S
C649   N680    1.366   .     A
C649   H675    1.082   .     S
C649   C1000   1.415   1_545 S
C650   N679    1.366   .     A
C650   H676    1.082   .     S
C650   C825    1.415   .     S
C651   H677    1.082   .     S
C651   N680    1.366   .     A
C651   C998    1.415   1_545 S
C652   N679    1.366   .     A
C652   H678    1.082   .     S
C652   C823    1.415   .     S
C653   O685    1.286   .     A
C653   C658    1.439   .     S
C653   O688    1.286   .     A
C654   O686    1.286   .     A
C654   O687    1.286   .     A
C654   C657    1.439   .     S
C655   C665    1.389   .     A
C655   H691    1.082   .     S
C655   C657    1.397   .     A
C656   C658    1.397   .     A
C656   C666    1.389   .     A
C656   H692    1.082   .     S
C657   C659    1.395   .     A
C658   C660    1.395   .     A
C659   H669    1.085   .     S
C659   C661    1.382   .     A
C660   H670    1.085   .     S
C660   C662    1.382   .     A
C661   C663    1.411   .     A
C661   C667    1.397   .     A
C662   C664    1.411   .     A
C662   C668    1.397   .     A
C663   C665    1.417   .     A
C663   C142    1.393   1_556 S
C664   C666    1.417   .     A
C667   H693    1.084   .     S
C667   C119    1.389   1_556 S
C668   H694    1.084   .     S
N679   Zn689   2.005   .     S
N680   Zn690   2.005   .     S
O681   Zn689   2.000   .     S
O682   Zn690   2.000   .     S
O683   Zn689   2.000   .     S
O684   Zn690   2.000   .     S
O685   Zn689   2.020   .     S
O686   Zn690   2.020   .     S
O687   Zn689   2.019   .     S
O688   Zn690   2.019   .     S
C697   O742    1.281   .     A
C697   O739    1.281   .     A
C697   C706    1.419   .     S
C698   O741    1.281   .     A
C698   C705    1.419   .     S
C698   O740    1.281   .     A
C699   C724    1.410   .     A
C699   Cl753   1.764   .     S
C700   C723    1.410   .     A
C700   Cl754   1.764   .     S
C700   C204    1.389   1_556 S
C701   C706    1.397   .     A
C701   H729    1.084   .     S
C701   C819    1.370   1_455 S
C702   C705    1.397   .     A
C702   H730    1.084   .     S
C702   C762    1.370   .     S
C703   C705    1.397   .     A
C703   H731    1.084   .     S
C703   C759    1.370   .     S
C704   C706    1.397   .     A
C704   H732    1.084   .     S
C704   C818    1.370   1_455 S
C707   N738    1.366   .     A
C707   H733    1.082   .     S
C708   N737    1.366   .     A
C708   H734    1.082   .     S
C708   C883    1.415   .     S
C709   H735    1.082   .     S
C709   N738    1.366   .     A
C710   N737    1.366   .     A
C710   H736    1.082   .     S
C710   C881    1.415   .     S
C711   O743    1.286   .     A
C711   C716    1.439   .     S
C711   O746    1.286   .     A
C712   O744    1.286   .     A
C712   O745    1.286   .     A
C712   C715    1.439   .     S
C713   C723    1.389   .     A
C713   H749    1.082   .     S
C713   C715    1.397   .     A
C714   C716    1.397   .     A
C714   C724    1.389   .     A
C714   H750    1.082   .     S
C715   C717    1.395   .     A
C716   C718    1.395   .     A
C717   H727    1.085   .     S
C717   C719    1.382   .     A
C718   H728    1.085   .     S
C718   C720    1.382   .     A
C719   C721    1.411   .     A
C719   C725    1.397   .     A
C720   C722    1.411   .     A
C720   C726    1.397   .     A
C721   C723    1.417   .     A
C721   C200    1.393   1_556 S
C722   C724    1.417   .     A
C725   H751    1.084   .     S
C725   C177    1.389   1_556 S
C726   H752    1.084   .     S
N737   Zn747   2.005   .     S
N738   Zn748   2.005   .     S
O739   Zn747   2.000   .     S
O740   Zn748   2.000   .     S
O741   Zn747   2.000   .     S
O742   Zn748   2.000   .     S
O743   Zn747   2.020   .     S
O744   Zn748   2.020   .     S
O745   Zn747   2.019   .     S
O746   Zn748   2.019   .     S
C755   O800    1.281   .     A
C755   O797    1.281   .     A
C755   C764    1.419   .     S
C756   O799    1.281   .     A
C756   C763    1.419   .     S
C756   O798    1.281   .     A
C757   C782    1.410   .     A
C757   Cl811   1.764   .     S
C758   C781    1.410   .     A
C758   Cl812   1.764   .     S
C758   C262    1.389   1_556 S
C759   C764    1.397   .     A
C759   H787    1.084   .     S
C760   C763    1.397   .     A
C760   H788    1.084   .     S
C760   C820    1.370   .     S
C761   C763    1.397   .     A
C761   H789    1.084   .     S
C761   C817    1.370   .     S
C762   C764    1.397   .     A
C762   H790    1.084   .     S
C765   N796    1.366   .     A
C765   H791    1.082   .     S
C766   N795    1.366   .     A
C766   H792    1.082   .     S
C766   C941    1.415   .     S
C767   H793    1.082   .     S
C767   N796    1.366   .     A
C768   N795    1.366   .     A
C768   H794    1.082   .     S
C768   C939    1.415   .     S
C769   O801    1.286   .     A
C769   C774    1.439   .     S
C769   O804    1.286   .     A
C770   O802    1.286   .     A
C770   O803    1.286   .     A
C770   C773    1.439   .     S
C771   C781    1.389   .     A
C771   H807    1.082   .     S
C771   C773    1.397   .     A
C772   C774    1.397   .     A
C772   C782    1.389   .     A
C772   H808    1.082   .     S
C773   C775    1.395   .     A
C774   C776    1.395   .     A
C775   H785    1.085   .     S
C775   C777    1.382   .     A
C776   H786    1.085   .     S
C776   C778    1.382   .     A
C777   C779    1.411   .     A
C777   C783    1.397   .     A
C778   C780    1.411   .     A
C778   C784    1.397   .     A
C779   C781    1.417   .     A
C779   C258    1.393   1_556 S
C780   C782    1.417   .     A
C783   H809    1.084   .     S
C783   C235    1.389   1_556 S
C784   H810    1.084   .     S
N795   Zn805   2.005   .     S
N796   Zn806   2.005   .     S
O797   Zn805   2.000   .     S
O798   Zn806   2.000   .     S
O799   Zn805   2.000   .     S
O800   Zn806   2.000   .     S
O801   Zn805   2.020   .     S
O802   Zn806   2.020   .     S
O803   Zn805   2.019   .     S
O804   Zn806   2.019   .     S
C813   O858    1.281   .     A
C813   O855    1.281   .     A
C813   C822    1.419   .     S
C814   O857    1.281   .     A
C814   C821    1.419   .     S
C814   O856    1.281   .     A
C815   C840    1.410   .     A
C815   Cl869   1.764   .     S
C816   C839    1.410   .     A
C816   Cl870   1.764   .     S
C816   C320    1.389   1_556 S
C817   C822    1.397   .     A
C817   H845    1.084   .     S
C818   C821    1.397   .     A
C818   H846    1.084   .     S
C818   C704    1.370   1_655 S
C819   C821    1.397   .     A
C819   H847    1.084   .     S
C819   C701    1.370   1_655 S
C820   C822    1.397   .     A
C820   H848    1.084   .     S
C823   N854    1.366   .     A
C823   H849    1.082   .     S
C824   N853    1.366   .     A
C824   H850    1.082   .     S
C824   C999    1.415   .     S
C825   H851    1.082   .     S
C825   N854    1.366   .     A
C826   N853    1.366   .     A
C826   H852    1.082   .     S
C826   C997    1.415   .     S
C827   O859    1.286   .     A
C827   C832    1.439   .     S
C827   O862    1.286   .     A
C828   O860    1.286   .     A
C828   O861    1.286   .     A
C828   C831    1.439   .     S
C829   C839    1.389   .     A
C829   H865    1.082   .     S
C829   C831    1.397   .     A
C830   C832    1.397   .     A
C830   C840    1.389   .     A
C830   H866    1.082   .     S
C831   C833    1.395   .     A
C832   C834    1.395   .     A
C833   H843    1.085   .     S
C833   C835    1.382   .     A
C834   H844    1.085   .     S
C834   C836    1.382   .     A
C835   C837    1.411   .     A
C835   C841    1.397   .     A
C836   C838    1.411   .     A
C836   C842    1.397   .     A
C837   C839    1.417   .     A
C837   C316    1.393   1_556 S
C838   C840    1.417   .     A
C841   H867    1.084   .     S
C841   C293    1.389   1_556 S
C842   H868    1.084   .     S
N853   Zn863   2.005   .     S
N854   Zn864   2.005   .     S
O855   Zn863   2.000   .     S
O856   Zn864   2.000   .     S
O857   Zn863   2.000   .     S
O858   Zn864   2.000   .     S
O859   Zn863   2.020   .     S
O860   Zn864   2.020   .     S
O861   Zn863   2.019   .     S
O862   Zn864   2.019   .     S
C871   O916    1.281   .     A
C871   O913    1.281   .     A
C871   C880    1.419   .     S
C872   O915    1.281   .     A
C872   C879    1.419   .     S
C872   O914    1.281   .     A
C873   C898    1.410   .     A
C873   Cl927   1.764   .     S
C874   C897    1.410   .     A
C874   Cl928   1.764   .     S
C874   C378    1.389   1_556 S
C875   C880    1.397   .     A
C875   H903    1.084   .     S
C875   C993    1.370   1_455 S
C876   C879    1.397   .     A
C876   H904    1.084   .     S
C876   C936    1.370   .     S
C877   C879    1.397   .     A
C877   H905    1.084   .     S
C877   C933    1.370   .     S
C878   C880    1.397   .     A
C878   H906    1.084   .     S
C878   C992    1.370   1_455 S
C881   N912    1.366   .     A
C881   H907    1.082   .     S
C882   N911    1.366   .     A
C882   H908    1.082   .     S
C882   C535    1.415   1_565 S
C883   H909    1.082   .     S
C883   N912    1.366   .     A
C884   N911    1.366   .     A
C884   H910    1.082   .     S
C884   C533    1.415   1_565 S
C885   O917    1.286   .     A
C885   C890    1.439   .     S
C885   O920    1.286   .     A
C886   O918    1.286   .     A
C886   O919    1.286   .     A
C886   C889    1.439   .     S
C887   C897    1.389   .     A
C887   H923    1.082   .     S
C887   C889    1.397   .     A
C888   C890    1.397   .     A
C888   C898    1.389   .     A
C888   H924    1.082   .     S
C889   C891    1.395   .     A
C890   C892    1.395   .     A
C891   H901    1.085   .     S
C891   C893    1.382   .     A
C892   H902    1.085   .     S
C892   C894    1.382   .     A
C893   C895    1.411   .     A
C893   C899    1.397   .     A
C894   C896    1.411   .     A
C894   C900    1.397   .     A
C895   C897    1.417   .     A
C895   C374    1.393   1_556 S
C896   C898    1.417   .     A
C899   H925    1.084   .     S
C899   C351    1.389   1_556 S
C900   H926    1.084   .     S
N911   Zn921   2.005   .     S
N912   Zn922   2.005   .     S
O913   Zn921   2.000   .     S
O914   Zn922   2.000   .     S
O915   Zn921   2.000   .     S
O916   Zn922   2.000   .     S
O917   Zn921   2.020   .     S
O918   Zn922   2.020   .     S
O919   Zn921   2.019   .     S
O920   Zn922   2.019   .     S
C929   O974    1.281   .     A
C929   O971    1.281   .     A
C929   C938    1.419   .     S
C930   O973    1.281   .     A
C930   C937    1.419   .     S
C930   O972    1.281   .     A
C931   C956    1.410   .     A
C931   Cl985   1.764   .     S
C932   C955    1.410   .     A
C932   Cl986   1.764   .     S
C932   C436    1.389   1_556 S
C933   C938    1.397   .     A
C933   H961    1.084   .     S
C934   C937    1.397   .     A
C934   H962    1.084   .     S
C934   C994    1.370   .     S
C935   C937    1.397   .     A
C935   H963    1.084   .     S
C935   C991    1.370   .     S
C936   C938    1.397   .     A
C936   H964    1.084   .     S
C939   N970    1.366   .     A
C939   H965    1.082   .     S
C940   N969    1.366   .     A
C940   H966    1.082   .     S
C940   C593    1.415   1_565 S
C941   H967    1.082   .     S
C941   N970    1.366   .     A
C942   N969    1.366   .     A
C942   H968    1.082   .     S
C942   C591    1.415   1_565 S
C943   O975    1.286   .     A
C943   C948    1.439   .     S
C943   O978    1.286   .     A
C944   O976    1.286   .     A
C944   O977    1.286   .     A
C944   C947    1.439   .     S
C945   C955    1.389   .     A
C945   H981    1.082   .     S
C945   C947    1.397   .     A
C946   C948    1.397   .     A
C946   C956    1.389   .     A
C946   H982    1.082   .     S
C947   C949    1.395   .     A
C948   C950    1.395   .     A
C949   H959    1.085   .     S
C949   C951    1.382   .     A
C950   H960    1.085   .     S
C950   C952    1.382   .     A
C951   C953    1.411   .     A
C951   C957    1.397   .     A
C952   C954    1.411   .     A
C952   C958    1.397   .     A
C953   C955    1.417   .     A
C953   C432    1.393   1_556 S
C954   C956    1.417   .     A
C957   H983    1.084   .     S
C957   C409    1.389   1_556 S
C958   H984    1.084   .     S
N969   Zn979   2.005   .     S
N970   Zn980   2.005   .     S
O971   Zn979   2.000   .     S
O972   Zn980   2.000   .     S
O973   Zn979   2.000   .     S
O974   Zn980   2.000   .     S
O975   Zn979   2.020   .     S
O976   Zn980   2.020   .     S
O977   Zn979   2.019   .     S
O978   Zn980   2.019   .     S
C987   O1032   1.281   .     A
C987   O1029   1.281   .     A
C987   C996    1.419   .     S
C988   O1031   1.281   .     A
C988   C995    1.419   .     S
C988   O1030   1.281   .     A
C989   C1014   1.410   .     A
C989   Cl1043  1.764   .     S
C990   C1013   1.410   .     A
C990   Cl1044  1.764   .     S
C990   C494    1.389   1_556 S
C991   C996    1.397   .     A
C991   H1019   1.084   .     S
C992   C995    1.397   .     A
C992   H1020   1.084   .     S
C992   C878    1.370   1_655 S
C993   C995    1.397   .     A
C993   H1021   1.084   .     S
C993   C875    1.370   1_655 S
C994   C996    1.397   .     A
C994   H1022   1.084   .     S
C997   N1028   1.366   .     A
C997   H1023   1.082   .     S
C998   N1027   1.366   .     A
C998   H1024   1.082   .     S
C998   C651    1.415   1_565 S
C999   H1025   1.082   .     S
C999   N1028   1.366   .     A
C1000  N1027   1.366   .     A
C1000  H1026   1.082   .     S
C1000  C649    1.415   1_565 S
C1001  O1033   1.286   .     A
C1001  C1006   1.439   .     S
C1001  O1036   1.286   .     A
C1002  O1034   1.286   .     A
C1002  O1035   1.286   .     A
C1002  C1005   1.439   .     S
C1003  C1013   1.389   .     A
C1003  H1039   1.082   .     S
C1003  C1005   1.397   .     A
C1004  C1006   1.397   .     A
C1004  C1014   1.389   .     A
C1004  H1040   1.082   .     S
C1005  C1007   1.395   .     A
C1006  C1008   1.395   .     A
C1007  H1017   1.085   .     S
C1007  C1009   1.382   .     A
C1008  H1018   1.085   .     S
C1008  C1010   1.382   .     A
C1009  C1011   1.411   .     A
C1009  C1015   1.397   .     A
C1010  C1012   1.411   .     A
C1010  C1016   1.397   .     A
C1011  C1013   1.417   .     A
C1011  C490    1.393   1_556 S
C1012  C1014   1.417   .     A
C1015  H1041   1.084   .     S
C1015  C467    1.389   1_556 S
C1016  H1042   1.084   .     S
N1027  Zn1037  2.005   .     S
N1028  Zn1038  2.005   .     S
O1029  Zn1037  2.000   .     S
O1030  Zn1038  2.000   .     S
O1031  Zn1037  2.000   .     S
O1032  Zn1038  2.000   .     S
O1033  Zn1037  2.020   .     S
O1034  Zn1038  2.020   .     S
O1035  Zn1037  2.019   .     S
O1036  Zn1038  2.019   .     S
