data_str_m3_o10_o18_pcu_sym.46
_audit_creation_date              2020-01-03
_audit_creation_method            'Materials Studio'
_symmetry_space_group_name_H-M    'P1'
_symmetry_Int_Tables_number       1
_symmetry_cell_setting            triclinic
loop_
_symmetry_equiv_pos_as_xyz
  x,y,z
_cell_length_a                    23.4996
_cell_length_b                    25.8547
_cell_length_c                    27.4821
_cell_angle_alpha                 93.6294
_cell_angle_beta                  92.5820
_cell_angle_gamma                 94.0687
loop_
_atom_site_label
_atom_site_type_symbol
_atom_site_fract_x
_atom_site_fract_y
_atom_site_fract_z
_atom_site_U_iso_or_equiv
_atom_site_adp_type
_atom_site_occupancy
C1     C     0.01475   0.26474   0.24820   0.00000  Uiso   1.00
C2     C     0.31223   0.16078   0.15888   0.00000  Uiso   1.00
C3     C     0.03192   0.18146   0.39371   0.00000  Uiso   1.00
C4     C     0.30141   0.15187   0.10629   0.00000  Uiso   1.00
C5     C     0.01939   0.22422   0.47299   0.00000  Uiso   1.00
C6     C     0.31395   0.10911   0.02701   0.00000  Uiso   1.00
C7     C     0.00157   0.21527   0.42393   0.00000  Uiso   1.00
C8     C     0.33176   0.11806   0.07607   0.00000  Uiso   1.00
C9     C     0.07889   0.15863   0.41297   0.00000  Uiso   1.00
C10    C     0.25444   0.17470   0.08703   0.00000  Uiso   1.00
C11    C     0.10218   0.17386   0.45957   0.00000  Uiso   1.00
C12    C     0.31858   0.06860   0.25180   0.00000  Uiso   1.00
C13    C     0.23115   0.15947   0.04043   0.00000  Uiso   1.00
C14    C     0.07014   0.20512   0.49061   0.00000  Uiso   1.00
C15    C     0.26319   0.12822   0.00939   0.00000  Uiso   1.00
C16    C     0.15666   0.15944   0.47564   0.00000  Uiso   1.00
C17    C     0.17667   0.17389   0.02436   0.00000  Uiso   1.00
C18    C     0.14083   0.20085   0.05583   0.00000  Uiso   1.00
C19    C     0.19251   0.13249   0.44417   0.00000  Uiso   1.00
C20    C     0.08920   0.21718   0.03878   0.00000  Uiso   1.00
C21    C     0.24413   0.11615   0.46122   0.00000  Uiso   1.00
C22    C     0.01991   0.31839   0.24046   0.00000  Uiso   1.00
C23    C     0.31343   0.01494   0.25954   0.00000  Uiso   1.00
C24    C     0.02111   0.17255   0.34112   0.00000  Uiso   1.00
H25    H     0.06391   0.23918   0.06357   0.00000  Uiso   1.00
H26    H     0.17079   0.20862   0.28623   0.00000  Uiso   1.00
H27    H     0.03821   0.08395   0.12677   0.00000  Uiso   1.00
H28    H     0.29513   0.24938   0.37323   0.00000  Uiso   1.00
H29    H     0.08197   0.30871   0.19601   0.00000  Uiso   1.00
H30    H     0.25137   0.02463   0.30399   0.00000  Uiso   1.00
H31    H     0.26942   0.09415   0.43644   0.00000  Uiso   1.00
H32    H     0.23582   0.20352   0.11008   0.00000  Uiso   1.00
H33    H     0.09751   0.12981   0.38992   0.00000  Uiso   1.00
H34    H     0.32868   0.24877   0.49664   0.00000  Uiso   1.00
H35    H     0.00466   0.08456   0.00336   0.00000  Uiso   1.00
H36    H     0.15094   0.20984   0.09415   0.00000  Uiso   1.00
H37    H     0.18239   0.12349   0.40585   0.00000  Uiso   1.00
H38    H     0.16255   0.12471   0.21377   0.00000  Uiso   1.00
N39    N     0.14695   0.15216   0.23740   0.00000  Uiso   1.00
N40    N     0.18638   0.18117   0.26261   0.00000  Uiso   1.00
O41    O     0.29719   0.24631   0.25310   0.00000  Uiso   1.00
O42    O     0.28925   0.24111   0.40735   0.00000  Uiso   1.00
O43    O     0.06019   0.00410   0.20926   0.00000  Uiso   1.00
O44    O     0.27314   0.32924   0.29074   0.00000  Uiso   1.00
O45    O     0.03614   0.08702   0.24691   0.00000  Uiso   1.00
O46    O     0.05822   0.23702   0.24502   0.00000  Uiso   1.00
O47    O     0.27512   0.09632   0.25499   0.00000  Uiso   1.00
O48    O     0.30328   0.17397   0.32247   0.00000  Uiso   1.00
O49    O     0.03005   0.15937   0.17753   0.00000  Uiso   1.00
O50    O     0.06431   0.16467   0.31439   0.00000  Uiso   1.00
O51    O     0.26902   0.16866   0.18561   0.00000  Uiso   1.00
O52    O     0.04408   0.09223   0.09265   0.00000  Uiso   1.00
Zn53   Zn    0.27033   0.17287   0.25540   0.00000  Uiso   1.00
Zn54   Zn    0.06300   0.16046   0.24461   0.00000  Uiso   1.00
C55    C     0.34808   0.26474   0.24820   0.00000  Uiso   1.00
C56    C     0.64556   0.16078   0.15888   0.00000  Uiso   1.00
C57    C     0.36525   0.18146   0.39371   0.00000  Uiso   1.00
C58    C     0.63474   0.15187   0.10629   0.00000  Uiso   1.00
C59    C     0.35272   0.22422   0.47299   0.00000  Uiso   1.00
C60    C     0.64728   0.10911   0.02701   0.00000  Uiso   1.00
C61    C     0.33491   0.21527   0.42393   0.00000  Uiso   1.00
C62    C     0.66509   0.11806   0.07607   0.00000  Uiso   1.00
C63    C     0.41223   0.15863   0.41297   0.00000  Uiso   1.00
C64    C     0.58777   0.17470   0.08703   0.00000  Uiso   1.00
C65    C     0.43551   0.17386   0.45957   0.00000  Uiso   1.00
C66    C     0.65192   0.06860   0.25180   0.00000  Uiso   1.00
C67    C     0.56449   0.15947   0.04043   0.00000  Uiso   1.00
C68    C     0.40348   0.20512   0.49061   0.00000  Uiso   1.00
C69    C     0.59652   0.12822   0.00939   0.00000  Uiso   1.00
C70    C     0.48999   0.15944   0.47564   0.00000  Uiso   1.00
C71    C     0.51001   0.17389   0.02436   0.00000  Uiso   1.00
C72    C     0.47416   0.20085   0.05583   0.00000  Uiso   1.00
C73    C     0.52584   0.13249   0.44417   0.00000  Uiso   1.00
C74    C     0.42254   0.21718   0.03878   0.00000  Uiso   1.00
C75    C     0.57746   0.11615   0.46122   0.00000  Uiso   1.00
C76    C     0.35324   0.31839   0.24046   0.00000  Uiso   1.00
C77    C     0.64676   0.01494   0.25954   0.00000  Uiso   1.00
C78    C     0.35444   0.17255   0.34112   0.00000  Uiso   1.00
H79    H     0.39725   0.23918   0.06357   0.00000  Uiso   1.00
H80    H     0.50412   0.20862   0.28623   0.00000  Uiso   1.00
H81    H     0.37154   0.08395   0.12677   0.00000  Uiso   1.00
H82    H     0.62846   0.24938   0.37323   0.00000  Uiso   1.00
H83    H     0.41530   0.30871   0.19601   0.00000  Uiso   1.00
H84    H     0.58470   0.02463   0.30399   0.00000  Uiso   1.00
H85    H     0.60275   0.09415   0.43644   0.00000  Uiso   1.00
H86    H     0.56916   0.20352   0.11008   0.00000  Uiso   1.00
H87    H     0.43084   0.12981   0.38992   0.00000  Uiso   1.00
H88    H     0.66201   0.24877   0.49664   0.00000  Uiso   1.00
H89    H     0.33799   0.08456   0.00336   0.00000  Uiso   1.00
H90    H     0.48427   0.20984   0.09415   0.00000  Uiso   1.00
H91    H     0.51573   0.12349   0.40585   0.00000  Uiso   1.00
H92    H     0.49588   0.12471   0.21377   0.00000  Uiso   1.00
N93    N     0.48029   0.15216   0.23740   0.00000  Uiso   1.00
N94    N     0.51971   0.18117   0.26261   0.00000  Uiso   1.00
O95    O     0.63052   0.24631   0.25310   0.00000  Uiso   1.00
O96    O     0.62258   0.24111   0.40735   0.00000  Uiso   1.00
O97    O     0.39353   0.00410   0.20926   0.00000  Uiso   1.00
O98    O     0.60647   0.32924   0.29074   0.00000  Uiso   1.00
O99    O     0.36948   0.08702   0.24691   0.00000  Uiso   1.00
O100   O     0.39155   0.23702   0.24502   0.00000  Uiso   1.00
O101   O     0.60845   0.09632   0.25499   0.00000  Uiso   1.00
O102   O     0.63662   0.17397   0.32247   0.00000  Uiso   1.00
O103   O     0.36338   0.15937   0.17753   0.00000  Uiso   1.00
O104   O     0.39764   0.16467   0.31439   0.00000  Uiso   1.00
O105   O     0.60236   0.16866   0.18561   0.00000  Uiso   1.00
O106   O     0.37742   0.09223   0.09265   0.00000  Uiso   1.00
Zn107  Zn    0.60366   0.17287   0.25540   0.00000  Uiso   1.00
Zn108  Zn    0.39634   0.16046   0.24461   0.00000  Uiso   1.00
C109   C     0.68142   0.26474   0.24820   0.00000  Uiso   1.00
C110   C     0.97889   0.16078   0.15888   0.00000  Uiso   1.00
C111   C     0.69859   0.18146   0.39371   0.00000  Uiso   1.00
C112   C     0.96808   0.15187   0.10629   0.00000  Uiso   1.00
C113   C     0.68605   0.22422   0.47299   0.00000  Uiso   1.00
C114   C     0.98061   0.10911   0.02701   0.00000  Uiso   1.00
C115   C     0.66824   0.21527   0.42393   0.00000  Uiso   1.00
C116   C     0.99843   0.11806   0.07607   0.00000  Uiso   1.00
C117   C     0.74556   0.15863   0.41297   0.00000  Uiso   1.00
C118   C     0.92111   0.17470   0.08703   0.00000  Uiso   1.00
C119   C     0.76885   0.17386   0.45957   0.00000  Uiso   1.00
C120   C     0.98525   0.06860   0.25180   0.00000  Uiso   1.00
C121   C     0.89782   0.15947   0.04043   0.00000  Uiso   1.00
C122   C     0.73681   0.20512   0.49061   0.00000  Uiso   1.00
C123   C     0.92986   0.12822   0.00939   0.00000  Uiso   1.00
C124   C     0.82333   0.15944   0.47564   0.00000  Uiso   1.00
C125   C     0.84334   0.17389   0.02436   0.00000  Uiso   1.00
C126   C     0.80749   0.20085   0.05583   0.00000  Uiso   1.00
C127   C     0.85917   0.13249   0.44417   0.00000  Uiso   1.00
C128   C     0.75587   0.21718   0.03878   0.00000  Uiso   1.00
C129   C     0.91080   0.11615   0.46122   0.00000  Uiso   1.00
C130   C     0.68657   0.31839   0.24046   0.00000  Uiso   1.00
C131   C     0.98009   0.01494   0.25954   0.00000  Uiso   1.00
C132   C     0.68777   0.17255   0.34112   0.00000  Uiso   1.00
H133   H     0.73058   0.23918   0.06357   0.00000  Uiso   1.00
H134   H     0.83745   0.20862   0.28623   0.00000  Uiso   1.00
H135   H     0.70487   0.08395   0.12677   0.00000  Uiso   1.00
H136   H     0.96179   0.24938   0.37323   0.00000  Uiso   1.00
H137   H     0.74863   0.30871   0.19601   0.00000  Uiso   1.00
H138   H     0.91803   0.02463   0.30399   0.00000  Uiso   1.00
H139   H     0.93609   0.09415   0.43644   0.00000  Uiso   1.00
H140   H     0.90249   0.20352   0.11008   0.00000  Uiso   1.00
H141   H     0.76418   0.12981   0.38992   0.00000  Uiso   1.00
H142   H     0.99534   0.24877   0.49664   0.00000  Uiso   1.00
H143   H     0.67132   0.08456   0.00336   0.00000  Uiso   1.00
H144   H     0.81761   0.20984   0.09415   0.00000  Uiso   1.00
H145   H     0.84906   0.12349   0.40585   0.00000  Uiso   1.00
H146   H     0.82921   0.12471   0.21377   0.00000  Uiso   1.00
N147   N     0.81362   0.15216   0.23740   0.00000  Uiso   1.00
N148   N     0.85305   0.18117   0.26261   0.00000  Uiso   1.00
O149   O     0.96386   0.24631   0.25310   0.00000  Uiso   1.00
O150   O     0.95592   0.24111   0.40735   0.00000  Uiso   1.00
O151   O     0.72686   0.00410   0.20926   0.00000  Uiso   1.00
O152   O     0.93981   0.32924   0.29074   0.00000  Uiso   1.00
O153   O     0.70281   0.08702   0.24691   0.00000  Uiso   1.00
O154   O     0.72488   0.23702   0.24502   0.00000  Uiso   1.00
O155   O     0.94178   0.09632   0.25499   0.00000  Uiso   1.00
O156   O     0.96995   0.17397   0.32247   0.00000  Uiso   1.00
O157   O     0.69672   0.15937   0.17753   0.00000  Uiso   1.00
O158   O     0.73098   0.16467   0.31439   0.00000  Uiso   1.00
O159   O     0.93569   0.16866   0.18561   0.00000  Uiso   1.00
O160   O     0.71075   0.09223   0.09265   0.00000  Uiso   1.00
Zn161  Zn    0.93700   0.17287   0.25540   0.00000  Uiso   1.00
Zn162  Zn    0.72967   0.16046   0.24461   0.00000  Uiso   1.00
C163   C     0.01475   0.59807   0.24820   0.00000  Uiso   1.00
C164   C     0.31223   0.49411   0.15888   0.00000  Uiso   1.00
C165   C     0.03192   0.51480   0.39371   0.00000  Uiso   1.00
C166   C     0.30141   0.48520   0.10629   0.00000  Uiso   1.00
C167   C     0.01939   0.55756   0.47299   0.00000  Uiso   1.00
C168   C     0.31395   0.44244   0.02701   0.00000  Uiso   1.00
C169   C     0.00157   0.54860   0.42393   0.00000  Uiso   1.00
C170   C     0.33176   0.45140   0.07607   0.00000  Uiso   1.00
C171   C     0.07889   0.49197   0.41297   0.00000  Uiso   1.00
C172   C     0.25444   0.50803   0.08703   0.00000  Uiso   1.00
C173   C     0.10218   0.50720   0.45957   0.00000  Uiso   1.00
C174   C     0.31858   0.40193   0.25180   0.00000  Uiso   1.00
C175   C     0.23115   0.49280   0.04043   0.00000  Uiso   1.00
C176   C     0.07014   0.53845   0.49061   0.00000  Uiso   1.00
C177   C     0.26319   0.46155   0.00939   0.00000  Uiso   1.00
C178   C     0.15666   0.49278   0.47564   0.00000  Uiso   1.00
C179   C     0.17667   0.50722   0.02436   0.00000  Uiso   1.00
C180   C     0.14083   0.53418   0.05583   0.00000  Uiso   1.00
C181   C     0.19251   0.46582   0.44417   0.00000  Uiso   1.00
C182   C     0.08920   0.55052   0.03878   0.00000  Uiso   1.00
C183   C     0.24413   0.44948   0.46122   0.00000  Uiso   1.00
C184   C     0.01991   0.65172   0.24046   0.00000  Uiso   1.00
C185   C     0.31343   0.34828   0.25954   0.00000  Uiso   1.00
C186   C     0.02111   0.50589   0.34112   0.00000  Uiso   1.00
H187   H     0.06391   0.57251   0.06357   0.00000  Uiso   1.00
H188   H     0.17079   0.54196   0.28623   0.00000  Uiso   1.00
H189   H     0.03821   0.41728   0.12677   0.00000  Uiso   1.00
H190   H     0.29513   0.58272   0.37323   0.00000  Uiso   1.00
H191   H     0.08197   0.64204   0.19601   0.00000  Uiso   1.00
H192   H     0.25137   0.35796   0.30399   0.00000  Uiso   1.00
H193   H     0.26942   0.42749   0.43644   0.00000  Uiso   1.00
H194   H     0.23582   0.53685   0.11008   0.00000  Uiso   1.00
H195   H     0.09751   0.46315   0.38992   0.00000  Uiso   1.00
H196   H     0.32868   0.58211   0.49664   0.00000  Uiso   1.00
H197   H     0.00466   0.41789   0.00336   0.00000  Uiso   1.00
H198   H     0.15094   0.54318   0.09415   0.00000  Uiso   1.00
H199   H     0.18239   0.45682   0.40585   0.00000  Uiso   1.00
H200   H     0.16255   0.45804   0.21377   0.00000  Uiso   1.00
N201   N     0.14695   0.48550   0.23740   0.00000  Uiso   1.00
N202   N     0.18638   0.51450   0.26261   0.00000  Uiso   1.00
O203   O     0.29719   0.57964   0.25310   0.00000  Uiso   1.00
O204   O     0.28925   0.57444   0.40735   0.00000  Uiso   1.00
O205   O     0.06019   0.33743   0.20926   0.00000  Uiso   1.00
O206   O     0.27314   0.66257   0.29074   0.00000  Uiso   1.00
O207   O     0.03614   0.42036   0.24691   0.00000  Uiso   1.00
O208   O     0.05822   0.57035   0.24502   0.00000  Uiso   1.00
O209   O     0.27512   0.42965   0.25499   0.00000  Uiso   1.00
O210   O     0.30328   0.50730   0.32247   0.00000  Uiso   1.00
O211   O     0.03005   0.49270   0.17753   0.00000  Uiso   1.00
O212   O     0.06431   0.49801   0.31439   0.00000  Uiso   1.00
O213   O     0.26902   0.50199   0.18561   0.00000  Uiso   1.00
O214   O     0.04408   0.42556   0.09265   0.00000  Uiso   1.00
Zn215  Zn    0.27033   0.50621   0.25540   0.00000  Uiso   1.00
Zn216  Zn    0.06300   0.49379   0.24461   0.00000  Uiso   1.00
C217   C     0.34808   0.59807   0.24820   0.00000  Uiso   1.00
C218   C     0.64556   0.49411   0.15888   0.00000  Uiso   1.00
C219   C     0.36525   0.51480   0.39371   0.00000  Uiso   1.00
C220   C     0.63474   0.48520   0.10629   0.00000  Uiso   1.00
C221   C     0.35272   0.55756   0.47299   0.00000  Uiso   1.00
C222   C     0.64728   0.44244   0.02701   0.00000  Uiso   1.00
C223   C     0.33491   0.54860   0.42393   0.00000  Uiso   1.00
C224   C     0.66509   0.45140   0.07607   0.00000  Uiso   1.00
C225   C     0.41223   0.49197   0.41297   0.00000  Uiso   1.00
C226   C     0.58777   0.50803   0.08703   0.00000  Uiso   1.00
C227   C     0.43551   0.50720   0.45957   0.00000  Uiso   1.00
C228   C     0.65192   0.40193   0.25180   0.00000  Uiso   1.00
C229   C     0.56449   0.49280   0.04043   0.00000  Uiso   1.00
C230   C     0.40348   0.53845   0.49061   0.00000  Uiso   1.00
C231   C     0.59652   0.46155   0.00939   0.00000  Uiso   1.00
C232   C     0.48999   0.49278   0.47564   0.00000  Uiso   1.00
C233   C     0.51001   0.50722   0.02436   0.00000  Uiso   1.00
C234   C     0.47416   0.53418   0.05583   0.00000  Uiso   1.00
C235   C     0.52584   0.46582   0.44417   0.00000  Uiso   1.00
C236   C     0.42254   0.55052   0.03878   0.00000  Uiso   1.00
C237   C     0.57746   0.44948   0.46122   0.00000  Uiso   1.00
C238   C     0.35324   0.65172   0.24046   0.00000  Uiso   1.00
C239   C     0.64676   0.34828   0.25954   0.00000  Uiso   1.00
C240   C     0.35444   0.50589   0.34112   0.00000  Uiso   1.00
H241   H     0.39725   0.57251   0.06357   0.00000  Uiso   1.00
H242   H     0.50412   0.54196   0.28623   0.00000  Uiso   1.00
H243   H     0.37154   0.41728   0.12677   0.00000  Uiso   1.00
H244   H     0.62846   0.58272   0.37323   0.00000  Uiso   1.00
H245   H     0.41530   0.64204   0.19601   0.00000  Uiso   1.00
H246   H     0.58470   0.35796   0.30399   0.00000  Uiso   1.00
H247   H     0.60275   0.42749   0.43644   0.00000  Uiso   1.00
H248   H     0.56916   0.53685   0.11008   0.00000  Uiso   1.00
H249   H     0.43084   0.46315   0.38992   0.00000  Uiso   1.00
H250   H     0.66201   0.58211   0.49664   0.00000  Uiso   1.00
H251   H     0.33799   0.41789   0.00336   0.00000  Uiso   1.00
H252   H     0.48427   0.54318   0.09415   0.00000  Uiso   1.00
H253   H     0.51573   0.45682   0.40585   0.00000  Uiso   1.00
H254   H     0.49588   0.45804   0.21377   0.00000  Uiso   1.00
N255   N     0.48029   0.48550   0.23740   0.00000  Uiso   1.00
N256   N     0.51971   0.51450   0.26261   0.00000  Uiso   1.00
O257   O     0.63052   0.57964   0.25310   0.00000  Uiso   1.00
O258   O     0.62258   0.57444   0.40735   0.00000  Uiso   1.00
O259   O     0.39353   0.33743   0.20926   0.00000  Uiso   1.00
O260   O     0.60647   0.66257   0.29074   0.00000  Uiso   1.00
O261   O     0.36948   0.42036   0.24691   0.00000  Uiso   1.00
O262   O     0.39155   0.57035   0.24502   0.00000  Uiso   1.00
O263   O     0.60845   0.42965   0.25499   0.00000  Uiso   1.00
O264   O     0.63662   0.50730   0.32247   0.00000  Uiso   1.00
O265   O     0.36338   0.49270   0.17753   0.00000  Uiso   1.00
O266   O     0.39764   0.49801   0.31439   0.00000  Uiso   1.00
O267   O     0.60236   0.50199   0.18561   0.00000  Uiso   1.00
O268   O     0.37742   0.42556   0.09265   0.00000  Uiso   1.00
Zn269  Zn    0.60366   0.50621   0.25540   0.00000  Uiso   1.00
Zn270  Zn    0.39634   0.49379   0.24461   0.00000  Uiso   1.00
C271   C     0.68142   0.59807   0.24820   0.00000  Uiso   1.00
C272   C     0.97889   0.49411   0.15888   0.00000  Uiso   1.00
C273   C     0.69859   0.51480   0.39371   0.00000  Uiso   1.00
C274   C     0.96808   0.48520   0.10629   0.00000  Uiso   1.00
C275   C     0.68605   0.55756   0.47299   0.00000  Uiso   1.00
C276   C     0.98061   0.44244   0.02701   0.00000  Uiso   1.00
C277   C     0.66824   0.54860   0.42393   0.00000  Uiso   1.00
C278   C     0.99843   0.45140   0.07607   0.00000  Uiso   1.00
C279   C     0.74556   0.49197   0.41297   0.00000  Uiso   1.00
C280   C     0.92111   0.50803   0.08703   0.00000  Uiso   1.00
C281   C     0.76885   0.50720   0.45957   0.00000  Uiso   1.00
C282   C     0.98525   0.40193   0.25180   0.00000  Uiso   1.00
C283   C     0.89782   0.49280   0.04043   0.00000  Uiso   1.00
C284   C     0.73681   0.53845   0.49061   0.00000  Uiso   1.00
C285   C     0.92986   0.46155   0.00939   0.00000  Uiso   1.00
C286   C     0.82333   0.49278   0.47564   0.00000  Uiso   1.00
C287   C     0.84334   0.50722   0.02436   0.00000  Uiso   1.00
C288   C     0.80749   0.53418   0.05583   0.00000  Uiso   1.00
C289   C     0.85917   0.46582   0.44417   0.00000  Uiso   1.00
C290   C     0.75587   0.55052   0.03878   0.00000  Uiso   1.00
C291   C     0.91080   0.44948   0.46122   0.00000  Uiso   1.00
C292   C     0.68657   0.65172   0.24046   0.00000  Uiso   1.00
C293   C     0.98009   0.34828   0.25954   0.00000  Uiso   1.00
C294   C     0.68777   0.50589   0.34112   0.00000  Uiso   1.00
H295   H     0.73058   0.57251   0.06357   0.00000  Uiso   1.00
H296   H     0.83745   0.54196   0.28623   0.00000  Uiso   1.00
H297   H     0.70487   0.41728   0.12677   0.00000  Uiso   1.00
H298   H     0.96179   0.58272   0.37323   0.00000  Uiso   1.00
H299   H     0.74863   0.64204   0.19601   0.00000  Uiso   1.00
H300   H     0.91803   0.35796   0.30399   0.00000  Uiso   1.00
H301   H     0.93609   0.42749   0.43644   0.00000  Uiso   1.00
H302   H     0.90249   0.53685   0.11008   0.00000  Uiso   1.00
H303   H     0.76418   0.46315   0.38992   0.00000  Uiso   1.00
H304   H     0.99534   0.58211   0.49664   0.00000  Uiso   1.00
H305   H     0.67132   0.41789   0.00336   0.00000  Uiso   1.00
H306   H     0.81761   0.54318   0.09415   0.00000  Uiso   1.00
H307   H     0.84906   0.45682   0.40585   0.00000  Uiso   1.00
H308   H     0.82921   0.45804   0.21377   0.00000  Uiso   1.00
N309   N     0.81362   0.48550   0.23740   0.00000  Uiso   1.00
N310   N     0.85305   0.51450   0.26261   0.00000  Uiso   1.00
O311   O     0.96386   0.57964   0.25310   0.00000  Uiso   1.00
O312   O     0.95592   0.57444   0.40735   0.00000  Uiso   1.00
O313   O     0.72686   0.33743   0.20926   0.00000  Uiso   1.00
O314   O     0.93981   0.66257   0.29074   0.00000  Uiso   1.00
O315   O     0.70281   0.42036   0.24691   0.00000  Uiso   1.00
O316   O     0.72488   0.57035   0.24502   0.00000  Uiso   1.00
O317   O     0.94178   0.42965   0.25499   0.00000  Uiso   1.00
O318   O     0.96995   0.50730   0.32247   0.00000  Uiso   1.00
O319   O     0.69672   0.49270   0.17753   0.00000  Uiso   1.00
O320   O     0.73098   0.49801   0.31439   0.00000  Uiso   1.00
O321   O     0.93569   0.50199   0.18561   0.00000  Uiso   1.00
O322   O     0.71075   0.42556   0.09265   0.00000  Uiso   1.00
Zn323  Zn    0.93700   0.50621   0.25540   0.00000  Uiso   1.00
Zn324  Zn    0.72967   0.49379   0.24461   0.00000  Uiso   1.00
C325   C     0.01475   0.93140   0.24820   0.00000  Uiso   1.00
C326   C     0.31223   0.82745   0.15888   0.00000  Uiso   1.00
C327   C     0.03192   0.84813   0.39371   0.00000  Uiso   1.00
C328   C     0.30141   0.81854   0.10629   0.00000  Uiso   1.00
C329   C     0.01939   0.89089   0.47299   0.00000  Uiso   1.00
C330   C     0.31395   0.77578   0.02701   0.00000  Uiso   1.00
C331   C     0.00157   0.88194   0.42393   0.00000  Uiso   1.00
C332   C     0.33176   0.78473   0.07607   0.00000  Uiso   1.00
C333   C     0.07889   0.82530   0.41297   0.00000  Uiso   1.00
C334   C     0.25444   0.84137   0.08703   0.00000  Uiso   1.00
C335   C     0.10218   0.84053   0.45957   0.00000  Uiso   1.00
C336   C     0.31858   0.73526   0.25180   0.00000  Uiso   1.00
C337   C     0.23115   0.82614   0.04043   0.00000  Uiso   1.00
C338   C     0.07014   0.87178   0.49061   0.00000  Uiso   1.00
C339   C     0.26319   0.79488   0.00939   0.00000  Uiso   1.00
C340   C     0.15666   0.82611   0.47564   0.00000  Uiso   1.00
C341   C     0.17667   0.84056   0.02436   0.00000  Uiso   1.00
C342   C     0.14083   0.86751   0.05583   0.00000  Uiso   1.00
C343   C     0.19251   0.79915   0.44417   0.00000  Uiso   1.00
C344   C     0.08920   0.88385   0.03878   0.00000  Uiso   1.00
C345   C     0.24413   0.78282   0.46122   0.00000  Uiso   1.00
C346   C     0.01991   0.98506   0.24046   0.00000  Uiso   1.00
C347   C     0.31343   0.68161   0.25954   0.00000  Uiso   1.00
C348   C     0.02111   0.83922   0.34112   0.00000  Uiso   1.00
H349   H     0.06391   0.90585   0.06357   0.00000  Uiso   1.00
H350   H     0.17079   0.87529   0.28623   0.00000  Uiso   1.00
H351   H     0.03821   0.75062   0.12677   0.00000  Uiso   1.00
H352   H     0.29513   0.91605   0.37323   0.00000  Uiso   1.00
H353   H     0.08197   0.97537   0.19601   0.00000  Uiso   1.00
H354   H     0.25137   0.69129   0.30399   0.00000  Uiso   1.00
H355   H     0.26942   0.76082   0.43644   0.00000  Uiso   1.00
H356   H     0.23582   0.87019   0.11008   0.00000  Uiso   1.00
H357   H     0.09751   0.79648   0.38992   0.00000  Uiso   1.00
H358   H     0.32868   0.91544   0.49664   0.00000  Uiso   1.00
H359   H     0.00466   0.75123   0.00336   0.00000  Uiso   1.00
H360   H     0.15094   0.87651   0.09415   0.00000  Uiso   1.00
H361   H     0.18239   0.79016   0.40585   0.00000  Uiso   1.00
H362   H     0.16255   0.79138   0.21377   0.00000  Uiso   1.00
N363   N     0.14695   0.81883   0.23740   0.00000  Uiso   1.00
N364   N     0.18638   0.84784   0.26261   0.00000  Uiso   1.00
O365   O     0.29719   0.91298   0.25310   0.00000  Uiso   1.00
O366   O     0.28925   0.90777   0.40735   0.00000  Uiso   1.00
O367   O     0.06019   0.67076   0.20926   0.00000  Uiso   1.00
O368   O     0.27314   0.99590   0.29074   0.00000  Uiso   1.00
O369   O     0.03614   0.75369   0.24691   0.00000  Uiso   1.00
O370   O     0.05822   0.90368   0.24502   0.00000  Uiso   1.00
O371   O     0.27512   0.76298   0.25499   0.00000  Uiso   1.00
O372   O     0.30328   0.84063   0.32247   0.00000  Uiso   1.00
O373   O     0.03005   0.82603   0.17753   0.00000  Uiso   1.00
O374   O     0.06431   0.83134   0.31439   0.00000  Uiso   1.00
O375   O     0.26902   0.83533   0.18561   0.00000  Uiso   1.00
O376   O     0.04408   0.75889   0.09265   0.00000  Uiso   1.00
Zn377  Zn    0.27033   0.83954   0.25540   0.00000  Uiso   1.00
Zn378  Zn    0.06300   0.82713   0.24461   0.00000  Uiso   1.00
C379   C     0.34808   0.93140   0.24820   0.00000  Uiso   1.00
C380   C     0.64556   0.82745   0.15888   0.00000  Uiso   1.00
C381   C     0.36525   0.84813   0.39371   0.00000  Uiso   1.00
C382   C     0.63474   0.81854   0.10629   0.00000  Uiso   1.00
C383   C     0.35272   0.89089   0.47299   0.00000  Uiso   1.00
C384   C     0.64728   0.77578   0.02701   0.00000  Uiso   1.00
C385   C     0.33491   0.88194   0.42393   0.00000  Uiso   1.00
C386   C     0.66509   0.78473   0.07607   0.00000  Uiso   1.00
C387   C     0.41223   0.82530   0.41297   0.00000  Uiso   1.00
C388   C     0.58777   0.84137   0.08703   0.00000  Uiso   1.00
C389   C     0.43551   0.84053   0.45957   0.00000  Uiso   1.00
C390   C     0.65192   0.73526   0.25180   0.00000  Uiso   1.00
C391   C     0.56449   0.82614   0.04043   0.00000  Uiso   1.00
C392   C     0.40348   0.87178   0.49061   0.00000  Uiso   1.00
C393   C     0.59652   0.79488   0.00939   0.00000  Uiso   1.00
C394   C     0.48999   0.82611   0.47564   0.00000  Uiso   1.00
C395   C     0.51001   0.84056   0.02436   0.00000  Uiso   1.00
C396   C     0.47416   0.86751   0.05583   0.00000  Uiso   1.00
C397   C     0.52584   0.79915   0.44417   0.00000  Uiso   1.00
C398   C     0.42254   0.88385   0.03878   0.00000  Uiso   1.00
C399   C     0.57746   0.78282   0.46122   0.00000  Uiso   1.00
C400   C     0.35324   0.98506   0.24046   0.00000  Uiso   1.00
C401   C     0.64676   0.68161   0.25954   0.00000  Uiso   1.00
C402   C     0.35444   0.83922   0.34112   0.00000  Uiso   1.00
H403   H     0.39725   0.90585   0.06357   0.00000  Uiso   1.00
H404   H     0.50412   0.87529   0.28623   0.00000  Uiso   1.00
H405   H     0.37154   0.75062   0.12677   0.00000  Uiso   1.00
H406   H     0.62846   0.91605   0.37323   0.00000  Uiso   1.00
H407   H     0.41530   0.97537   0.19601   0.00000  Uiso   1.00
H408   H     0.58470   0.69129   0.30399   0.00000  Uiso   1.00
H409   H     0.60275   0.76082   0.43644   0.00000  Uiso   1.00
H410   H     0.56916   0.87019   0.11008   0.00000  Uiso   1.00
H411   H     0.43084   0.79648   0.38992   0.00000  Uiso   1.00
H412   H     0.66201   0.91544   0.49664   0.00000  Uiso   1.00
H413   H     0.33799   0.75123   0.00336   0.00000  Uiso   1.00
H414   H     0.48427   0.87651   0.09415   0.00000  Uiso   1.00
H415   H     0.51573   0.79016   0.40585   0.00000  Uiso   1.00
H416   H     0.49588   0.79138   0.21377   0.00000  Uiso   1.00
N417   N     0.48029   0.81883   0.23740   0.00000  Uiso   1.00
N418   N     0.51971   0.84784   0.26261   0.00000  Uiso   1.00
O419   O     0.63052   0.91298   0.25310   0.00000  Uiso   1.00
O420   O     0.62258   0.90777   0.40735   0.00000  Uiso   1.00
O421   O     0.39353   0.67076   0.20926   0.00000  Uiso   1.00
O422   O     0.60647   0.99590   0.29074   0.00000  Uiso   1.00
O423   O     0.36948   0.75369   0.24691   0.00000  Uiso   1.00
O424   O     0.39155   0.90368   0.24502   0.00000  Uiso   1.00
O425   O     0.60845   0.76298   0.25499   0.00000  Uiso   1.00
O426   O     0.63662   0.84063   0.32247   0.00000  Uiso   1.00
O427   O     0.36338   0.82603   0.17753   0.00000  Uiso   1.00
O428   O     0.39764   0.83134   0.31439   0.00000  Uiso   1.00
O429   O     0.60236   0.83533   0.18561   0.00000  Uiso   1.00
O430   O     0.37742   0.75889   0.09265   0.00000  Uiso   1.00
Zn431  Zn    0.60366   0.83954   0.25540   0.00000  Uiso   1.00
Zn432  Zn    0.39634   0.82713   0.24461   0.00000  Uiso   1.00
C433   C     0.68142   0.93140   0.24820   0.00000  Uiso   1.00
C434   C     0.97889   0.82745   0.15888   0.00000  Uiso   1.00
C435   C     0.69859   0.84813   0.39371   0.00000  Uiso   1.00
C436   C     0.96808   0.81854   0.10629   0.00000  Uiso   1.00
C437   C     0.68605   0.89089   0.47299   0.00000  Uiso   1.00
C438   C     0.98061   0.77578   0.02701   0.00000  Uiso   1.00
C439   C     0.66824   0.88194   0.42393   0.00000  Uiso   1.00
C440   C     0.99843   0.78473   0.07607   0.00000  Uiso   1.00
C441   C     0.74556   0.82530   0.41297   0.00000  Uiso   1.00
C442   C     0.92111   0.84137   0.08703   0.00000  Uiso   1.00
C443   C     0.76885   0.84053   0.45957   0.00000  Uiso   1.00
C444   C     0.98525   0.73526   0.25180   0.00000  Uiso   1.00
C445   C     0.89782   0.82614   0.04043   0.00000  Uiso   1.00
C446   C     0.73681   0.87178   0.49061   0.00000  Uiso   1.00
C447   C     0.92986   0.79488   0.00939   0.00000  Uiso   1.00
C448   C     0.82333   0.82611   0.47564   0.00000  Uiso   1.00
C449   C     0.84334   0.84056   0.02436   0.00000  Uiso   1.00
C450   C     0.80749   0.86751   0.05583   0.00000  Uiso   1.00
C451   C     0.85917   0.79915   0.44417   0.00000  Uiso   1.00
C452   C     0.75587   0.88385   0.03878   0.00000  Uiso   1.00
C453   C     0.91080   0.78282   0.46122   0.00000  Uiso   1.00
C454   C     0.68657   0.98506   0.24046   0.00000  Uiso   1.00
C455   C     0.98009   0.68161   0.25954   0.00000  Uiso   1.00
C456   C     0.68777   0.83922   0.34112   0.00000  Uiso   1.00
H457   H     0.73058   0.90585   0.06357   0.00000  Uiso   1.00
H458   H     0.83745   0.87529   0.28623   0.00000  Uiso   1.00
H459   H     0.70487   0.75062   0.12677   0.00000  Uiso   1.00
H460   H     0.96179   0.91605   0.37323   0.00000  Uiso   1.00
H461   H     0.74863   0.97537   0.19601   0.00000  Uiso   1.00
H462   H     0.91803   0.69129   0.30399   0.00000  Uiso   1.00
H463   H     0.93609   0.76082   0.43644   0.00000  Uiso   1.00
H464   H     0.90249   0.87019   0.11008   0.00000  Uiso   1.00
H465   H     0.76418   0.79648   0.38992   0.00000  Uiso   1.00
H466   H     0.99534   0.91544   0.49664   0.00000  Uiso   1.00
H467   H     0.67132   0.75123   0.00336   0.00000  Uiso   1.00
H468   H     0.81761   0.87651   0.09415   0.00000  Uiso   1.00
H469   H     0.84906   0.79016   0.40585   0.00000  Uiso   1.00
H470   H     0.82921   0.79138   0.21377   0.00000  Uiso   1.00
N471   N     0.81362   0.81883   0.23740   0.00000  Uiso   1.00
N472   N     0.85305   0.84784   0.26261   0.00000  Uiso   1.00
O473   O     0.96386   0.91298   0.25310   0.00000  Uiso   1.00
O474   O     0.95592   0.90777   0.40735   0.00000  Uiso   1.00
O475   O     0.72686   0.67076   0.20926   0.00000  Uiso   1.00
O476   O     0.93981   0.99590   0.29074   0.00000  Uiso   1.00
O477   O     0.70281   0.75369   0.24691   0.00000  Uiso   1.00
O478   O     0.72488   0.90368   0.24502   0.00000  Uiso   1.00
O479   O     0.94178   0.76298   0.25499   0.00000  Uiso   1.00
O480   O     0.96995   0.84063   0.32247   0.00000  Uiso   1.00
O481   O     0.69672   0.82603   0.17753   0.00000  Uiso   1.00
O482   O     0.73098   0.83134   0.31439   0.00000  Uiso   1.00
O483   O     0.93569   0.83533   0.18561   0.00000  Uiso   1.00
O484   O     0.71075   0.75889   0.09265   0.00000  Uiso   1.00
Zn485  Zn    0.93700   0.83954   0.25540   0.00000  Uiso   1.00
Zn486  Zn    0.72967   0.82713   0.24461   0.00000  Uiso   1.00
C487   C     0.01475   0.26474   0.74820   0.00000  Uiso   1.00
C488   C     0.31223   0.16078   0.65888   0.00000  Uiso   1.00
C489   C     0.03192   0.18146   0.89371   0.00000  Uiso   1.00
C490   C     0.30141   0.15187   0.60629   0.00000  Uiso   1.00
C491   C     0.01939   0.22422   0.97299   0.00000  Uiso   1.00
C492   C     0.31395   0.10911   0.52701   0.00000  Uiso   1.00
C493   C     0.00157   0.21527   0.92393   0.00000  Uiso   1.00
C494   C     0.33176   0.11806   0.57607   0.00000  Uiso   1.00
C495   C     0.07889   0.15863   0.91297   0.00000  Uiso   1.00
C496   C     0.25444   0.17470   0.58703   0.00000  Uiso   1.00
C497   C     0.10218   0.17386   0.95957   0.00000  Uiso   1.00
C498   C     0.31858   0.06860   0.75180   0.00000  Uiso   1.00
C499   C     0.23115   0.15947   0.54043   0.00000  Uiso   1.00
C500   C     0.07014   0.20512   0.99061   0.00000  Uiso   1.00
C501   C     0.26319   0.12822   0.50939   0.00000  Uiso   1.00
C502   C     0.15666   0.15944   0.97564   0.00000  Uiso   1.00
C503   C     0.17667   0.17389   0.52436   0.00000  Uiso   1.00
C504   C     0.14083   0.20085   0.55583   0.00000  Uiso   1.00
C505   C     0.19251   0.13249   0.94417   0.00000  Uiso   1.00
C506   C     0.08920   0.21718   0.53878   0.00000  Uiso   1.00
C507   C     0.24413   0.11615   0.96122   0.00000  Uiso   1.00
C508   C     0.01991   0.31839   0.74046   0.00000  Uiso   1.00
C509   C     0.31343   0.01494   0.75954   0.00000  Uiso   1.00
C510   C     0.02111   0.17255   0.84112   0.00000  Uiso   1.00
H511   H     0.06391   0.23918   0.56357   0.00000  Uiso   1.00
H512   H     0.17079   0.20862   0.78623   0.00000  Uiso   1.00
H513   H     0.03821   0.08395   0.62677   0.00000  Uiso   1.00
H514   H     0.29513   0.24938   0.87323   0.00000  Uiso   1.00
H515   H     0.08197   0.30871   0.69601   0.00000  Uiso   1.00
H516   H     0.25137   0.02463   0.80399   0.00000  Uiso   1.00
H517   H     0.26942   0.09415   0.93644   0.00000  Uiso   1.00
H518   H     0.23582   0.20352   0.61008   0.00000  Uiso   1.00
H519   H     0.09751   0.12981   0.88992   0.00000  Uiso   1.00
H520   H     0.32868   0.24877   0.99664   0.00000  Uiso   1.00
H521   H     0.00466   0.08456   0.50336   0.00000  Uiso   1.00
H522   H     0.15094   0.20984   0.59415   0.00000  Uiso   1.00
H523   H     0.18239   0.12349   0.90585   0.00000  Uiso   1.00
H524   H     0.16255   0.12471   0.71377   0.00000  Uiso   1.00
N525   N     0.14695   0.15216   0.73740   0.00000  Uiso   1.00
N526   N     0.18638   0.18117   0.76261   0.00000  Uiso   1.00
O527   O     0.29719   0.24631   0.75310   0.00000  Uiso   1.00
O528   O     0.28925   0.24111   0.90735   0.00000  Uiso   1.00
O529   O     0.06019   0.00410   0.70926   0.00000  Uiso   1.00
O530   O     0.27314   0.32924   0.79074   0.00000  Uiso   1.00
O531   O     0.03614   0.08702   0.74691   0.00000  Uiso   1.00
O532   O     0.05822   0.23702   0.74502   0.00000  Uiso   1.00
O533   O     0.27512   0.09632   0.75499   0.00000  Uiso   1.00
O534   O     0.30328   0.17397   0.82247   0.00000  Uiso   1.00
O535   O     0.03005   0.15937   0.67753   0.00000  Uiso   1.00
O536   O     0.06431   0.16467   0.81439   0.00000  Uiso   1.00
O537   O     0.26902   0.16866   0.68561   0.00000  Uiso   1.00
O538   O     0.04408   0.09223   0.59265   0.00000  Uiso   1.00
Zn539  Zn    0.27033   0.17287   0.75540   0.00000  Uiso   1.00
Zn540  Zn    0.06300   0.16046   0.74461   0.00000  Uiso   1.00
C541   C     0.34808   0.26474   0.74820   0.00000  Uiso   1.00
C542   C     0.64556   0.16078   0.65888   0.00000  Uiso   1.00
C543   C     0.36525   0.18146   0.89371   0.00000  Uiso   1.00
C544   C     0.63474   0.15187   0.60629   0.00000  Uiso   1.00
C545   C     0.35272   0.22422   0.97299   0.00000  Uiso   1.00
C546   C     0.64728   0.10911   0.52701   0.00000  Uiso   1.00
C547   C     0.33491   0.21527   0.92393   0.00000  Uiso   1.00
C548   C     0.66509   0.11806   0.57607   0.00000  Uiso   1.00
C549   C     0.41223   0.15863   0.91297   0.00000  Uiso   1.00
C550   C     0.58777   0.17470   0.58703   0.00000  Uiso   1.00
C551   C     0.43551   0.17386   0.95957   0.00000  Uiso   1.00
C552   C     0.65192   0.06860   0.75180   0.00000  Uiso   1.00
C553   C     0.56449   0.15947   0.54043   0.00000  Uiso   1.00
C554   C     0.40348   0.20512   0.99061   0.00000  Uiso   1.00
C555   C     0.59652   0.12822   0.50939   0.00000  Uiso   1.00
C556   C     0.48999   0.15944   0.97564   0.00000  Uiso   1.00
C557   C     0.51001   0.17389   0.52436   0.00000  Uiso   1.00
C558   C     0.47416   0.20085   0.55583   0.00000  Uiso   1.00
C559   C     0.52584   0.13249   0.94417   0.00000  Uiso   1.00
C560   C     0.42254   0.21718   0.53878   0.00000  Uiso   1.00
C561   C     0.57746   0.11615   0.96122   0.00000  Uiso   1.00
C562   C     0.35324   0.31839   0.74046   0.00000  Uiso   1.00
C563   C     0.64676   0.01494   0.75954   0.00000  Uiso   1.00
C564   C     0.35444   0.17255   0.84112   0.00000  Uiso   1.00
H565   H     0.39725   0.23918   0.56357   0.00000  Uiso   1.00
H566   H     0.50412   0.20862   0.78623   0.00000  Uiso   1.00
H567   H     0.37154   0.08395   0.62677   0.00000  Uiso   1.00
H568   H     0.62846   0.24938   0.87323   0.00000  Uiso   1.00
H569   H     0.41530   0.30871   0.69601   0.00000  Uiso   1.00
H570   H     0.58470   0.02463   0.80399   0.00000  Uiso   1.00
H571   H     0.60275   0.09415   0.93644   0.00000  Uiso   1.00
H572   H     0.56916   0.20352   0.61008   0.00000  Uiso   1.00
H573   H     0.43084   0.12981   0.88992   0.00000  Uiso   1.00
H574   H     0.66201   0.24877   0.99664   0.00000  Uiso   1.00
H575   H     0.33799   0.08456   0.50336   0.00000  Uiso   1.00
H576   H     0.48427   0.20984   0.59415   0.00000  Uiso   1.00
H577   H     0.51573   0.12349   0.90585   0.00000  Uiso   1.00
H578   H     0.49588   0.12471   0.71377   0.00000  Uiso   1.00
N579   N     0.48029   0.15216   0.73740   0.00000  Uiso   1.00
N580   N     0.51971   0.18117   0.76261   0.00000  Uiso   1.00
O581   O     0.63052   0.24631   0.75310   0.00000  Uiso   1.00
O582   O     0.62258   0.24111   0.90735   0.00000  Uiso   1.00
O583   O     0.39353   0.00410   0.70926   0.00000  Uiso   1.00
O584   O     0.60647   0.32924   0.79074   0.00000  Uiso   1.00
O585   O     0.36948   0.08702   0.74691   0.00000  Uiso   1.00
O586   O     0.39155   0.23702   0.74502   0.00000  Uiso   1.00
O587   O     0.60845   0.09632   0.75499   0.00000  Uiso   1.00
O588   O     0.63662   0.17397   0.82247   0.00000  Uiso   1.00
O589   O     0.36338   0.15937   0.67753   0.00000  Uiso   1.00
O590   O     0.39764   0.16467   0.81439   0.00000  Uiso   1.00
O591   O     0.60236   0.16866   0.68561   0.00000  Uiso   1.00
O592   O     0.37742   0.09223   0.59265   0.00000  Uiso   1.00
Zn593  Zn    0.60366   0.17287   0.75540   0.00000  Uiso   1.00
Zn594  Zn    0.39634   0.16046   0.74461   0.00000  Uiso   1.00
C595   C     0.68142   0.26474   0.74820   0.00000  Uiso   1.00
C596   C     0.97889   0.16078   0.65888   0.00000  Uiso   1.00
C597   C     0.69859   0.18146   0.89371   0.00000  Uiso   1.00
C598   C     0.96808   0.15187   0.60629   0.00000  Uiso   1.00
C599   C     0.68605   0.22422   0.97299   0.00000  Uiso   1.00
C600   C     0.98061   0.10911   0.52701   0.00000  Uiso   1.00
C601   C     0.66824   0.21527   0.92393   0.00000  Uiso   1.00
C602   C     0.99843   0.11806   0.57607   0.00000  Uiso   1.00
C603   C     0.74556   0.15863   0.91297   0.00000  Uiso   1.00
C604   C     0.92111   0.17470   0.58703   0.00000  Uiso   1.00
C605   C     0.76885   0.17386   0.95957   0.00000  Uiso   1.00
C606   C     0.98525   0.06860   0.75180   0.00000  Uiso   1.00
C607   C     0.89782   0.15947   0.54043   0.00000  Uiso   1.00
C608   C     0.73681   0.20512   0.99061   0.00000  Uiso   1.00
C609   C     0.92986   0.12822   0.50939   0.00000  Uiso   1.00
C610   C     0.82333   0.15944   0.97564   0.00000  Uiso   1.00
C611   C     0.84334   0.17389   0.52436   0.00000  Uiso   1.00
C612   C     0.80749   0.20085   0.55583   0.00000  Uiso   1.00
C613   C     0.85917   0.13249   0.94417   0.00000  Uiso   1.00
C614   C     0.75587   0.21718   0.53878   0.00000  Uiso   1.00
C615   C     0.91080   0.11615   0.96122   0.00000  Uiso   1.00
C616   C     0.68657   0.31839   0.74046   0.00000  Uiso   1.00
C617   C     0.98009   0.01494   0.75954   0.00000  Uiso   1.00
C618   C     0.68777   0.17255   0.84112   0.00000  Uiso   1.00
H619   H     0.73058   0.23918   0.56357   0.00000  Uiso   1.00
H620   H     0.83745   0.20862   0.78623   0.00000  Uiso   1.00
H621   H     0.70487   0.08395   0.62677   0.00000  Uiso   1.00
H622   H     0.96179   0.24938   0.87323   0.00000  Uiso   1.00
H623   H     0.74863   0.30871   0.69601   0.00000  Uiso   1.00
H624   H     0.91803   0.02463   0.80399   0.00000  Uiso   1.00
H625   H     0.93609   0.09415   0.93644   0.00000  Uiso   1.00
H626   H     0.90249   0.20352   0.61008   0.00000  Uiso   1.00
H627   H     0.76418   0.12981   0.88992   0.00000  Uiso   1.00
H628   H     0.99534   0.24877   0.99664   0.00000  Uiso   1.00
H629   H     0.67132   0.08456   0.50336   0.00000  Uiso   1.00
H630   H     0.81761   0.20984   0.59415   0.00000  Uiso   1.00
H631   H     0.84906   0.12349   0.90585   0.00000  Uiso   1.00
H632   H     0.82921   0.12471   0.71377   0.00000  Uiso   1.00
N633   N     0.81362   0.15216   0.73740   0.00000  Uiso   1.00
N634   N     0.85305   0.18117   0.76261   0.00000  Uiso   1.00
O635   O     0.96386   0.24631   0.75310   0.00000  Uiso   1.00
O636   O     0.95592   0.24111   0.90735   0.00000  Uiso   1.00
O637   O     0.72686   0.00410   0.70926   0.00000  Uiso   1.00
O638   O     0.93981   0.32924   0.79074   0.00000  Uiso   1.00
O639   O     0.70281   0.08702   0.74691   0.00000  Uiso   1.00
O640   O     0.72488   0.23702   0.74502   0.00000  Uiso   1.00
O641   O     0.94178   0.09632   0.75499   0.00000  Uiso   1.00
O642   O     0.96995   0.17397   0.82247   0.00000  Uiso   1.00
O643   O     0.69672   0.15937   0.67753   0.00000  Uiso   1.00
O644   O     0.73098   0.16467   0.81439   0.00000  Uiso   1.00
O645   O     0.93569   0.16866   0.68561   0.00000  Uiso   1.00
O646   O     0.71075   0.09223   0.59265   0.00000  Uiso   1.00
Zn647  Zn    0.93700   0.17287   0.75540   0.00000  Uiso   1.00
Zn648  Zn    0.72967   0.16046   0.74461   0.00000  Uiso   1.00
C649   C     0.01475   0.59807   0.74820   0.00000  Uiso   1.00
C650   C     0.31223   0.49411   0.65888   0.00000  Uiso   1.00
C651   C     0.03192   0.51480   0.89371   0.00000  Uiso   1.00
C652   C     0.30141   0.48520   0.60629   0.00000  Uiso   1.00
C653   C     0.01939   0.55756   0.97299   0.00000  Uiso   1.00
C654   C     0.31395   0.44244   0.52701   0.00000  Uiso   1.00
C655   C     0.00157   0.54860   0.92393   0.00000  Uiso   1.00
C656   C     0.33176   0.45140   0.57607   0.00000  Uiso   1.00
C657   C     0.07889   0.49197   0.91297   0.00000  Uiso   1.00
C658   C     0.25444   0.50803   0.58703   0.00000  Uiso   1.00
C659   C     0.10218   0.50720   0.95957   0.00000  Uiso   1.00
C660   C     0.31858   0.40193   0.75180   0.00000  Uiso   1.00
C661   C     0.23115   0.49280   0.54043   0.00000  Uiso   1.00
C662   C     0.07014   0.53845   0.99061   0.00000  Uiso   1.00
C663   C     0.26319   0.46155   0.50939   0.00000  Uiso   1.00
C664   C     0.15666   0.49278   0.97564   0.00000  Uiso   1.00
C665   C     0.17667   0.50722   0.52436   0.00000  Uiso   1.00
C666   C     0.14083   0.53418   0.55583   0.00000  Uiso   1.00
C667   C     0.19251   0.46582   0.94417   0.00000  Uiso   1.00
C668   C     0.08920   0.55052   0.53878   0.00000  Uiso   1.00
C669   C     0.24413   0.44948   0.96122   0.00000  Uiso   1.00
C670   C     0.01991   0.65172   0.74046   0.00000  Uiso   1.00
C671   C     0.31343   0.34828   0.75954   0.00000  Uiso   1.00
C672   C     0.02111   0.50589   0.84112   0.00000  Uiso   1.00
H673   H     0.06391   0.57251   0.56357   0.00000  Uiso   1.00
H674   H     0.17079   0.54196   0.78623   0.00000  Uiso   1.00
H675   H     0.03821   0.41728   0.62677   0.00000  Uiso   1.00
H676   H     0.29513   0.58272   0.87323   0.00000  Uiso   1.00
H677   H     0.08197   0.64204   0.69601   0.00000  Uiso   1.00
H678   H     0.25137   0.35796   0.80399   0.00000  Uiso   1.00
H679   H     0.26942   0.42749   0.93644   0.00000  Uiso   1.00
H680   H     0.23582   0.53685   0.61008   0.00000  Uiso   1.00
H681   H     0.09751   0.46315   0.88992   0.00000  Uiso   1.00
H682   H     0.32868   0.58211   0.99664   0.00000  Uiso   1.00
H683   H     0.00466   0.41789   0.50336   0.00000  Uiso   1.00
H684   H     0.15094   0.54318   0.59415   0.00000  Uiso   1.00
H685   H     0.18239   0.45682   0.90585   0.00000  Uiso   1.00
H686   H     0.16255   0.45804   0.71377   0.00000  Uiso   1.00
N687   N     0.14695   0.48550   0.73740   0.00000  Uiso   1.00
N688   N     0.18638   0.51450   0.76261   0.00000  Uiso   1.00
O689   O     0.29719   0.57964   0.75310   0.00000  Uiso   1.00
O690   O     0.28925   0.57444   0.90735   0.00000  Uiso   1.00
O691   O     0.06019   0.33743   0.70926   0.00000  Uiso   1.00
O692   O     0.27314   0.66257   0.79074   0.00000  Uiso   1.00
O693   O     0.03614   0.42036   0.74691   0.00000  Uiso   1.00
O694   O     0.05822   0.57035   0.74502   0.00000  Uiso   1.00
O695   O     0.27512   0.42965   0.75499   0.00000  Uiso   1.00
O696   O     0.30328   0.50730   0.82247   0.00000  Uiso   1.00
O697   O     0.03005   0.49270   0.67753   0.00000  Uiso   1.00
O698   O     0.06431   0.49801   0.81439   0.00000  Uiso   1.00
O699   O     0.26902   0.50199   0.68561   0.00000  Uiso   1.00
O700   O     0.04408   0.42556   0.59265   0.00000  Uiso   1.00
Zn701  Zn    0.27033   0.50621   0.75540   0.00000  Uiso   1.00
Zn702  Zn    0.06300   0.49379   0.74461   0.00000  Uiso   1.00
C703   C     0.34808   0.59807   0.74820   0.00000  Uiso   1.00
C704   C     0.64556   0.49411   0.65888   0.00000  Uiso   1.00
C705   C     0.36525   0.51480   0.89371   0.00000  Uiso   1.00
C706   C     0.63474   0.48520   0.60629   0.00000  Uiso   1.00
C707   C     0.35272   0.55756   0.97299   0.00000  Uiso   1.00
C708   C     0.64728   0.44244   0.52701   0.00000  Uiso   1.00
C709   C     0.33491   0.54860   0.92393   0.00000  Uiso   1.00
C710   C     0.66509   0.45140   0.57607   0.00000  Uiso   1.00
C711   C     0.41223   0.49197   0.91297   0.00000  Uiso   1.00
C712   C     0.58777   0.50803   0.58703   0.00000  Uiso   1.00
C713   C     0.43551   0.50720   0.95957   0.00000  Uiso   1.00
C714   C     0.65192   0.40193   0.75180   0.00000  Uiso   1.00
C715   C     0.56449   0.49280   0.54043   0.00000  Uiso   1.00
C716   C     0.40348   0.53845   0.99061   0.00000  Uiso   1.00
C717   C     0.59652   0.46155   0.50939   0.00000  Uiso   1.00
C718   C     0.48999   0.49278   0.97564   0.00000  Uiso   1.00
C719   C     0.51001   0.50722   0.52436   0.00000  Uiso   1.00
C720   C     0.47416   0.53418   0.55583   0.00000  Uiso   1.00
C721   C     0.52584   0.46582   0.94417   0.00000  Uiso   1.00
C722   C     0.42254   0.55052   0.53878   0.00000  Uiso   1.00
C723   C     0.57746   0.44948   0.96122   0.00000  Uiso   1.00
C724   C     0.35324   0.65172   0.74046   0.00000  Uiso   1.00
C725   C     0.64676   0.34828   0.75954   0.00000  Uiso   1.00
C726   C     0.35444   0.50589   0.84112   0.00000  Uiso   1.00
H727   H     0.39725   0.57251   0.56357   0.00000  Uiso   1.00
H728   H     0.50412   0.54196   0.78623   0.00000  Uiso   1.00
H729   H     0.37154   0.41728   0.62677   0.00000  Uiso   1.00
H730   H     0.62846   0.58272   0.87323   0.00000  Uiso   1.00
H731   H     0.41530   0.64204   0.69601   0.00000  Uiso   1.00
H732   H     0.58470   0.35796   0.80399   0.00000  Uiso   1.00
H733   H     0.60275   0.42749   0.93644   0.00000  Uiso   1.00
H734   H     0.56916   0.53685   0.61008   0.00000  Uiso   1.00
H735   H     0.43084   0.46315   0.88992   0.00000  Uiso   1.00
H736   H     0.66201   0.58211   0.99664   0.00000  Uiso   1.00
H737   H     0.33799   0.41789   0.50336   0.00000  Uiso   1.00
H738   H     0.48427   0.54318   0.59415   0.00000  Uiso   1.00
H739   H     0.51573   0.45682   0.90585   0.00000  Uiso   1.00
H740   H     0.49588   0.45804   0.71377   0.00000  Uiso   1.00
N741   N     0.48029   0.48550   0.73740   0.00000  Uiso   1.00
N742   N     0.51971   0.51450   0.76261   0.00000  Uiso   1.00
O743   O     0.63052   0.57964   0.75310   0.00000  Uiso   1.00
O744   O     0.62258   0.57444   0.90735   0.00000  Uiso   1.00
O745   O     0.39353   0.33743   0.70926   0.00000  Uiso   1.00
O746   O     0.60647   0.66257   0.79074   0.00000  Uiso   1.00
O747   O     0.36948   0.42036   0.74691   0.00000  Uiso   1.00
O748   O     0.39155   0.57035   0.74502   0.00000  Uiso   1.00
O749   O     0.60845   0.42965   0.75499   0.00000  Uiso   1.00
O750   O     0.63662   0.50730   0.82247   0.00000  Uiso   1.00
O751   O     0.36338   0.49270   0.67753   0.00000  Uiso   1.00
O752   O     0.39764   0.49801   0.81439   0.00000  Uiso   1.00
O753   O     0.60236   0.50199   0.68561   0.00000  Uiso   1.00
O754   O     0.37742   0.42556   0.59265   0.00000  Uiso   1.00
Zn755  Zn    0.60366   0.50621   0.75540   0.00000  Uiso   1.00
Zn756  Zn    0.39634   0.49379   0.74461   0.00000  Uiso   1.00
C757   C     0.68142   0.59807   0.74820   0.00000  Uiso   1.00
C758   C     0.97889   0.49411   0.65888   0.00000  Uiso   1.00
C759   C     0.69859   0.51480   0.89371   0.00000  Uiso   1.00
C760   C     0.96808   0.48520   0.60629   0.00000  Uiso   1.00
C761   C     0.68605   0.55756   0.97299   0.00000  Uiso   1.00
C762   C     0.98061   0.44244   0.52701   0.00000  Uiso   1.00
C763   C     0.66824   0.54860   0.92393   0.00000  Uiso   1.00
C764   C     0.99843   0.45140   0.57607   0.00000  Uiso   1.00
C765   C     0.74556   0.49197   0.91297   0.00000  Uiso   1.00
C766   C     0.92111   0.50803   0.58703   0.00000  Uiso   1.00
C767   C     0.76885   0.50720   0.95957   0.00000  Uiso   1.00
C768   C     0.98525   0.40193   0.75180   0.00000  Uiso   1.00
C769   C     0.89782   0.49280   0.54043   0.00000  Uiso   1.00
C770   C     0.73681   0.53845   0.99061   0.00000  Uiso   1.00
C771   C     0.92986   0.46155   0.50939   0.00000  Uiso   1.00
C772   C     0.82333   0.49278   0.97564   0.00000  Uiso   1.00
C773   C     0.84334   0.50722   0.52436   0.00000  Uiso   1.00
C774   C     0.80749   0.53418   0.55583   0.00000  Uiso   1.00
C775   C     0.85917   0.46582   0.94417   0.00000  Uiso   1.00
C776   C     0.75587   0.55052   0.53878   0.00000  Uiso   1.00
C777   C     0.91080   0.44948   0.96122   0.00000  Uiso   1.00
C778   C     0.68657   0.65172   0.74046   0.00000  Uiso   1.00
C779   C     0.98009   0.34828   0.75954   0.00000  Uiso   1.00
C780   C     0.68777   0.50589   0.84112   0.00000  Uiso   1.00
H781   H     0.73058   0.57251   0.56357   0.00000  Uiso   1.00
H782   H     0.83745   0.54196   0.78623   0.00000  Uiso   1.00
H783   H     0.70487   0.41728   0.62677   0.00000  Uiso   1.00
H784   H     0.96179   0.58272   0.87323   0.00000  Uiso   1.00
H785   H     0.74863   0.64204   0.69601   0.00000  Uiso   1.00
H786   H     0.91803   0.35796   0.80399   0.00000  Uiso   1.00
H787   H     0.93609   0.42749   0.93644   0.00000  Uiso   1.00
H788   H     0.90249   0.53685   0.61008   0.00000  Uiso   1.00
H789   H     0.76418   0.46315   0.88992   0.00000  Uiso   1.00
H790   H     0.99534   0.58211   0.99664   0.00000  Uiso   1.00
H791   H     0.67132   0.41789   0.50336   0.00000  Uiso   1.00
H792   H     0.81761   0.54318   0.59415   0.00000  Uiso   1.00
H793   H     0.84906   0.45682   0.90585   0.00000  Uiso   1.00
H794   H     0.82921   0.45804   0.71377   0.00000  Uiso   1.00
N795   N     0.81362   0.48550   0.73740   0.00000  Uiso   1.00
N796   N     0.85305   0.51450   0.76261   0.00000  Uiso   1.00
O797   O     0.96386   0.57964   0.75310   0.00000  Uiso   1.00
O798   O     0.95592   0.57444   0.90735   0.00000  Uiso   1.00
O799   O     0.72686   0.33743   0.70926   0.00000  Uiso   1.00
O800   O     0.93981   0.66257   0.79074   0.00000  Uiso   1.00
O801   O     0.70281   0.42036   0.74691   0.00000  Uiso   1.00
O802   O     0.72488   0.57035   0.74502   0.00000  Uiso   1.00
O803   O     0.94178   0.42965   0.75499   0.00000  Uiso   1.00
O804   O     0.96995   0.50730   0.82247   0.00000  Uiso   1.00
O805   O     0.69672   0.49270   0.67753   0.00000  Uiso   1.00
O806   O     0.73098   0.49801   0.81439   0.00000  Uiso   1.00
O807   O     0.93569   0.50199   0.68561   0.00000  Uiso   1.00
O808   O     0.71075   0.42556   0.59265   0.00000  Uiso   1.00
Zn809  Zn    0.93700   0.50621   0.75540   0.00000  Uiso   1.00
Zn810  Zn    0.72967   0.49379   0.74461   0.00000  Uiso   1.00
C811   C     0.01475   0.93140   0.74820   0.00000  Uiso   1.00
C812   C     0.31223   0.82745   0.65888   0.00000  Uiso   1.00
C813   C     0.03192   0.84813   0.89371   0.00000  Uiso   1.00
C814   C     0.30141   0.81854   0.60629   0.00000  Uiso   1.00
C815   C     0.01939   0.89089   0.97299   0.00000  Uiso   1.00
C816   C     0.31395   0.77578   0.52701   0.00000  Uiso   1.00
C817   C     0.00157   0.88194   0.92393   0.00000  Uiso   1.00
C818   C     0.33176   0.78473   0.57607   0.00000  Uiso   1.00
C819   C     0.07889   0.82530   0.91297   0.00000  Uiso   1.00
C820   C     0.25444   0.84137   0.58703   0.00000  Uiso   1.00
C821   C     0.10218   0.84053   0.95957   0.00000  Uiso   1.00
C822   C     0.31858   0.73526   0.75180   0.00000  Uiso   1.00
C823   C     0.23115   0.82614   0.54043   0.00000  Uiso   1.00
C824   C     0.07014   0.87178   0.99061   0.00000  Uiso   1.00
C825   C     0.26319   0.79488   0.50939   0.00000  Uiso   1.00
C826   C     0.15666   0.82611   0.97564   0.00000  Uiso   1.00
C827   C     0.17667   0.84056   0.52436   0.00000  Uiso   1.00
C828   C     0.14083   0.86751   0.55583   0.00000  Uiso   1.00
C829   C     0.19251   0.79915   0.94417   0.00000  Uiso   1.00
C830   C     0.08920   0.88385   0.53878   0.00000  Uiso   1.00
C831   C     0.24413   0.78282   0.96122   0.00000  Uiso   1.00
C832   C     0.01991   0.98506   0.74046   0.00000  Uiso   1.00
C833   C     0.31343   0.68161   0.75954   0.00000  Uiso   1.00
C834   C     0.02111   0.83922   0.84112   0.00000  Uiso   1.00
H835   H     0.06391   0.90585   0.56357   0.00000  Uiso   1.00
H836   H     0.17079   0.87529   0.78623   0.00000  Uiso   1.00
H837   H     0.03821   0.75062   0.62677   0.00000  Uiso   1.00
H838   H     0.29513   0.91605   0.87323   0.00000  Uiso   1.00
H839   H     0.08197   0.97537   0.69601   0.00000  Uiso   1.00
H840   H     0.25137   0.69129   0.80399   0.00000  Uiso   1.00
H841   H     0.26942   0.76082   0.93644   0.00000  Uiso   1.00
H842   H     0.23582   0.87019   0.61008   0.00000  Uiso   1.00
H843   H     0.09751   0.79648   0.88992   0.00000  Uiso   1.00
H844   H     0.32868   0.91544   0.99664   0.00000  Uiso   1.00
H845   H     0.00466   0.75123   0.50336   0.00000  Uiso   1.00
H846   H     0.15094   0.87651   0.59415   0.00000  Uiso   1.00
H847   H     0.18239   0.79016   0.90585   0.00000  Uiso   1.00
H848   H     0.16255   0.79138   0.71377   0.00000  Uiso   1.00
N849   N     0.14695   0.81883   0.73740   0.00000  Uiso   1.00
N850   N     0.18638   0.84784   0.76261   0.00000  Uiso   1.00
O851   O     0.29719   0.91298   0.75310   0.00000  Uiso   1.00
O852   O     0.28925   0.90777   0.90735   0.00000  Uiso   1.00
O853   O     0.06019   0.67076   0.70926   0.00000  Uiso   1.00
O854   O     0.27314   0.99590   0.79074   0.00000  Uiso   1.00
O855   O     0.03614   0.75369   0.74691   0.00000  Uiso   1.00
O856   O     0.05822   0.90368   0.74502   0.00000  Uiso   1.00
O857   O     0.27512   0.76298   0.75499   0.00000  Uiso   1.00
O858   O     0.30328   0.84063   0.82247   0.00000  Uiso   1.00
O859   O     0.03005   0.82603   0.67753   0.00000  Uiso   1.00
O860   O     0.06431   0.83134   0.81439   0.00000  Uiso   1.00
O861   O     0.26902   0.83533   0.68561   0.00000  Uiso   1.00
O862   O     0.04408   0.75889   0.59265   0.00000  Uiso   1.00
Zn863  Zn    0.27033   0.83954   0.75540   0.00000  Uiso   1.00
Zn864  Zn    0.06300   0.82713   0.74461   0.00000  Uiso   1.00
C865   C     0.34808   0.93140   0.74820   0.00000  Uiso   1.00
C866   C     0.64556   0.82745   0.65888   0.00000  Uiso   1.00
C867   C     0.36525   0.84813   0.89371   0.00000  Uiso   1.00
C868   C     0.63474   0.81854   0.60629   0.00000  Uiso   1.00
C869   C     0.35272   0.89089   0.97299   0.00000  Uiso   1.00
C870   C     0.64728   0.77578   0.52701   0.00000  Uiso   1.00
C871   C     0.33491   0.88194   0.92393   0.00000  Uiso   1.00
C872   C     0.66509   0.78473   0.57607   0.00000  Uiso   1.00
C873   C     0.41223   0.82530   0.91297   0.00000  Uiso   1.00
C874   C     0.58777   0.84137   0.58703   0.00000  Uiso   1.00
C875   C     0.43551   0.84053   0.95957   0.00000  Uiso   1.00
C876   C     0.65192   0.73526   0.75180   0.00000  Uiso   1.00
C877   C     0.56449   0.82614   0.54043   0.00000  Uiso   1.00
C878   C     0.40348   0.87178   0.99061   0.00000  Uiso   1.00
C879   C     0.59652   0.79488   0.50939   0.00000  Uiso   1.00
C880   C     0.48999   0.82611   0.97564   0.00000  Uiso   1.00
C881   C     0.51001   0.84056   0.52436   0.00000  Uiso   1.00
C882   C     0.47416   0.86751   0.55583   0.00000  Uiso   1.00
C883   C     0.52584   0.79915   0.94417   0.00000  Uiso   1.00
C884   C     0.42254   0.88385   0.53878   0.00000  Uiso   1.00
C885   C     0.57746   0.78282   0.96122   0.00000  Uiso   1.00
C886   C     0.35324   0.98506   0.74046   0.00000  Uiso   1.00
C887   C     0.64676   0.68161   0.75954   0.00000  Uiso   1.00
C888   C     0.35444   0.83922   0.84112   0.00000  Uiso   1.00
H889   H     0.39725   0.90585   0.56357   0.00000  Uiso   1.00
H890   H     0.50412   0.87529   0.78623   0.00000  Uiso   1.00
H891   H     0.37154   0.75062   0.62677   0.00000  Uiso   1.00
H892   H     0.62846   0.91605   0.87323   0.00000  Uiso   1.00
H893   H     0.41530   0.97537   0.69601   0.00000  Uiso   1.00
H894   H     0.58470   0.69129   0.80399   0.00000  Uiso   1.00
H895   H     0.60275   0.76082   0.93644   0.00000  Uiso   1.00
H896   H     0.56916   0.87019   0.61008   0.00000  Uiso   1.00
H897   H     0.43084   0.79648   0.88992   0.00000  Uiso   1.00
H898   H     0.66201   0.91544   0.99664   0.00000  Uiso   1.00
H899   H     0.33799   0.75123   0.50336   0.00000  Uiso   1.00
H900   H     0.48427   0.87651   0.59415   0.00000  Uiso   1.00
H901   H     0.51573   0.79016   0.90585   0.00000  Uiso   1.00
H902   H     0.49588   0.79138   0.71377   0.00000  Uiso   1.00
N903   N     0.48029   0.81883   0.73740   0.00000  Uiso   1.00
N904   N     0.51971   0.84784   0.76261   0.00000  Uiso   1.00
O905   O     0.63052   0.91298   0.75310   0.00000  Uiso   1.00
O906   O     0.62258   0.90777   0.90735   0.00000  Uiso   1.00
O907   O     0.39353   0.67076   0.70926   0.00000  Uiso   1.00
O908   O     0.60647   0.99590   0.79074   0.00000  Uiso   1.00
O909   O     0.36948   0.75369   0.74691   0.00000  Uiso   1.00
O910   O     0.39155   0.90368   0.74502   0.00000  Uiso   1.00
O911   O     0.60845   0.76298   0.75499   0.00000  Uiso   1.00
O912   O     0.63662   0.84063   0.82247   0.00000  Uiso   1.00
O913   O     0.36338   0.82603   0.67753   0.00000  Uiso   1.00
O914   O     0.39764   0.83134   0.81439   0.00000  Uiso   1.00
O915   O     0.60236   0.83533   0.68561   0.00000  Uiso   1.00
O916   O     0.37742   0.75889   0.59265   0.00000  Uiso   1.00
Zn917  Zn    0.60366   0.83954   0.75540   0.00000  Uiso   1.00
Zn918  Zn    0.39634   0.82713   0.74461   0.00000  Uiso   1.00
C919   C     0.68142   0.93140   0.74820   0.00000  Uiso   1.00
C920   C     0.97889   0.82745   0.65888   0.00000  Uiso   1.00
C921   C     0.69859   0.84813   0.89371   0.00000  Uiso   1.00
C922   C     0.96808   0.81854   0.60629   0.00000  Uiso   1.00
C923   C     0.68605   0.89089   0.97299   0.00000  Uiso   1.00
C924   C     0.98061   0.77578   0.52701   0.00000  Uiso   1.00
C925   C     0.66824   0.88194   0.92393   0.00000  Uiso   1.00
C926   C     0.99843   0.78473   0.57607   0.00000  Uiso   1.00
C927   C     0.74556   0.82530   0.91297   0.00000  Uiso   1.00
C928   C     0.92111   0.84137   0.58703   0.00000  Uiso   1.00
C929   C     0.76885   0.84053   0.95957   0.00000  Uiso   1.00
C930   C     0.98525   0.73526   0.75180   0.00000  Uiso   1.00
C931   C     0.89782   0.82614   0.54043   0.00000  Uiso   1.00
C932   C     0.73681   0.87178   0.99061   0.00000  Uiso   1.00
C933   C     0.92986   0.79488   0.50939   0.00000  Uiso   1.00
C934   C     0.82333   0.82611   0.97564   0.00000  Uiso   1.00
C935   C     0.84334   0.84056   0.52436   0.00000  Uiso   1.00
C936   C     0.80749   0.86751   0.55583   0.00000  Uiso   1.00
C937   C     0.85917   0.79915   0.94417   0.00000  Uiso   1.00
C938   C     0.75587   0.88385   0.53878   0.00000  Uiso   1.00
C939   C     0.91080   0.78282   0.96122   0.00000  Uiso   1.00
C940   C     0.68657   0.98506   0.74046   0.00000  Uiso   1.00
C941   C     0.98009   0.68161   0.75954   0.00000  Uiso   1.00
C942   C     0.68777   0.83922   0.84112   0.00000  Uiso   1.00
H943   H     0.73058   0.90585   0.56357   0.00000  Uiso   1.00
H944   H     0.83745   0.87529   0.78623   0.00000  Uiso   1.00
H945   H     0.70487   0.75062   0.62677   0.00000  Uiso   1.00
H946   H     0.96179   0.91605   0.87323   0.00000  Uiso   1.00
H947   H     0.74863   0.97537   0.69601   0.00000  Uiso   1.00
H948   H     0.91803   0.69129   0.80399   0.00000  Uiso   1.00
H949   H     0.93609   0.76082   0.93644   0.00000  Uiso   1.00
H950   H     0.90249   0.87019   0.61008   0.00000  Uiso   1.00
H951   H     0.76418   0.79648   0.88992   0.00000  Uiso   1.00
H952   H     0.99534   0.91544   0.99664   0.00000  Uiso   1.00
H953   H     0.67132   0.75123   0.50336   0.00000  Uiso   1.00
H954   H     0.81761   0.87651   0.59415   0.00000  Uiso   1.00
H955   H     0.84906   0.79016   0.90585   0.00000  Uiso   1.00
H956   H     0.82921   0.79138   0.71377   0.00000  Uiso   1.00
N957   N     0.81362   0.81883   0.73740   0.00000  Uiso   1.00
N958   N     0.85305   0.84784   0.76261   0.00000  Uiso   1.00
O959   O     0.96386   0.91298   0.75310   0.00000  Uiso   1.00
O960   O     0.95592   0.90777   0.90735   0.00000  Uiso   1.00
O961   O     0.72686   0.67076   0.70926   0.00000  Uiso   1.00
O962   O     0.93981   0.99590   0.79074   0.00000  Uiso   1.00
O963   O     0.70281   0.75369   0.74691   0.00000  Uiso   1.00
O964   O     0.72488   0.90368   0.74502   0.00000  Uiso   1.00
O965   O     0.94178   0.76298   0.75499   0.00000  Uiso   1.00
O966   O     0.96995   0.84063   0.82247   0.00000  Uiso   1.00
O967   O     0.69672   0.82603   0.67753   0.00000  Uiso   1.00
O968   O     0.73098   0.83134   0.81439   0.00000  Uiso   1.00
O969   O     0.93569   0.83533   0.68561   0.00000  Uiso   1.00
O970   O     0.71075   0.75889   0.59265   0.00000  Uiso   1.00
Zn971  Zn    0.93700   0.83954   0.75540   0.00000  Uiso   1.00
Zn972  Zn    0.72967   0.82713   0.74461   0.00000  Uiso   1.00
loop_
_geom_bond_atom_site_label_1
_geom_bond_atom_site_label_2
_geom_bond_distance
_geom_bond_site_symmetry_2
_ccdc_geom_bond_type
C1     C22     1.414   .     S
C1     O46     1.292   .     A
C1     O149    1.272   1_455 S
C2     C4      1.457   .     S
C2     O51     1.300   .     A
C2     O103    1.289   .     S
C3     C9      1.388   .     A
C3     C24     1.457   .     S
C3     C7      1.418   .     A
C4     C8      1.418   .     A
C4     C10     1.388   .     A
C5     C7      1.394   .     A
C5     C14     1.401   .     A
C5     H142    1.085   1_455 S
C6     C8      1.394   .     A
C6     C15     1.401   .     A
C6     H89     1.085   .     S
C7     O150    1.379   1_455 S
C8     O106    1.379   .     S
C9     H33     1.077   .     S
C9     C11     1.392   .     A
C10    H32     1.077   .     S
C10    C13     1.392   .     A
C11    C16     1.418   .     A
C11    C14     1.416   .     A
C12    C23     1.414   .     S
C12    O47     1.292   .     A
C12    O99     1.272   .     S
C13    C17     1.418   .     A
C13    C15     1.416   .     A
C14    C506    1.387   .     S
C15    C507    1.387   1_554 S
C16    C19     1.420   .     A
C16    C503    1.417   .     S
C17    C18     1.420   .     A
C17    C502    1.417   1_554 S
C18    C20     1.384   .     A
C18    H36     1.076   .     S
C19    C21     1.384   .     A
C19    H37     1.076   .     S
C20    H25     1.085   .     S
C20    C500    1.387   1_554 S
C21    H31     1.085   .     S
C21    C501    1.387   .     S
C22    C293    1.358   1_455 S
C22    O205    1.391   .     S
C23    C400    1.358   1_545 S
C23    O368    1.391   1_545 S
C24    O50     1.300   .     A
C24    O156    1.289   1_455 S
H26    N40     1.029   .     S
H27    O52     0.989   .     S
H28    O42     0.989   .     S
H29    O205    0.991   .     S
H30    O368    0.991   1_545 S
H34    C59     1.085   .     S
H35    C114    1.085   1_455 S
H38    N39     1.029   .     S
N39    Zn54    2.017   .     S
N39    N40     1.296   .     D
N40    Zn53    2.017   .     S
O41    Zn53    1.964   .     S
O41    C55     1.272   .     S
O42    C61     1.379   .     S
O43    C346    1.391   1_545 S
O43    H353    0.991   1_545 S
O44    C185    1.391   .     S
O44    H192    0.991   .     S
O45    Zn54    1.964   .     S
O45    C120    1.272   1_455 S
O46    Zn54    1.990   .     S
O47    Zn53    1.990   .     S
O48    Zn53    1.965   .     S
O48    C78     1.289   .     S
O49    Zn54    1.965   .     S
O49    C110    1.289   1_455 S
O50    Zn54    1.913   .     S
O51    Zn53    1.913   .     S
O52    C116    1.379   1_455 S
C55    C76     1.414   .     S
C55    O100    1.292   .     A
C56    C58     1.457   .     S
C56    O105    1.300   .     A
C56    O157    1.289   .     S
C57    C63     1.388   .     A
C57    C78     1.457   .     S
C57    C61     1.418   .     A
C58    C62     1.418   .     A
C58    C64     1.388   .     A
C59    C61     1.394   .     A
C59    C68     1.401   .     A
C60    C62     1.394   .     A
C60    C69     1.401   .     A
C60    H143    1.085   .     S
C62    O160    1.379   .     S
C63    H87     1.077   .     S
C63    C65     1.392   .     A
C64    H86     1.077   .     S
C64    C67     1.392   .     A
C65    C70     1.418   .     A
C65    C68     1.416   .     A
C66    C77     1.414   .     S
C66    O101    1.292   .     A
C66    O153    1.272   .     S
C67    C71     1.418   .     A
C67    C69     1.416   .     A
C68    C560    1.387   .     S
C69    C561    1.387   1_554 S
C70    C73     1.420   .     A
C70    C557    1.417   .     S
C71    C72     1.420   .     A
C71    C556    1.417   1_554 S
C72    C74     1.384   .     A
C72    H90     1.076   .     S
C73    C75     1.384   .     A
C73    H91     1.076   .     S
C74    H79     1.085   .     S
C74    C554    1.387   1_554 S
C75    H85     1.085   .     S
C75    C555    1.387   .     S
C76    C185    1.358   .     S
C76    O259    1.391   .     S
C77    C454    1.358   1_545 S
C77    O422    1.391   1_545 S
C78    O104    1.300   .     A
H80    N94     1.029   .     S
H81    O106    0.989   .     S
H82    O96     0.989   .     S
H83    O259    0.991   .     S
H84    O422    0.991   1_545 S
H88    C113    1.085   .     S
H92    N93     1.029   .     S
N93    Zn108   2.017   .     S
N93    N94     1.296   .     D
N94    Zn107   2.017   .     S
O95    Zn107   1.964   .     S
O95    C109    1.272   .     S
O96    C115    1.379   .     S
O97    C400    1.391   1_545 S
O97    H407    0.991   1_545 S
O98    C239    1.391   .     S
O98    H246    0.991   .     S
O99    Zn108   1.964   .     S
O100   Zn108   1.990   .     S
O101   Zn107   1.990   .     S
O102   Zn107   1.965   .     S
O102   C132    1.289   .     S
O103   Zn108   1.965   .     S
O104   Zn108   1.913   .     S
O105   Zn107   1.913   .     S
C109   C130    1.414   .     S
C109   O154    1.292   .     A
C110   C112    1.457   .     S
C110   O159    1.300   .     A
C110   O49     1.289   1_655 S
C111   C117    1.388   .     A
C111   C132    1.457   .     S
C111   C115    1.418   .     A
C112   C116    1.418   .     A
C112   C118    1.388   .     A
C113   C115    1.394   .     A
C113   C122    1.401   .     A
C114   C116    1.394   .     A
C114   C123    1.401   .     A
C114   H35     1.085   1_655 S
C116   O52     1.379   1_655 S
C117   H141    1.077   .     S
C117   C119    1.392   .     A
C118   H140    1.077   .     S
C118   C121    1.392   .     A
C119   C124    1.418   .     A
C119   C122    1.416   .     A
C120   C131    1.414   .     S
C120   O155    1.292   .     A
C120   O45     1.272   1_655 S
C121   C125    1.418   .     A
C121   C123    1.416   .     A
C122   C614    1.387   .     S
C123   C615    1.387   1_554 S
C124   C127    1.420   .     A
C124   C611    1.417   .     S
C125   C126    1.420   .     A
C125   C610    1.417   1_554 S
C126   C128    1.384   .     A
C126   H144    1.076   .     S
C127   C129    1.384   .     A
C127   H145    1.076   .     S
C128   H133    1.085   .     S
C128   C608    1.387   1_554 S
C129   H139    1.085   .     S
C129   C609    1.387   .     S
C130   C239    1.358   .     S
C130   O313    1.391   .     S
C131   C346    1.358   1_645 S
C131   O476    1.391   1_545 S
C132   O158    1.300   .     A
H134   N148    1.029   .     S
H135   O160    0.989   .     S
H136   O150    0.989   .     S
H137   O313    0.991   .     S
H138   O476    0.991   1_545 S
H142   C5      1.085   1_655 S
H146   N147    1.029   .     S
N147   Zn162   2.017   .     S
N147   N148    1.296   .     D
N148   Zn161   2.017   .     S
O149   Zn161   1.964   .     S
O149   C1      1.272   1_655 S
O150   C7      1.379   1_655 S
O151   C454    1.391   1_545 S
O151   H461    0.991   1_545 S
O152   C293    1.391   .     S
O152   H300    0.991   .     S
O153   Zn162   1.964   .     S
O154   Zn162   1.990   .     S
O155   Zn161   1.990   .     S
O156   Zn161   1.965   .     S
O156   C24     1.289   1_655 S
O157   Zn162   1.965   .     S
O158   Zn162   1.913   .     S
O159   Zn161   1.913   .     S
C163   C184    1.414   .     S
C163   O208    1.292   .     A
C163   O311    1.272   1_455 S
C164   C166    1.457   .     S
C164   O213    1.300   .     A
C164   O265    1.289   .     S
C165   C171    1.388   .     A
C165   C186    1.457   .     S
C165   C169    1.418   .     A
C166   C170    1.418   .     A
C166   C172    1.388   .     A
C167   C169    1.394   .     A
C167   C176    1.401   .     A
C167   H304    1.085   1_455 S
C168   C170    1.394   .     A
C168   C177    1.401   .     A
C168   H251    1.085   .     S
C169   O312    1.379   1_455 S
C170   O268    1.379   .     S
C171   H195    1.077   .     S
C171   C173    1.392   .     A
C172   H194    1.077   .     S
C172   C175    1.392   .     A
C173   C178    1.418   .     A
C173   C176    1.416   .     A
C174   C185    1.414   .     S
C174   O209    1.292   .     A
C174   O261    1.272   .     S
C175   C179    1.418   .     A
C175   C177    1.416   .     A
C176   C668    1.387   .     S
C177   C669    1.387   1_554 S
C178   C181    1.420   .     A
C178   C665    1.417   .     S
C179   C180    1.420   .     A
C179   C664    1.417   1_554 S
C180   C182    1.384   .     A
C180   H198    1.076   .     S
C181   C183    1.384   .     A
C181   H199    1.076   .     S
C182   H187    1.085   .     S
C182   C662    1.387   1_554 S
C183   H193    1.085   .     S
C183   C663    1.387   .     S
C184   C455    1.358   1_455 S
C184   O367    1.391   .     S
C186   O212    1.300   .     A
C186   O318    1.289   1_455 S
H188   N202    1.029   .     S
H189   O214    0.989   .     S
H190   O204    0.989   .     S
H191   O367    0.991   .     S
H196   C221    1.085   .     S
H197   C276    1.085   1_455 S
H200   N201    1.029   .     S
N201   Zn216   2.017   .     S
N201   N202    1.296   .     D
N202   Zn215   2.017   .     S
O203   Zn215   1.964   .     S
O203   C217    1.272   .     S
O204   C223    1.379   .     S
O206   C347    1.391   .     S
O206   H354    0.991   .     S
O207   Zn216   1.964   .     S
O207   C282    1.272   1_455 S
O208   Zn216   1.990   .     S
O209   Zn215   1.990   .     S
O210   Zn215   1.965   .     S
O210   C240    1.289   .     S
O211   Zn216   1.965   .     S
O211   C272    1.289   1_455 S
O212   Zn216   1.913   .     S
O213   Zn215   1.913   .     S
O214   C278    1.379   1_455 S
C217   C238    1.414   .     S
C217   O262    1.292   .     A
C218   C220    1.457   .     S
C218   O267    1.300   .     A
C218   O319    1.289   .     S
C219   C225    1.388   .     A
C219   C240    1.457   .     S
C219   C223    1.418   .     A
C220   C224    1.418   .     A
C220   C226    1.388   .     A
C221   C223    1.394   .     A
C221   C230    1.401   .     A
C222   C224    1.394   .     A
C222   C231    1.401   .     A
C222   H305    1.085   .     S
C224   O322    1.379   .     S
C225   H249    1.077   .     S
C225   C227    1.392   .     A
C226   H248    1.077   .     S
C226   C229    1.392   .     A
C227   C232    1.418   .     A
C227   C230    1.416   .     A
C228   C239    1.414   .     S
C228   O263    1.292   .     A
C228   O315    1.272   .     S
C229   C233    1.418   .     A
C229   C231    1.416   .     A
C230   C722    1.387   .     S
C231   C723    1.387   1_554 S
C232   C235    1.420   .     A
C232   C719    1.417   .     S
C233   C234    1.420   .     A
C233   C718    1.417   1_554 S
C234   C236    1.384   .     A
C234   H252    1.076   .     S
C235   C237    1.384   .     A
C235   H253    1.076   .     S
C236   H241    1.085   .     S
C236   C716    1.387   1_554 S
C237   H247    1.085   .     S
C237   C717    1.387   .     S
C238   C347    1.358   .     S
C238   O421    1.391   .     S
C240   O266    1.300   .     A
H242   N256    1.029   .     S
H243   O268    0.989   .     S
H244   O258    0.989   .     S
H245   O421    0.991   .     S
H250   C275    1.085   .     S
H254   N255    1.029   .     S
N255   Zn270   2.017   .     S
N255   N256    1.296   .     D
N256   Zn269   2.017   .     S
O257   Zn269   1.964   .     S
O257   C271    1.272   .     S
O258   C277    1.379   .     S
O260   C401    1.391   .     S
O260   H408    0.991   .     S
O261   Zn270   1.964   .     S
O262   Zn270   1.990   .     S
O263   Zn269   1.990   .     S
O264   Zn269   1.965   .     S
O264   C294    1.289   .     S
O265   Zn270   1.965   .     S
O266   Zn270   1.913   .     S
O267   Zn269   1.913   .     S
C271   C292    1.414   .     S
C271   O316    1.292   .     A
C272   C274    1.457   .     S
C272   O321    1.300   .     A
C272   O211    1.289   1_655 S
C273   C279    1.388   .     A
C273   C294    1.457   .     S
C273   C277    1.418   .     A
C274   C278    1.418   .     A
C274   C280    1.388   .     A
C275   C277    1.394   .     A
C275   C284    1.401   .     A
C276   C278    1.394   .     A
C276   C285    1.401   .     A
C276   H197    1.085   1_655 S
C278   O214    1.379   1_655 S
C279   H303    1.077   .     S
C279   C281    1.392   .     A
C280   H302    1.077   .     S
C280   C283    1.392   .     A
C281   C286    1.418   .     A
C281   C284    1.416   .     A
C282   C293    1.414   .     S
C282   O317    1.292   .     A
C282   O207    1.272   1_655 S
C283   C287    1.418   .     A
C283   C285    1.416   .     A
C284   C776    1.387   .     S
C285   C777    1.387   1_554 S
C286   C289    1.420   .     A
C286   C773    1.417   .     S
C287   C288    1.420   .     A
C287   C772    1.417   1_554 S
C288   C290    1.384   .     A
C288   H306    1.076   .     S
C289   C291    1.384   .     A
C289   H307    1.076   .     S
C290   H295    1.085   .     S
C290   C770    1.387   1_554 S
C291   H301    1.085   .     S
C291   C771    1.387   .     S
C292   C401    1.358   .     S
C292   O475    1.391   .     S
C293   C22     1.358   1_655 S
C294   O320    1.300   .     A
H296   N310    1.029   .     S
H297   O322    0.989   .     S
H298   O312    0.989   .     S
H299   O475    0.991   .     S
H304   C167    1.085   1_655 S
H308   N309    1.029   .     S
N309   Zn324   2.017   .     S
N309   N310    1.296   .     D
N310   Zn323   2.017   .     S
O311   Zn323   1.964   .     S
O311   C163    1.272   1_655 S
O312   C169    1.379   1_655 S
O314   C455    1.391   .     S
O314   H462    0.991   .     S
O315   Zn324   1.964   .     S
O316   Zn324   1.990   .     S
O317   Zn323   1.990   .     S
O318   Zn323   1.965   .     S
O318   C186    1.289   1_655 S
O319   Zn324   1.965   .     S
O320   Zn324   1.913   .     S
O321   Zn323   1.913   .     S
C325   C346    1.414   .     S
C325   O370    1.292   .     A
C325   O473    1.272   1_455 S
C326   C328    1.457   .     S
C326   O375    1.300   .     A
C326   O427    1.289   .     S
C327   C333    1.388   .     A
C327   C348    1.457   .     S
C327   C331    1.418   .     A
C328   C332    1.418   .     A
C328   C334    1.388   .     A
C329   C331    1.394   .     A
C329   C338    1.401   .     A
C329   H466    1.085   1_455 S
C330   C332    1.394   .     A
C330   C339    1.401   .     A
C330   H413    1.085   .     S
C331   O474    1.379   1_455 S
C332   O430    1.379   .     S
C333   H357    1.077   .     S
C333   C335    1.392   .     A
C334   H356    1.077   .     S
C334   C337    1.392   .     A
C335   C340    1.418   .     A
C335   C338    1.416   .     A
C336   C347    1.414   .     S
C336   O371    1.292   .     A
C336   O423    1.272   .     S
C337   C341    1.418   .     A
C337   C339    1.416   .     A
C338   C830    1.387   .     S
C339   C831    1.387   1_554 S
C340   C343    1.420   .     A
C340   C827    1.417   .     S
C341   C342    1.420   .     A
C341   C826    1.417   1_554 S
C342   C344    1.384   .     A
C342   H360    1.076   .     S
C343   C345    1.384   .     A
C343   H361    1.076   .     S
C344   H349    1.085   .     S
C344   C824    1.387   1_554 S
C345   H355    1.085   .     S
C345   C825    1.387   .     S
C346   C131    1.358   1_465 S
C346   O43     1.391   1_565 S
C348   O374    1.300   .     A
C348   O480    1.289   1_455 S
H350   N364    1.029   .     S
H351   O376    0.989   .     S
H352   O366    0.989   .     S
H353   O43     0.991   1_565 S
H358   C383    1.085   .     S
H359   C438    1.085   1_455 S
H362   N363    1.029   .     S
N363   Zn378   2.017   .     S
N363   N364    1.296   .     D
N364   Zn377   2.017   .     S
O365   Zn377   1.964   .     S
O365   C379    1.272   .     S
O366   C385    1.379   .     S
O368   C23     1.391   1_565 S
O368   H30     0.991   1_565 S
O369   Zn378   1.964   .     S
O369   C444    1.272   1_455 S
O370   Zn378   1.990   .     S
O371   Zn377   1.990   .     S
O372   Zn377   1.965   .     S
O372   C402    1.289   .     S
O373   Zn378   1.965   .     S
O373   C434    1.289   1_455 S
O374   Zn378   1.913   .     S
O375   Zn377   1.913   .     S
O376   C440    1.379   1_455 S
C379   C400    1.414   .     S
C379   O424    1.292   .     A
C380   C382    1.457   .     S
C380   O429    1.300   .     A
C380   O481    1.289   .     S
C381   C387    1.388   .     A
C381   C402    1.457   .     S
C381   C385    1.418   .     A
C382   C386    1.418   .     A
C382   C388    1.388   .     A
C383   C385    1.394   .     A
C383   C392    1.401   .     A
C384   C386    1.394   .     A
C384   C393    1.401   .     A
C384   H467    1.085   .     S
C386   O484    1.379   .     S
C387   H411    1.077   .     S
C387   C389    1.392   .     A
C388   H410    1.077   .     S
C388   C391    1.392   .     A
C389   C394    1.418   .     A
C389   C392    1.416   .     A
C390   C401    1.414   .     S
C390   O425    1.292   .     A
C390   O477    1.272   .     S
C391   C395    1.418   .     A
C391   C393    1.416   .     A
C392   C884    1.387   .     S
C393   C885    1.387   1_554 S
C394   C397    1.420   .     A
C394   C881    1.417   .     S
C395   C396    1.420   .     A
C395   C880    1.417   1_554 S
C396   C398    1.384   .     A
C396   H414    1.076   .     S
C397   C399    1.384   .     A
C397   H415    1.076   .     S
C398   H403    1.085   .     S
C398   C878    1.387   1_554 S
C399   H409    1.085   .     S
C399   C879    1.387   .     S
C400   C23     1.358   1_565 S
C400   O97     1.391   1_565 S
C402   O428    1.300   .     A
H404   N418    1.029   .     S
H405   O430    0.989   .     S
H406   O420    0.989   .     S
H407   O97     0.991   1_565 S
H412   C437    1.085   .     S
H416   N417    1.029   .     S
N417   Zn432   2.017   .     S
N417   N418    1.296   .     D
N418   Zn431   2.017   .     S
O419   Zn431   1.964   .     S
O419   C433    1.272   .     S
O420   C439    1.379   .     S
O422   C77     1.391   1_565 S
O422   H84     0.991   1_565 S
O423   Zn432   1.964   .     S
O424   Zn432   1.990   .     S
O425   Zn431   1.990   .     S
O426   Zn431   1.965   .     S
O426   C456    1.289   .     S
O427   Zn432   1.965   .     S
O428   Zn432   1.913   .     S
O429   Zn431   1.913   .     S
C433   C454    1.414   .     S
C433   O478    1.292   .     A
C434   C436    1.457   .     S
C434   O483    1.300   .     A
C434   O373    1.289   1_655 S
C435   C441    1.388   .     A
C435   C456    1.457   .     S
C435   C439    1.418   .     A
C436   C440    1.418   .     A
C436   C442    1.388   .     A
C437   C439    1.394   .     A
C437   C446    1.401   .     A
C438   C440    1.394   .     A
C438   C447    1.401   .     A
C438   H359    1.085   1_655 S
C440   O376    1.379   1_655 S
C441   H465    1.077   .     S
C441   C443    1.392   .     A
C442   H464    1.077   .     S
C442   C445    1.392   .     A
C443   C448    1.418   .     A
C443   C446    1.416   .     A
C444   C455    1.414   .     S
C444   O479    1.292   .     A
C444   O369    1.272   1_655 S
C445   C449    1.418   .     A
C445   C447    1.416   .     A
C446   C938    1.387   .     S
C447   C939    1.387   1_554 S
C448   C451    1.420   .     A
C448   C935    1.417   .     S
C449   C450    1.420   .     A
C449   C934    1.417   1_554 S
C450   C452    1.384   .     A
C450   H468    1.076   .     S
C451   C453    1.384   .     A
C451   H469    1.076   .     S
C452   H457    1.085   .     S
C452   C932    1.387   1_554 S
C453   H463    1.085   .     S
C453   C933    1.387   .     S
C454   C77     1.358   1_565 S
C454   O151    1.391   1_565 S
C455   C184    1.358   1_655 S
C456   O482    1.300   .     A
H458   N472    1.029   .     S
H459   O484    0.989   .     S
H460   O474    0.989   .     S
H461   O151    0.991   1_565 S
H466   C329    1.085   1_655 S
H470   N471    1.029   .     S
N471   Zn486   2.017   .     S
N471   N472    1.296   .     D
N472   Zn485   2.017   .     S
O473   Zn485   1.964   .     S
O473   C325    1.272   1_655 S
O474   C331    1.379   1_655 S
O476   C131    1.391   1_565 S
O476   H138    0.991   1_565 S
O477   Zn486   1.964   .     S
O478   Zn486   1.990   .     S
O479   Zn485   1.990   .     S
O480   Zn485   1.965   .     S
O480   C348    1.289   1_655 S
O481   Zn486   1.965   .     S
O482   Zn486   1.913   .     S
O483   Zn485   1.913   .     S
C487   C508    1.414   .     S
C487   O532    1.292   .     A
C487   O635    1.272   1_455 S
C488   C490    1.457   .     S
C488   O537    1.300   .     A
C488   O589    1.289   .     S
C489   C495    1.388   .     A
C489   C510    1.457   .     S
C489   C493    1.418   .     A
C490   C494    1.418   .     A
C490   C496    1.388   .     A
C491   C493    1.394   .     A
C491   C500    1.401   .     A
C491   H628    1.085   1_455 S
C492   C494    1.394   .     A
C492   C501    1.401   .     A
C492   H575    1.085   .     S
C493   O636    1.379   1_455 S
C494   O592    1.379   .     S
C495   H519    1.077   .     S
C495   C497    1.392   .     A
C496   H518    1.077   .     S
C496   C499    1.392   .     A
C497   C502    1.418   .     A
C497   C500    1.416   .     A
C498   C509    1.414   .     S
C498   O533    1.292   .     A
C498   O585    1.272   .     S
C499   C503    1.418   .     A
C499   C501    1.416   .     A
C500   C20     1.387   1_556 S
C502   C505    1.420   .     A
C502   C17     1.417   1_556 S
C503   C504    1.420   .     A
C504   C506    1.384   .     A
C504   H522    1.076   .     S
C505   C507    1.384   .     A
C505   H523    1.076   .     S
C506   H511    1.085   .     S
C507   H517    1.085   .     S
C507   C15     1.387   1_556 S
C508   C779    1.358   1_455 S
C508   O691    1.391   .     S
C509   C886    1.358   1_545 S
C509   O854    1.391   1_545 S
C510   O536    1.300   .     A
C510   O642    1.289   1_455 S
H512   N526    1.029   .     S
H513   O538    0.989   .     S
H514   O528    0.989   .     S
H515   O691    0.991   .     S
H516   O854    0.991   1_545 S
H520   C545    1.085   .     S
H521   C600    1.085   1_455 S
H524   N525    1.029   .     S
N525   Zn540   2.017   .     S
N525   N526    1.296   .     D
N526   Zn539   2.017   .     S
O527   Zn539   1.964   .     S
O527   C541    1.272   .     S
O528   C547    1.379   .     S
O529   C832    1.391   1_545 S
O529   H839    0.991   1_545 S
O530   C671    1.391   .     S
O530   H678    0.991   .     S
O531   Zn540   1.964   .     S
O531   C606    1.272   1_455 S
O532   Zn540   1.990   .     S
O533   Zn539   1.990   .     S
O534   Zn539   1.965   .     S
O534   C564    1.289   .     S
O535   Zn540   1.965   .     S
O535   C596    1.289   1_455 S
O536   Zn540   1.913   .     S
O537   Zn539   1.913   .     S
O538   C602    1.379   1_455 S
C541   C562    1.414   .     S
C541   O586    1.292   .     A
C542   C544    1.457   .     S
C542   O591    1.300   .     A
C542   O643    1.289   .     S
C543   C549    1.388   .     A
C543   C564    1.457   .     S
C543   C547    1.418   .     A
C544   C548    1.418   .     A
C544   C550    1.388   .     A
C545   C547    1.394   .     A
C545   C554    1.401   .     A
C546   C548    1.394   .     A
C546   C555    1.401   .     A
C546   H629    1.085   .     S
C548   O646    1.379   .     S
C549   H573    1.077   .     S
C549   C551    1.392   .     A
C550   H572    1.077   .     S
C550   C553    1.392   .     A
C551   C556    1.418   .     A
C551   C554    1.416   .     A
C552   C563    1.414   .     S
C552   O587    1.292   .     A
C552   O639    1.272   .     S
C553   C557    1.418   .     A
C553   C555    1.416   .     A
C554   C74     1.387   1_556 S
C556   C559    1.420   .     A
C556   C71     1.417   1_556 S
C557   C558    1.420   .     A
C558   C560    1.384   .     A
C558   H576    1.076   .     S
C559   C561    1.384   .     A
C559   H577    1.076   .     S
C560   H565    1.085   .     S
C561   H571    1.085   .     S
C561   C69     1.387   1_556 S
C562   C671    1.358   .     S
C562   O745    1.391   .     S
C563   C940    1.358   1_545 S
C563   O908    1.391   1_545 S
C564   O590    1.300   .     A
H566   N580    1.029   .     S
H567   O592    0.989   .     S
H568   O582    0.989   .     S
H569   O745    0.991   .     S
H570   O908    0.991   1_545 S
H574   C599    1.085   .     S
H578   N579    1.029   .     S
N579   Zn594   2.017   .     S
N579   N580    1.296   .     D
N580   Zn593   2.017   .     S
O581   Zn593   1.964   .     S
O581   C595    1.272   .     S
O582   C601    1.379   .     S
O583   C886    1.391   1_545 S
O583   H893    0.991   1_545 S
O584   C725    1.391   .     S
O584   H732    0.991   .     S
O585   Zn594   1.964   .     S
O586   Zn594   1.990   .     S
O587   Zn593   1.990   .     S
O588   Zn593   1.965   .     S
O588   C618    1.289   .     S
O589   Zn594   1.965   .     S
O590   Zn594   1.913   .     S
O591   Zn593   1.913   .     S
C595   C616    1.414   .     S
C595   O640    1.292   .     A
C596   C598    1.457   .     S
C596   O645    1.300   .     A
C596   O535    1.289   1_655 S
C597   C603    1.388   .     A
C597   C618    1.457   .     S
C597   C601    1.418   .     A
C598   C602    1.418   .     A
C598   C604    1.388   .     A
C599   C601    1.394   .     A
C599   C608    1.401   .     A
C600   C602    1.394   .     A
C600   C609    1.401   .     A
C600   H521    1.085   1_655 S
C602   O538    1.379   1_655 S
C603   H627    1.077   .     S
C603   C605    1.392   .     A
C604   H626    1.077   .     S
C604   C607    1.392   .     A
C605   C610    1.418   .     A
C605   C608    1.416   .     A
C606   C617    1.414   .     S
C606   O641    1.292   .     A
C606   O531    1.272   1_655 S
C607   C611    1.418   .     A
C607   C609    1.416   .     A
C608   C128    1.387   1_556 S
C610   C613    1.420   .     A
C610   C125    1.417   1_556 S
C611   C612    1.420   .     A
C612   C614    1.384   .     A
C612   H630    1.076   .     S
C613   C615    1.384   .     A
C613   H631    1.076   .     S
C614   H619    1.085   .     S
C615   H625    1.085   .     S
C615   C123    1.387   1_556 S
C616   C725    1.358   .     S
C616   O799    1.391   .     S
C617   C832    1.358   1_645 S
C617   O962    1.391   1_545 S
C618   O644    1.300   .     A
H620   N634    1.029   .     S
H621   O646    0.989   .     S
H622   O636    0.989   .     S
H623   O799    0.991   .     S
H624   O962    0.991   1_545 S
H628   C491    1.085   1_655 S
H632   N633    1.029   .     S
N633   Zn648   2.017   .     S
N633   N634    1.296   .     D
N634   Zn647   2.017   .     S
O635   Zn647   1.964   .     S
O635   C487    1.272   1_655 S
O636   C493    1.379   1_655 S
O637   C940    1.391   1_545 S
O637   H947    0.991   1_545 S
O638   C779    1.391   .     S
O638   H786    0.991   .     S
O639   Zn648   1.964   .     S
O640   Zn648   1.990   .     S
O641   Zn647   1.990   .     S
O642   Zn647   1.965   .     S
O642   C510    1.289   1_655 S
O643   Zn648   1.965   .     S
O644   Zn648   1.913   .     S
O645   Zn647   1.913   .     S
C649   C670    1.414   .     S
C649   O694    1.292   .     A
C649   O797    1.272   1_455 S
C650   C652    1.457   .     S
C650   O699    1.300   .     A
C650   O751    1.289   .     S
C651   C657    1.388   .     A
C651   C672    1.457   .     S
C651   C655    1.418   .     A
C652   C656    1.418   .     A
C652   C658    1.388   .     A
C653   C655    1.394   .     A
C653   C662    1.401   .     A
C653   H790    1.085   1_455 S
C654   C656    1.394   .     A
C654   C663    1.401   .     A
C654   H737    1.085   .     S
C655   O798    1.379   1_455 S
C656   O754    1.379   .     S
C657   H681    1.077   .     S
C657   C659    1.392   .     A
C658   H680    1.077   .     S
C658   C661    1.392   .     A
C659   C664    1.418   .     A
C659   C662    1.416   .     A
C660   C671    1.414   .     S
C660   O695    1.292   .     A
C660   O747    1.272   .     S
C661   C665    1.418   .     A
C661   C663    1.416   .     A
C662   C182    1.387   1_556 S
C664   C667    1.420   .     A
C664   C179    1.417   1_556 S
C665   C666    1.420   .     A
C666   C668    1.384   .     A
C666   H684    1.076   .     S
C667   C669    1.384   .     A
C667   H685    1.076   .     S
C668   H673    1.085   .     S
C669   H679    1.085   .     S
C669   C177    1.387   1_556 S
C670   C941    1.358   1_455 S
C670   O853    1.391   .     S
C672   O698    1.300   .     A
C672   O804    1.289   1_455 S
H674   N688    1.029   .     S
H675   O700    0.989   .     S
H676   O690    0.989   .     S
H677   O853    0.991   .     S
H682   C707    1.085   .     S
H683   C762    1.085   1_455 S
H686   N687    1.029   .     S
N687   Zn702   2.017   .     S
N687   N688    1.296   .     D
N688   Zn701   2.017   .     S
O689   Zn701   1.964   .     S
O689   C703    1.272   .     S
O690   C709    1.379   .     S
O692   C833    1.391   .     S
O692   H840    0.991   .     S
O693   Zn702   1.964   .     S
O693   C768    1.272   1_455 S
O694   Zn702   1.990   .     S
O695   Zn701   1.990   .     S
O696   Zn701   1.965   .     S
O696   C726    1.289   .     S
O697   Zn702   1.965   .     S
O697   C758    1.289   1_455 S
O698   Zn702   1.913   .     S
O699   Zn701   1.913   .     S
O700   C764    1.379   1_455 S
C703   C724    1.414   .     S
C703   O748    1.292   .     A
C704   C706    1.457   .     S
C704   O753    1.300   .     A
C704   O805    1.289   .     S
C705   C711    1.388   .     A
C705   C726    1.457   .     S
C705   C709    1.418   .     A
C706   C710    1.418   .     A
C706   C712    1.388   .     A
C707   C709    1.394   .     A
C707   C716    1.401   .     A
C708   C710    1.394   .     A
C708   C717    1.401   .     A
C708   H791    1.085   .     S
C710   O808    1.379   .     S
C711   H735    1.077   .     S
C711   C713    1.392   .     A
C712   H734    1.077   .     S
C712   C715    1.392   .     A
C713   C718    1.418   .     A
C713   C716    1.416   .     A
C714   C725    1.414   .     S
C714   O749    1.292   .     A
C714   O801    1.272   .     S
C715   C719    1.418   .     A
C715   C717    1.416   .     A
C716   C236    1.387   1_556 S
C718   C721    1.420   .     A
C718   C233    1.417   1_556 S
C719   C720    1.420   .     A
C720   C722    1.384   .     A
C720   H738    1.076   .     S
C721   C723    1.384   .     A
C721   H739    1.076   .     S
C722   H727    1.085   .     S
C723   H733    1.085   .     S
C723   C231    1.387   1_556 S
C724   C833    1.358   .     S
C724   O907    1.391   .     S
C726   O752    1.300   .     A
H728   N742    1.029   .     S
H729   O754    0.989   .     S
H730   O744    0.989   .     S
H731   O907    0.991   .     S
H736   C761    1.085   .     S
H740   N741    1.029   .     S
N741   Zn756   2.017   .     S
N741   N742    1.296   .     D
N742   Zn755   2.017   .     S
O743   Zn755   1.964   .     S
O743   C757    1.272   .     S
O744   C763    1.379   .     S
O746   C887    1.391   .     S
O746   H894    0.991   .     S
O747   Zn756   1.964   .     S
O748   Zn756   1.990   .     S
O749   Zn755   1.990   .     S
O750   Zn755   1.965   .     S
O750   C780    1.289   .     S
O751   Zn756   1.965   .     S
O752   Zn756   1.913   .     S
O753   Zn755   1.913   .     S
C757   C778    1.414   .     S
C757   O802    1.292   .     A
C758   C760    1.457   .     S
C758   O807    1.300   .     A
C758   O697    1.289   1_655 S
C759   C765    1.388   .     A
C759   C780    1.457   .     S
C759   C763    1.418   .     A
C760   C764    1.418   .     A
C760   C766    1.388   .     A
C761   C763    1.394   .     A
C761   C770    1.401   .     A
C762   C764    1.394   .     A
C762   C771    1.401   .     A
C762   H683    1.085   1_655 S
C764   O700    1.379   1_655 S
C765   H789    1.077   .     S
C765   C767    1.392   .     A
C766   H788    1.077   .     S
C766   C769    1.392   .     A
C767   C772    1.418   .     A
C767   C770    1.416   .     A
C768   C779    1.414   .     S
C768   O803    1.292   .     A
C768   O693    1.272   1_655 S
C769   C773    1.418   .     A
C769   C771    1.416   .     A
C770   C290    1.387   1_556 S
C772   C775    1.420   .     A
C772   C287    1.417   1_556 S
C773   C774    1.420   .     A
C774   C776    1.384   .     A
C774   H792    1.076   .     S
C775   C777    1.384   .     A
C775   H793    1.076   .     S
C776   H781    1.085   .     S
C777   H787    1.085   .     S
C777   C285    1.387   1_556 S
C778   C887    1.358   .     S
C778   O961    1.391   .     S
C779   C508    1.358   1_655 S
C780   O806    1.300   .     A
H782   N796    1.029   .     S
H783   O808    0.989   .     S
H784   O798    0.989   .     S
H785   O961    0.991   .     S
H790   C653    1.085   1_655 S
H794   N795    1.029   .     S
N795   Zn810   2.017   .     S
N795   N796    1.296   .     D
N796   Zn809   2.017   .     S
O797   Zn809   1.964   .     S
O797   C649    1.272   1_655 S
O798   C655    1.379   1_655 S
O800   C941    1.391   .     S
O800   H948    0.991   .     S
O801   Zn810   1.964   .     S
O802   Zn810   1.990   .     S
O803   Zn809   1.990   .     S
O804   Zn809   1.965   .     S
O804   C672    1.289   1_655 S
O805   Zn810   1.965   .     S
O806   Zn810   1.913   .     S
O807   Zn809   1.913   .     S
C811   C832    1.414   .     S
C811   O856    1.292   .     A
C811   O959    1.272   1_455 S
C812   C814    1.457   .     S
C812   O861    1.300   .     A
C812   O913    1.289   .     S
C813   C819    1.388   .     A
C813   C834    1.457   .     S
C813   C817    1.418   .     A
C814   C818    1.418   .     A
C814   C820    1.388   .     A
C815   C817    1.394   .     A
C815   C824    1.401   .     A
C815   H952    1.085   1_455 S
C816   C818    1.394   .     A
C816   C825    1.401   .     A
C816   H899    1.085   .     S
C817   O960    1.379   1_455 S
C818   O916    1.379   .     S
C819   H843    1.077   .     S
C819   C821    1.392   .     A
C820   H842    1.077   .     S
C820   C823    1.392   .     A
C821   C826    1.418   .     A
C821   C824    1.416   .     A
C822   C833    1.414   .     S
C822   O857    1.292   .     A
C822   O909    1.272   .     S
C823   C827    1.418   .     A
C823   C825    1.416   .     A
C824   C344    1.387   1_556 S
C826   C829    1.420   .     A
C826   C341    1.417   1_556 S
C827   C828    1.420   .     A
C828   C830    1.384   .     A
C828   H846    1.076   .     S
C829   C831    1.384   .     A
C829   H847    1.076   .     S
C830   H835    1.085   .     S
C831   H841    1.085   .     S
C831   C339    1.387   1_556 S
C832   C617    1.358   1_465 S
C832   O529    1.391   1_565 S
C834   O860    1.300   .     A
C834   O966    1.289   1_455 S
H836   N850    1.029   .     S
H837   O862    0.989   .     S
H838   O852    0.989   .     S
H839   O529    0.991   1_565 S
H844   C869    1.085   .     S
H845   C924    1.085   1_455 S
H848   N849    1.029   .     S
N849   Zn864   2.017   .     S
N849   N850    1.296   .     D
N850   Zn863   2.017   .     S
O851   Zn863   1.964   .     S
O851   C865    1.272   .     S
O852   C871    1.379   .     S
O854   C509    1.391   1_565 S
O854   H516    0.991   1_565 S
O855   Zn864   1.964   .     S
O855   C930    1.272   1_455 S
O856   Zn864   1.990   .     S
O857   Zn863   1.990   .     S
O858   Zn863   1.965   .     S
O858   C888    1.289   .     S
O859   Zn864   1.965   .     S
O859   C920    1.289   1_455 S
O860   Zn864   1.913   .     S
O861   Zn863   1.913   .     S
O862   C926    1.379   1_455 S
C865   C886    1.414   .     S
C865   O910    1.292   .     A
C866   C868    1.457   .     S
C866   O915    1.300   .     A
C866   O967    1.289   .     S
C867   C873    1.388   .     A
C867   C888    1.457   .     S
C867   C871    1.418   .     A
C868   C872    1.418   .     A
C868   C874    1.388   .     A
C869   C871    1.394   .     A
C869   C878    1.401   .     A
C870   C872    1.394   .     A
C870   C879    1.401   .     A
C870   H953    1.085   .     S
C872   O970    1.379   .     S
C873   H897    1.077   .     S
C873   C875    1.392   .     A
C874   H896    1.077   .     S
C874   C877    1.392   .     A
C875   C880    1.418   .     A
C875   C878    1.416   .     A
C876   C887    1.414   .     S
C876   O911    1.292   .     A
C876   O963    1.272   .     S
C877   C881    1.418   .     A
C877   C879    1.416   .     A
C878   C398    1.387   1_556 S
C880   C883    1.420   .     A
C880   C395    1.417   1_556 S
C881   C882    1.420   .     A
C882   C884    1.384   .     A
C882   H900    1.076   .     S
C883   C885    1.384   .     A
C883   H901    1.076   .     S
C884   H889    1.085   .     S
C885   H895    1.085   .     S
C885   C393    1.387   1_556 S
C886   C509    1.358   1_565 S
C886   O583    1.391   1_565 S
C888   O914    1.300   .     A
H890   N904    1.029   .     S
H891   O916    0.989   .     S
H892   O906    0.989   .     S
H893   O583    0.991   1_565 S
H898   C923    1.085   .     S
H902   N903    1.029   .     S
N903   Zn918   2.017   .     S
N903   N904    1.296   .     D
N904   Zn917   2.017   .     S
O905   Zn917   1.964   .     S
O905   C919    1.272   .     S
O906   C925    1.379   .     S
O908   C563    1.391   1_565 S
O908   H570    0.991   1_565 S
O909   Zn918   1.964   .     S
O910   Zn918   1.990   .     S
O911   Zn917   1.990   .     S
O912   Zn917   1.965   .     S
O912   C942    1.289   .     S
O913   Zn918   1.965   .     S
O914   Zn918   1.913   .     S
O915   Zn917   1.913   .     S
C919   C940    1.414   .     S
C919   O964    1.292   .     A
C920   C922    1.457   .     S
C920   O969    1.300   .     A
C920   O859    1.289   1_655 S
C921   C927    1.388   .     A
C921   C942    1.457   .     S
C921   C925    1.418   .     A
C922   C926    1.418   .     A
C922   C928    1.388   .     A
C923   C925    1.394   .     A
C923   C932    1.401   .     A
C924   C926    1.394   .     A
C924   C933    1.401   .     A
C924   H845    1.085   1_655 S
C926   O862    1.379   1_655 S
C927   H951    1.077   .     S
C927   C929    1.392   .     A
C928   H950    1.077   .     S
C928   C931    1.392   .     A
C929   C934    1.418   .     A
C929   C932    1.416   .     A
C930   C941    1.414   .     S
C930   O965    1.292   .     A
C930   O855    1.272   1_655 S
C931   C935    1.418   .     A
C931   C933    1.416   .     A
C932   C452    1.387   1_556 S
C934   C937    1.420   .     A
C934   C449    1.417   1_556 S
C935   C936    1.420   .     A
C936   C938    1.384   .     A
C936   H954    1.076   .     S
C937   C939    1.384   .     A
C937   H955    1.076   .     S
C938   H943    1.085   .     S
C939   H949    1.085   .     S
C939   C447    1.387   1_556 S
C940   C563    1.358   1_565 S
C940   O637    1.391   1_565 S
C941   C670    1.358   1_655 S
C942   O968    1.300   .     A
H944   N958    1.029   .     S
H945   O970    0.989   .     S
H946   O960    0.989   .     S
H947   O637    0.991   1_565 S
H952   C815    1.085   1_655 S
H956   N957    1.029   .     S
N957   Zn972   2.017   .     S
N957   N958    1.296   .     D
N958   Zn971   2.017   .     S
O959   Zn971   1.964   .     S
O959   C811    1.272   1_655 S
O960   C817    1.379   1_655 S
O962   C617    1.391   1_565 S
O962   H624    0.991   1_565 S
O963   Zn972   1.964   .     S
O964   Zn972   1.990   .     S
O965   Zn971   1.990   .     S
O966   Zn971   1.965   .     S
O966   C834    1.289   1_655 S
O967   Zn972   1.965   .     S
O968   Zn972   1.913   .     S
O969   Zn971   1.913   .     S
