data_str_m3_o1_o16_pcu_sym.243
_audit_creation_date              2020-01-03
_audit_creation_method            'Materials Studio'
_symmetry_space_group_name_H-M    'P1'
_symmetry_Int_Tables_number       1
_symmetry_cell_setting            triclinic
loop_
_symmetry_equiv_pos_as_xyz
  x,y,z
_cell_length_a                    29.8647
_cell_length_b                    31.8218
_cell_length_c                    26.1209
_cell_angle_alpha                 92.2491
_cell_angle_beta                  70.2108
_cell_angle_gamma                 91.9950
loop_
_atom_site_label
_atom_site_type_symbol
_atom_site_fract_x
_atom_site_fract_y
_atom_site_fract_z
_atom_site_U_iso_or_equiv
_atom_site_adp_type
_atom_site_occupancy
C1     C     0.16709   0.24655   0.25053   0.00000  Uiso   1.00
C2     C     0.14350   0.15277   0.49174   0.00000  Uiso   1.00
C3     C     0.15345   0.14323   0.43627   0.00000  Uiso   1.00
C4     C     0.18044   0.14908   0.01345   0.00000  Uiso   1.00
C5     C     0.22337   0.12843   0.48320   0.00000  Uiso   1.00
C6     C     0.22900   0.11214   0.43041   0.00000  Uiso   1.00
C7     C     0.19395   0.11959   0.40784   0.00000  Uiso   1.00
C8     C     0.17615   0.16728   0.06403   0.00000  Uiso   1.00
C9     C     0.25115   0.13924   0.06045   0.00000  Uiso   1.00
C10    C     0.12283   0.15831   0.41051   0.00000  Uiso   1.00
C11    C     0.20657   0.31210   0.21593   0.00000  Uiso   1.00
C12    C     0.14012   0.16394   0.35181   0.00000  Uiso   1.00
C13    C     0.20572   0.02179   0.21496   0.00000  Uiso   1.00
C14    C     0.16571   0.04260   0.24910   0.00000  Uiso   1.00
C15    C     0.12677   0.02129   0.28465   0.00000  Uiso   1.00
C16    C     0.12760   0.31158   0.28559   0.00000  Uiso   1.00
C17    C     0.16758   0.29077   0.25135   0.00000  Uiso   1.00
C18    C     0.31475   0.13514   0.22487   0.00000  Uiso   1.00
C19    C     0.02904   0.13449   0.22426   0.00000  Uiso   1.00
C20    C     0.01851   0.19810   0.27534   0.00000  Uiso   1.00
C21    C     0.30420   0.19873   0.27599   0.00000  Uiso   1.00
C22    C     0.16620   0.08679   0.24966   0.00000  Uiso   1.00
C23    C     0.19320   0.16634   0.14787   0.00000  Uiso   1.00
C24    C     0.25887   0.12457   0.00719   0.00000  Uiso   1.00
C25    C     0.20899   0.15973   0.08918   0.00000  Uiso   1.00
C26    C     0.07754   0.17256   0.44182   0.00000  Uiso   1.00
C27    C     0.06415   0.17473   0.49817   0.00000  Uiso   1.00
C28    C     0.09711   0.16606   0.02314   0.00000  Uiso   1.00
H29    H     0.23584   0.03883   0.18756   0.00000  Uiso   1.00
H30    H     0.09646   0.03794   0.31195   0.00000  Uiso   1.00
H31    H     0.09749   0.29453   0.31298   0.00000  Uiso   1.00
H32    H     0.30023   0.11003   0.20575   0.00000  Uiso   1.00
H33    H     0.03297   0.22315   0.29461   0.00000  Uiso   1.00
H34    H     0.14630   0.18668   0.08571   0.00000  Uiso   1.00
H35    H     0.05298   0.18299   0.42274   0.00000  Uiso   1.00
H36    H     0.08511   0.16894   0.06701   0.00000  Uiso   1.00
H37    H     0.02891   0.18501   0.02244   0.00000  Uiso   1.00
H38    H     0.19817   0.10625   0.36785   0.00000  Uiso   1.00
H39    H     0.23688   0.29547   0.18863   0.00000  Uiso   1.00
N40    N     0.04760   0.16668   0.25001   0.00000  Uiso   1.00
N41    N     0.28573   0.16665   0.25000   0.00000  Uiso   1.00
O42    O     0.12846   0.22775   0.25000   0.00000  Uiso   1.00
O43    O     0.20490   0.22774   0.25000   0.00000  Uiso   1.00
O44    O     0.10947   0.16666   0.32681   0.00000  Uiso   1.00
O45    O     0.18591   0.16665   0.32681   0.00000  Uiso   1.00
O46    O     0.12843   0.10559   0.24999   0.00000  Uiso   1.00
O47    O     0.20488   0.10558   0.24999   0.00000  Uiso   1.00
O48    O     0.14742   0.16668   0.17319   0.00000  Uiso   1.00
O49    O     0.22387   0.16667   0.17319   0.00000  Uiso   1.00
Zn50   Zn    0.11562   0.16667   0.25000   0.00000  Uiso   1.00
Zn51   Zn    0.21771   0.16666   0.25000   0.00000  Uiso   1.00
H52    H     0.27711   0.13317   0.07969   0.00000  Uiso   1.00
S53    S     0.05916   0.08778   0.19331   0.00000  Uiso   1.00
O54    O     0.05727   0.05839   0.23760   0.00000  Uiso   1.00
O55    O     0.03369   0.06642   0.15832   0.00000  Uiso   1.00
O56    O     0.11574   0.09579   0.15328   0.00000  Uiso   1.00
H57    H     0.12900   0.06732   0.14344   0.00000  Uiso   1.00
S58    S     0.27398   0.24535   0.30721   0.00000  Uiso   1.00
O59    O     0.29926   0.26647   0.34257   0.00000  Uiso   1.00
O60    O     0.27615   0.27499   0.26307   0.00000  Uiso   1.00
O61    O     0.21728   0.23731   0.34694   0.00000  Uiso   1.00
H62    H     0.20391   0.26577   0.35633   0.00000  Uiso   1.00
S63    S     0.27980   0.08397   0.39019   0.00000  Uiso   1.00
O64    O     0.32318   0.11239   0.37819   0.00000  Uiso   1.00
O65    O     0.28583   0.04690   0.42102   0.00000  Uiso   1.00
O66    O     0.27373   0.06673   0.33110   0.00000  Uiso   1.00
H67    H     0.30034   0.04729   0.31466   0.00000  Uiso   1.00
H68    H     0.29201   0.10917   0.48610   0.00000  Uiso   1.00
C69    C     0.50042   0.24655   0.25053   0.00000  Uiso   1.00
C70    C     0.47684   0.15277   0.49174   0.00000  Uiso   1.00
C71    C     0.48679   0.14323   0.43627   0.00000  Uiso   1.00
C72    C     0.51377   0.14908   0.01345   0.00000  Uiso   1.00
C73    C     0.55670   0.12843   0.48320   0.00000  Uiso   1.00
C74    C     0.56234   0.11214   0.43041   0.00000  Uiso   1.00
C75    C     0.52729   0.11959   0.40784   0.00000  Uiso   1.00
C76    C     0.50949   0.16728   0.06403   0.00000  Uiso   1.00
C77    C     0.58448   0.13924   0.06045   0.00000  Uiso   1.00
C78    C     0.45616   0.15831   0.41051   0.00000  Uiso   1.00
C79    C     0.53990   0.31210   0.21593   0.00000  Uiso   1.00
C80    C     0.47345   0.16394   0.35181   0.00000  Uiso   1.00
C81    C     0.53906   0.02179   0.21496   0.00000  Uiso   1.00
C82    C     0.49904   0.04260   0.24910   0.00000  Uiso   1.00
C83    C     0.46010   0.02129   0.28465   0.00000  Uiso   1.00
C84    C     0.46094   0.31158   0.28559   0.00000  Uiso   1.00
C85    C     0.50092   0.29077   0.25135   0.00000  Uiso   1.00
C86    C     0.64808   0.13514   0.22487   0.00000  Uiso   1.00
C87    C     0.36237   0.13449   0.22426   0.00000  Uiso   1.00
C88    C     0.35184   0.19810   0.27534   0.00000  Uiso   1.00
C89    C     0.63753   0.19873   0.27599   0.00000  Uiso   1.00
C90    C     0.49953   0.08679   0.24966   0.00000  Uiso   1.00
C91    C     0.52653   0.16634   0.14787   0.00000  Uiso   1.00
C92    C     0.59221   0.12457   0.00719   0.00000  Uiso   1.00
C93    C     0.54232   0.15973   0.08918   0.00000  Uiso   1.00
C94    C     0.41087   0.17256   0.44182   0.00000  Uiso   1.00
C95    C     0.39748   0.17473   0.49817   0.00000  Uiso   1.00
C96    C     0.43044   0.16606   0.02314   0.00000  Uiso   1.00
H97    H     0.56917   0.03883   0.18756   0.00000  Uiso   1.00
H98    H     0.42980   0.03794   0.31195   0.00000  Uiso   1.00
H99    H     0.43082   0.29453   0.31298   0.00000  Uiso   1.00
H100   H     0.63356   0.11003   0.20575   0.00000  Uiso   1.00
H101   H     0.36631   0.22315   0.29461   0.00000  Uiso   1.00
H102   H     0.47964   0.18668   0.08571   0.00000  Uiso   1.00
H103   H     0.38631   0.18299   0.42274   0.00000  Uiso   1.00
H104   H     0.41845   0.16894   0.06701   0.00000  Uiso   1.00
H105   H     0.36224   0.18501   0.02244   0.00000  Uiso   1.00
H106   H     0.53150   0.10625   0.36785   0.00000  Uiso   1.00
H107   H     0.57021   0.29547   0.18863   0.00000  Uiso   1.00
N108   N     0.38093   0.16668   0.25001   0.00000  Uiso   1.00
N109   N     0.61906   0.16665   0.25000   0.00000  Uiso   1.00
O110   O     0.46179   0.22775   0.25000   0.00000  Uiso   1.00
O111   O     0.53823   0.22774   0.25000   0.00000  Uiso   1.00
O112   O     0.44280   0.16666   0.32681   0.00000  Uiso   1.00
O113   O     0.51924   0.16665   0.32681   0.00000  Uiso   1.00
O114   O     0.46177   0.10559   0.24999   0.00000  Uiso   1.00
O115   O     0.53821   0.10558   0.24999   0.00000  Uiso   1.00
O116   O     0.48076   0.16668   0.17319   0.00000  Uiso   1.00
O117   O     0.55720   0.16667   0.17319   0.00000  Uiso   1.00
Zn118  Zn    0.44896   0.16667   0.25000   0.00000  Uiso   1.00
Zn119  Zn    0.55104   0.16666   0.25000   0.00000  Uiso   1.00
H120   H     0.61045   0.13317   0.07969   0.00000  Uiso   1.00
S121   S     0.39249   0.08778   0.19331   0.00000  Uiso   1.00
O122   O     0.39060   0.05839   0.23760   0.00000  Uiso   1.00
O123   O     0.36702   0.06642   0.15832   0.00000  Uiso   1.00
O124   O     0.44908   0.09579   0.15328   0.00000  Uiso   1.00
H125   H     0.46233   0.06732   0.14344   0.00000  Uiso   1.00
S126   S     0.60731   0.24535   0.30721   0.00000  Uiso   1.00
O127   O     0.63259   0.26647   0.34257   0.00000  Uiso   1.00
O128   O     0.60948   0.27499   0.26307   0.00000  Uiso   1.00
O129   O     0.55062   0.23731   0.34694   0.00000  Uiso   1.00
H130   H     0.53724   0.26577   0.35633   0.00000  Uiso   1.00
S131   S     0.61314   0.08397   0.39019   0.00000  Uiso   1.00
O132   O     0.65652   0.11239   0.37819   0.00000  Uiso   1.00
O133   O     0.61916   0.04690   0.42102   0.00000  Uiso   1.00
O134   O     0.60707   0.06673   0.33110   0.00000  Uiso   1.00
H135   H     0.63367   0.04729   0.31466   0.00000  Uiso   1.00
H136   H     0.62535   0.10917   0.48610   0.00000  Uiso   1.00
C137   C     0.83376   0.24655   0.25053   0.00000  Uiso   1.00
C138   C     0.81017   0.15277   0.49174   0.00000  Uiso   1.00
C139   C     0.82012   0.14323   0.43627   0.00000  Uiso   1.00
C140   C     0.84711   0.14908   0.01345   0.00000  Uiso   1.00
C141   C     0.89004   0.12843   0.48320   0.00000  Uiso   1.00
C142   C     0.89567   0.11214   0.43041   0.00000  Uiso   1.00
C143   C     0.86062   0.11959   0.40784   0.00000  Uiso   1.00
C144   C     0.84282   0.16728   0.06403   0.00000  Uiso   1.00
C145   C     0.91781   0.13924   0.06045   0.00000  Uiso   1.00
C146   C     0.78950   0.15831   0.41051   0.00000  Uiso   1.00
C147   C     0.87323   0.31210   0.21593   0.00000  Uiso   1.00
C148   C     0.80679   0.16394   0.35181   0.00000  Uiso   1.00
C149   C     0.87239   0.02179   0.21496   0.00000  Uiso   1.00
C150   C     0.83238   0.04260   0.24910   0.00000  Uiso   1.00
C151   C     0.79343   0.02129   0.28465   0.00000  Uiso   1.00
C152   C     0.79427   0.31158   0.28559   0.00000  Uiso   1.00
C153   C     0.83425   0.29077   0.25135   0.00000  Uiso   1.00
C154   C     0.98141   0.13514   0.22487   0.00000  Uiso   1.00
C155   C     0.69570   0.13449   0.22426   0.00000  Uiso   1.00
C156   C     0.68518   0.19810   0.27534   0.00000  Uiso   1.00
C157   C     0.97087   0.19873   0.27599   0.00000  Uiso   1.00
C158   C     0.83286   0.08679   0.24966   0.00000  Uiso   1.00
C159   C     0.85987   0.16634   0.14787   0.00000  Uiso   1.00
C160   C     0.92554   0.12457   0.00719   0.00000  Uiso   1.00
C161   C     0.87565   0.15973   0.08918   0.00000  Uiso   1.00
C162   C     0.74421   0.17256   0.44182   0.00000  Uiso   1.00
C163   C     0.73082   0.17473   0.49817   0.00000  Uiso   1.00
C164   C     0.76377   0.16606   0.02314   0.00000  Uiso   1.00
H165   H     0.90251   0.03883   0.18756   0.00000  Uiso   1.00
H166   H     0.76313   0.03794   0.31195   0.00000  Uiso   1.00
H167   H     0.76416   0.29453   0.31298   0.00000  Uiso   1.00
H168   H     0.96689   0.11003   0.20575   0.00000  Uiso   1.00
H169   H     0.69964   0.22315   0.29461   0.00000  Uiso   1.00
H170   H     0.81297   0.18668   0.08571   0.00000  Uiso   1.00
H171   H     0.71965   0.18299   0.42274   0.00000  Uiso   1.00
H172   H     0.75178   0.16894   0.06701   0.00000  Uiso   1.00
H173   H     0.69558   0.18501   0.02244   0.00000  Uiso   1.00
H174   H     0.86483   0.10625   0.36785   0.00000  Uiso   1.00
H175   H     0.90355   0.29547   0.18863   0.00000  Uiso   1.00
N176   N     0.71426   0.16668   0.25001   0.00000  Uiso   1.00
N177   N     0.95239   0.16665   0.25000   0.00000  Uiso   1.00
O178   O     0.79512   0.22775   0.25000   0.00000  Uiso   1.00
O179   O     0.87157   0.22774   0.25000   0.00000  Uiso   1.00
O180   O     0.77613   0.16666   0.32681   0.00000  Uiso   1.00
O181   O     0.85258   0.16665   0.32681   0.00000  Uiso   1.00
O182   O     0.79510   0.10559   0.24999   0.00000  Uiso   1.00
O183   O     0.87154   0.10558   0.24999   0.00000  Uiso   1.00
O184   O     0.81409   0.16668   0.17319   0.00000  Uiso   1.00
O185   O     0.89053   0.16667   0.17319   0.00000  Uiso   1.00
Zn186  Zn    0.78229   0.16667   0.25000   0.00000  Uiso   1.00
Zn187  Zn    0.88438   0.16666   0.25000   0.00000  Uiso   1.00
H188   H     0.94378   0.13317   0.07969   0.00000  Uiso   1.00
S189   S     0.72583   0.08778   0.19331   0.00000  Uiso   1.00
O190   O     0.72394   0.05839   0.23760   0.00000  Uiso   1.00
O191   O     0.70036   0.06642   0.15832   0.00000  Uiso   1.00
O192   O     0.78241   0.09579   0.15328   0.00000  Uiso   1.00
H193   H     0.79566   0.06732   0.14344   0.00000  Uiso   1.00
S194   S     0.94064   0.24535   0.30721   0.00000  Uiso   1.00
O195   O     0.96592   0.26647   0.34257   0.00000  Uiso   1.00
O196   O     0.94281   0.27499   0.26307   0.00000  Uiso   1.00
O197   O     0.88395   0.23731   0.34694   0.00000  Uiso   1.00
H198   H     0.87058   0.26577   0.35633   0.00000  Uiso   1.00
S199   S     0.94647   0.08397   0.39019   0.00000  Uiso   1.00
O200   O     0.98985   0.11239   0.37819   0.00000  Uiso   1.00
O201   O     0.95250   0.04690   0.42102   0.00000  Uiso   1.00
O202   O     0.94040   0.06673   0.33110   0.00000  Uiso   1.00
H203   H     0.96701   0.04729   0.31466   0.00000  Uiso   1.00
H204   H     0.95868   0.10917   0.48610   0.00000  Uiso   1.00
C205   C     0.16709   0.57988   0.25053   0.00000  Uiso   1.00
C206   C     0.14350   0.48611   0.49174   0.00000  Uiso   1.00
C207   C     0.15345   0.47657   0.43627   0.00000  Uiso   1.00
C208   C     0.18044   0.48242   0.01345   0.00000  Uiso   1.00
C209   C     0.22337   0.46176   0.48320   0.00000  Uiso   1.00
C210   C     0.22900   0.44547   0.43041   0.00000  Uiso   1.00
C211   C     0.19395   0.45292   0.40784   0.00000  Uiso   1.00
C212   C     0.17615   0.50061   0.06403   0.00000  Uiso   1.00
C213   C     0.25115   0.47257   0.06045   0.00000  Uiso   1.00
C214   C     0.12283   0.49165   0.41051   0.00000  Uiso   1.00
C215   C     0.20657   0.64543   0.21593   0.00000  Uiso   1.00
C216   C     0.14012   0.49727   0.35181   0.00000  Uiso   1.00
C217   C     0.20572   0.35513   0.21496   0.00000  Uiso   1.00
C218   C     0.16571   0.37593   0.24910   0.00000  Uiso   1.00
C219   C     0.12677   0.35462   0.28465   0.00000  Uiso   1.00
C220   C     0.12760   0.64491   0.28559   0.00000  Uiso   1.00
C221   C     0.16758   0.62410   0.25135   0.00000  Uiso   1.00
C222   C     0.31475   0.46847   0.22487   0.00000  Uiso   1.00
C223   C     0.02904   0.46782   0.22426   0.00000  Uiso   1.00
C224   C     0.01851   0.53143   0.27534   0.00000  Uiso   1.00
C225   C     0.30420   0.53206   0.27599   0.00000  Uiso   1.00
C226   C     0.16620   0.42013   0.24966   0.00000  Uiso   1.00
C227   C     0.19320   0.49967   0.14787   0.00000  Uiso   1.00
C228   C     0.25887   0.45790   0.00719   0.00000  Uiso   1.00
C229   C     0.20899   0.49306   0.08918   0.00000  Uiso   1.00
C230   C     0.07754   0.50590   0.44182   0.00000  Uiso   1.00
C231   C     0.06415   0.50806   0.49817   0.00000  Uiso   1.00
C232   C     0.09711   0.49939   0.02314   0.00000  Uiso   1.00
H233   H     0.23584   0.37216   0.18756   0.00000  Uiso   1.00
H234   H     0.09646   0.37128   0.31195   0.00000  Uiso   1.00
H235   H     0.09749   0.62786   0.31298   0.00000  Uiso   1.00
H236   H     0.30023   0.44336   0.20575   0.00000  Uiso   1.00
H237   H     0.03297   0.55649   0.29461   0.00000  Uiso   1.00
H238   H     0.14630   0.52002   0.08571   0.00000  Uiso   1.00
H239   H     0.05298   0.51633   0.42274   0.00000  Uiso   1.00
H240   H     0.08511   0.50228   0.06701   0.00000  Uiso   1.00
H241   H     0.02891   0.51835   0.02244   0.00000  Uiso   1.00
H242   H     0.19817   0.43958   0.36785   0.00000  Uiso   1.00
H243   H     0.23688   0.62880   0.18863   0.00000  Uiso   1.00
N244   N     0.04760   0.50001   0.25001   0.00000  Uiso   1.00
N245   N     0.28573   0.49998   0.25000   0.00000  Uiso   1.00
O246   O     0.12846   0.56108   0.25000   0.00000  Uiso   1.00
O247   O     0.20490   0.56107   0.25000   0.00000  Uiso   1.00
O248   O     0.10947   0.50000   0.32681   0.00000  Uiso   1.00
O249   O     0.18591   0.49999   0.32681   0.00000  Uiso   1.00
O250   O     0.12843   0.43893   0.24999   0.00000  Uiso   1.00
O251   O     0.20488   0.43892   0.24999   0.00000  Uiso   1.00
O252   O     0.14742   0.50001   0.17319   0.00000  Uiso   1.00
O253   O     0.22387   0.50000   0.17319   0.00000  Uiso   1.00
Zn254  Zn    0.11562   0.50001   0.25000   0.00000  Uiso   1.00
Zn255  Zn    0.21771   0.49999   0.25000   0.00000  Uiso   1.00
H256   H     0.27711   0.46650   0.07969   0.00000  Uiso   1.00
S257   S     0.05916   0.42112   0.19331   0.00000  Uiso   1.00
O258   O     0.05727   0.39172   0.23760   0.00000  Uiso   1.00
O259   O     0.03369   0.39975   0.15832   0.00000  Uiso   1.00
O260   O     0.11574   0.42913   0.15328   0.00000  Uiso   1.00
H261   H     0.12900   0.40065   0.14344   0.00000  Uiso   1.00
S262   S     0.27398   0.57868   0.30721   0.00000  Uiso   1.00
O263   O     0.29926   0.59980   0.34257   0.00000  Uiso   1.00
O264   O     0.27615   0.60832   0.26307   0.00000  Uiso   1.00
O265   O     0.21728   0.57064   0.34694   0.00000  Uiso   1.00
H266   H     0.20391   0.59910   0.35633   0.00000  Uiso   1.00
S267   S     0.27980   0.41731   0.39019   0.00000  Uiso   1.00
O268   O     0.32318   0.44572   0.37819   0.00000  Uiso   1.00
O269   O     0.28583   0.38024   0.42102   0.00000  Uiso   1.00
O270   O     0.27373   0.40006   0.33110   0.00000  Uiso   1.00
H271   H     0.30034   0.38063   0.31466   0.00000  Uiso   1.00
H272   H     0.29201   0.44250   0.48610   0.00000  Uiso   1.00
C273   C     0.50042   0.57988   0.25053   0.00000  Uiso   1.00
C274   C     0.47684   0.48611   0.49174   0.00000  Uiso   1.00
C275   C     0.48679   0.47657   0.43627   0.00000  Uiso   1.00
C276   C     0.51377   0.48242   0.01345   0.00000  Uiso   1.00
C277   C     0.55670   0.46176   0.48320   0.00000  Uiso   1.00
C278   C     0.56234   0.44547   0.43041   0.00000  Uiso   1.00
C279   C     0.52729   0.45292   0.40784   0.00000  Uiso   1.00
C280   C     0.50949   0.50061   0.06403   0.00000  Uiso   1.00
C281   C     0.58448   0.47257   0.06045   0.00000  Uiso   1.00
C282   C     0.45616   0.49165   0.41051   0.00000  Uiso   1.00
C283   C     0.53990   0.64543   0.21593   0.00000  Uiso   1.00
C284   C     0.47345   0.49727   0.35181   0.00000  Uiso   1.00
C285   C     0.53906   0.35513   0.21496   0.00000  Uiso   1.00
C286   C     0.49904   0.37593   0.24910   0.00000  Uiso   1.00
C287   C     0.46010   0.35462   0.28465   0.00000  Uiso   1.00
C288   C     0.46094   0.64491   0.28559   0.00000  Uiso   1.00
C289   C     0.50092   0.62410   0.25135   0.00000  Uiso   1.00
C290   C     0.64808   0.46847   0.22487   0.00000  Uiso   1.00
C291   C     0.36237   0.46782   0.22426   0.00000  Uiso   1.00
C292   C     0.35184   0.53143   0.27534   0.00000  Uiso   1.00
C293   C     0.63753   0.53206   0.27599   0.00000  Uiso   1.00
C294   C     0.49953   0.42013   0.24966   0.00000  Uiso   1.00
C295   C     0.52653   0.49967   0.14787   0.00000  Uiso   1.00
C296   C     0.59221   0.45790   0.00719   0.00000  Uiso   1.00
C297   C     0.54232   0.49306   0.08918   0.00000  Uiso   1.00
C298   C     0.41087   0.50590   0.44182   0.00000  Uiso   1.00
C299   C     0.39748   0.50806   0.49817   0.00000  Uiso   1.00
C300   C     0.43044   0.49939   0.02314   0.00000  Uiso   1.00
H301   H     0.56917   0.37216   0.18756   0.00000  Uiso   1.00
H302   H     0.42980   0.37128   0.31195   0.00000  Uiso   1.00
H303   H     0.43082   0.62786   0.31298   0.00000  Uiso   1.00
H304   H     0.63356   0.44336   0.20575   0.00000  Uiso   1.00
H305   H     0.36631   0.55649   0.29461   0.00000  Uiso   1.00
H306   H     0.47964   0.52002   0.08571   0.00000  Uiso   1.00
H307   H     0.38631   0.51633   0.42274   0.00000  Uiso   1.00
H308   H     0.41845   0.50228   0.06701   0.00000  Uiso   1.00
H309   H     0.36224   0.51835   0.02244   0.00000  Uiso   1.00
H310   H     0.53150   0.43958   0.36785   0.00000  Uiso   1.00
H311   H     0.57021   0.62880   0.18863   0.00000  Uiso   1.00
N312   N     0.38093   0.50001   0.25001   0.00000  Uiso   1.00
N313   N     0.61906   0.49998   0.25000   0.00000  Uiso   1.00
O314   O     0.46179   0.56108   0.25000   0.00000  Uiso   1.00
O315   O     0.53823   0.56107   0.25000   0.00000  Uiso   1.00
O316   O     0.44280   0.50000   0.32681   0.00000  Uiso   1.00
O317   O     0.51924   0.49999   0.32681   0.00000  Uiso   1.00
O318   O     0.46177   0.43893   0.24999   0.00000  Uiso   1.00
O319   O     0.53821   0.43892   0.24999   0.00000  Uiso   1.00
O320   O     0.48076   0.50001   0.17319   0.00000  Uiso   1.00
O321   O     0.55720   0.50000   0.17319   0.00000  Uiso   1.00
Zn322  Zn    0.44896   0.50001   0.25000   0.00000  Uiso   1.00
Zn323  Zn    0.55104   0.49999   0.25000   0.00000  Uiso   1.00
H324   H     0.61045   0.46650   0.07969   0.00000  Uiso   1.00
S325   S     0.39249   0.42112   0.19331   0.00000  Uiso   1.00
O326   O     0.39060   0.39172   0.23760   0.00000  Uiso   1.00
O327   O     0.36702   0.39975   0.15832   0.00000  Uiso   1.00
O328   O     0.44908   0.42913   0.15328   0.00000  Uiso   1.00
H329   H     0.46233   0.40065   0.14344   0.00000  Uiso   1.00
S330   S     0.60731   0.57868   0.30721   0.00000  Uiso   1.00
O331   O     0.63259   0.59980   0.34257   0.00000  Uiso   1.00
O332   O     0.60948   0.60832   0.26307   0.00000  Uiso   1.00
O333   O     0.55062   0.57064   0.34694   0.00000  Uiso   1.00
H334   H     0.53724   0.59910   0.35633   0.00000  Uiso   1.00
S335   S     0.61314   0.41731   0.39019   0.00000  Uiso   1.00
O336   O     0.65652   0.44572   0.37819   0.00000  Uiso   1.00
O337   O     0.61916   0.38024   0.42102   0.00000  Uiso   1.00
O338   O     0.60707   0.40006   0.33110   0.00000  Uiso   1.00
H339   H     0.63367   0.38063   0.31466   0.00000  Uiso   1.00
H340   H     0.62535   0.44250   0.48610   0.00000  Uiso   1.00
C341   C     0.83376   0.57988   0.25053   0.00000  Uiso   1.00
C342   C     0.81017   0.48611   0.49174   0.00000  Uiso   1.00
C343   C     0.82012   0.47657   0.43627   0.00000  Uiso   1.00
C344   C     0.84711   0.48242   0.01345   0.00000  Uiso   1.00
C345   C     0.89004   0.46176   0.48320   0.00000  Uiso   1.00
C346   C     0.89567   0.44547   0.43041   0.00000  Uiso   1.00
C347   C     0.86062   0.45292   0.40784   0.00000  Uiso   1.00
C348   C     0.84282   0.50061   0.06403   0.00000  Uiso   1.00
C349   C     0.91781   0.47257   0.06045   0.00000  Uiso   1.00
C350   C     0.78950   0.49165   0.41051   0.00000  Uiso   1.00
C351   C     0.87323   0.64543   0.21593   0.00000  Uiso   1.00
C352   C     0.80679   0.49727   0.35181   0.00000  Uiso   1.00
C353   C     0.87239   0.35513   0.21496   0.00000  Uiso   1.00
C354   C     0.83238   0.37593   0.24910   0.00000  Uiso   1.00
C355   C     0.79343   0.35462   0.28465   0.00000  Uiso   1.00
C356   C     0.79427   0.64491   0.28559   0.00000  Uiso   1.00
C357   C     0.83425   0.62410   0.25135   0.00000  Uiso   1.00
C358   C     0.98141   0.46847   0.22487   0.00000  Uiso   1.00
C359   C     0.69570   0.46782   0.22426   0.00000  Uiso   1.00
C360   C     0.68518   0.53143   0.27534   0.00000  Uiso   1.00
C361   C     0.97087   0.53206   0.27599   0.00000  Uiso   1.00
C362   C     0.83286   0.42013   0.24966   0.00000  Uiso   1.00
C363   C     0.85987   0.49967   0.14787   0.00000  Uiso   1.00
C364   C     0.92554   0.45790   0.00719   0.00000  Uiso   1.00
C365   C     0.87565   0.49306   0.08918   0.00000  Uiso   1.00
C366   C     0.74421   0.50590   0.44182   0.00000  Uiso   1.00
C367   C     0.73082   0.50806   0.49817   0.00000  Uiso   1.00
C368   C     0.76377   0.49939   0.02314   0.00000  Uiso   1.00
H369   H     0.90251   0.37216   0.18756   0.00000  Uiso   1.00
H370   H     0.76313   0.37128   0.31195   0.00000  Uiso   1.00
H371   H     0.76416   0.62786   0.31298   0.00000  Uiso   1.00
H372   H     0.96689   0.44336   0.20575   0.00000  Uiso   1.00
H373   H     0.69964   0.55649   0.29461   0.00000  Uiso   1.00
H374   H     0.81297   0.52002   0.08571   0.00000  Uiso   1.00
H375   H     0.71965   0.51633   0.42274   0.00000  Uiso   1.00
H376   H     0.75178   0.50228   0.06701   0.00000  Uiso   1.00
H377   H     0.69558   0.51835   0.02244   0.00000  Uiso   1.00
H378   H     0.86483   0.43958   0.36785   0.00000  Uiso   1.00
H379   H     0.90355   0.62880   0.18863   0.00000  Uiso   1.00
N380   N     0.71426   0.50001   0.25001   0.00000  Uiso   1.00
N381   N     0.95239   0.49998   0.25000   0.00000  Uiso   1.00
O382   O     0.79512   0.56108   0.25000   0.00000  Uiso   1.00
O383   O     0.87157   0.56107   0.25000   0.00000  Uiso   1.00
O384   O     0.77613   0.50000   0.32681   0.00000  Uiso   1.00
O385   O     0.85258   0.49999   0.32681   0.00000  Uiso   1.00
O386   O     0.79510   0.43893   0.24999   0.00000  Uiso   1.00
O387   O     0.87154   0.43892   0.24999   0.00000  Uiso   1.00
O388   O     0.81409   0.50001   0.17319   0.00000  Uiso   1.00
O389   O     0.89053   0.50000   0.17319   0.00000  Uiso   1.00
Zn390  Zn    0.78229   0.50001   0.25000   0.00000  Uiso   1.00
Zn391  Zn    0.88438   0.49999   0.25000   0.00000  Uiso   1.00
H392   H     0.94378   0.46650   0.07969   0.00000  Uiso   1.00
S393   S     0.72583   0.42112   0.19331   0.00000  Uiso   1.00
O394   O     0.72394   0.39172   0.23760   0.00000  Uiso   1.00
O395   O     0.70036   0.39975   0.15832   0.00000  Uiso   1.00
O396   O     0.78241   0.42913   0.15328   0.00000  Uiso   1.00
H397   H     0.79566   0.40065   0.14344   0.00000  Uiso   1.00
S398   S     0.94064   0.57868   0.30721   0.00000  Uiso   1.00
O399   O     0.96592   0.59980   0.34257   0.00000  Uiso   1.00
O400   O     0.94281   0.60832   0.26307   0.00000  Uiso   1.00
O401   O     0.88395   0.57064   0.34694   0.00000  Uiso   1.00
H402   H     0.87058   0.59910   0.35633   0.00000  Uiso   1.00
S403   S     0.94647   0.41731   0.39019   0.00000  Uiso   1.00
O404   O     0.98985   0.44572   0.37819   0.00000  Uiso   1.00
O405   O     0.95250   0.38024   0.42102   0.00000  Uiso   1.00
O406   O     0.94040   0.40006   0.33110   0.00000  Uiso   1.00
H407   H     0.96701   0.38063   0.31466   0.00000  Uiso   1.00
H408   H     0.95868   0.44250   0.48610   0.00000  Uiso   1.00
C409   C     0.16709   0.91321   0.25053   0.00000  Uiso   1.00
C410   C     0.14350   0.81944   0.49174   0.00000  Uiso   1.00
C411   C     0.15345   0.80990   0.43627   0.00000  Uiso   1.00
C412   C     0.18044   0.81575   0.01345   0.00000  Uiso   1.00
C413   C     0.22337   0.79510   0.48320   0.00000  Uiso   1.00
C414   C     0.22900   0.77880   0.43041   0.00000  Uiso   1.00
C415   C     0.19395   0.78625   0.40784   0.00000  Uiso   1.00
C416   C     0.17615   0.83395   0.06403   0.00000  Uiso   1.00
C417   C     0.25115   0.80591   0.06045   0.00000  Uiso   1.00
C418   C     0.12283   0.82498   0.41051   0.00000  Uiso   1.00
C419   C     0.20657   0.97876   0.21593   0.00000  Uiso   1.00
C420   C     0.14012   0.83061   0.35181   0.00000  Uiso   1.00
C421   C     0.20572   0.68846   0.21496   0.00000  Uiso   1.00
C422   C     0.16571   0.70926   0.24910   0.00000  Uiso   1.00
C423   C     0.12677   0.68796   0.28465   0.00000  Uiso   1.00
C424   C     0.12760   0.97824   0.28559   0.00000  Uiso   1.00
C425   C     0.16758   0.95743   0.25135   0.00000  Uiso   1.00
C426   C     0.31475   0.80180   0.22487   0.00000  Uiso   1.00
C427   C     0.02904   0.80116   0.22426   0.00000  Uiso   1.00
C428   C     0.01851   0.86477   0.27534   0.00000  Uiso   1.00
C429   C     0.30420   0.86540   0.27599   0.00000  Uiso   1.00
C430   C     0.16620   0.75346   0.24966   0.00000  Uiso   1.00
C431   C     0.19320   0.83301   0.14787   0.00000  Uiso   1.00
C432   C     0.25887   0.79123   0.00719   0.00000  Uiso   1.00
C433   C     0.20899   0.82640   0.08918   0.00000  Uiso   1.00
C434   C     0.07754   0.83923   0.44182   0.00000  Uiso   1.00
C435   C     0.06415   0.84139   0.49817   0.00000  Uiso   1.00
C436   C     0.09711   0.83273   0.02314   0.00000  Uiso   1.00
H437   H     0.23584   0.70550   0.18756   0.00000  Uiso   1.00
H438   H     0.09646   0.70461   0.31195   0.00000  Uiso   1.00
H439   H     0.09749   0.96120   0.31298   0.00000  Uiso   1.00
H440   H     0.30023   0.77669   0.20575   0.00000  Uiso   1.00
H441   H     0.03297   0.88982   0.29461   0.00000  Uiso   1.00
H442   H     0.14630   0.85335   0.08571   0.00000  Uiso   1.00
H443   H     0.05298   0.84966   0.42274   0.00000  Uiso   1.00
H444   H     0.08511   0.83561   0.06701   0.00000  Uiso   1.00
H445   H     0.02891   0.85168   0.02244   0.00000  Uiso   1.00
H446   H     0.19817   0.77292   0.36785   0.00000  Uiso   1.00
H447   H     0.23688   0.96213   0.18863   0.00000  Uiso   1.00
N448   N     0.04760   0.83334   0.25001   0.00000  Uiso   1.00
N449   N     0.28573   0.83331   0.25000   0.00000  Uiso   1.00
O450   O     0.12846   0.89442   0.25000   0.00000  Uiso   1.00
O451   O     0.20490   0.89441   0.25000   0.00000  Uiso   1.00
O452   O     0.10947   0.83333   0.32681   0.00000  Uiso   1.00
O453   O     0.18591   0.83332   0.32681   0.00000  Uiso   1.00
O454   O     0.12843   0.77226   0.24999   0.00000  Uiso   1.00
O455   O     0.20488   0.77225   0.24999   0.00000  Uiso   1.00
O456   O     0.14742   0.83335   0.17319   0.00000  Uiso   1.00
O457   O     0.22387   0.83334   0.17319   0.00000  Uiso   1.00
Zn458  Zn    0.11562   0.83334   0.25000   0.00000  Uiso   1.00
Zn459  Zn    0.21771   0.83333   0.25000   0.00000  Uiso   1.00
H460   H     0.27711   0.79984   0.07969   0.00000  Uiso   1.00
S461   S     0.05916   0.75445   0.19331   0.00000  Uiso   1.00
O462   O     0.05727   0.72505   0.23760   0.00000  Uiso   1.00
O463   O     0.03369   0.73309   0.15832   0.00000  Uiso   1.00
O464   O     0.11574   0.76246   0.15328   0.00000  Uiso   1.00
H465   H     0.12900   0.73399   0.14344   0.00000  Uiso   1.00
S466   S     0.27398   0.91202   0.30721   0.00000  Uiso   1.00
O467   O     0.29926   0.93314   0.34257   0.00000  Uiso   1.00
O468   O     0.27615   0.94165   0.26307   0.00000  Uiso   1.00
O469   O     0.21728   0.90397   0.34694   0.00000  Uiso   1.00
H470   H     0.20391   0.93244   0.35633   0.00000  Uiso   1.00
S471   S     0.27980   0.75064   0.39019   0.00000  Uiso   1.00
O472   O     0.32318   0.77906   0.37819   0.00000  Uiso   1.00
O473   O     0.28583   0.71357   0.42102   0.00000  Uiso   1.00
O474   O     0.27373   0.73340   0.33110   0.00000  Uiso   1.00
H475   H     0.30034   0.71396   0.31466   0.00000  Uiso   1.00
H476   H     0.29201   0.77583   0.48610   0.00000  Uiso   1.00
C477   C     0.50042   0.91321   0.25053   0.00000  Uiso   1.00
C478   C     0.47684   0.81944   0.49174   0.00000  Uiso   1.00
C479   C     0.48679   0.80990   0.43627   0.00000  Uiso   1.00
C480   C     0.51377   0.81575   0.01345   0.00000  Uiso   1.00
C481   C     0.55670   0.79510   0.48320   0.00000  Uiso   1.00
C482   C     0.56234   0.77880   0.43041   0.00000  Uiso   1.00
C483   C     0.52729   0.78625   0.40784   0.00000  Uiso   1.00
C484   C     0.50949   0.83395   0.06403   0.00000  Uiso   1.00
C485   C     0.58448   0.80591   0.06045   0.00000  Uiso   1.00
C486   C     0.45616   0.82498   0.41051   0.00000  Uiso   1.00
C487   C     0.53990   0.97876   0.21593   0.00000  Uiso   1.00
C488   C     0.47345   0.83061   0.35181   0.00000  Uiso   1.00
C489   C     0.53906   0.68846   0.21496   0.00000  Uiso   1.00
C490   C     0.49904   0.70926   0.24910   0.00000  Uiso   1.00
C491   C     0.46010   0.68796   0.28465   0.00000  Uiso   1.00
C492   C     0.46094   0.97824   0.28559   0.00000  Uiso   1.00
C493   C     0.50092   0.95743   0.25135   0.00000  Uiso   1.00
C494   C     0.64808   0.80180   0.22487   0.00000  Uiso   1.00
C495   C     0.36237   0.80116   0.22426   0.00000  Uiso   1.00
C496   C     0.35184   0.86477   0.27534   0.00000  Uiso   1.00
C497   C     0.63753   0.86540   0.27599   0.00000  Uiso   1.00
C498   C     0.49953   0.75346   0.24966   0.00000  Uiso   1.00
C499   C     0.52653   0.83301   0.14787   0.00000  Uiso   1.00
C500   C     0.59221   0.79123   0.00719   0.00000  Uiso   1.00
C501   C     0.54232   0.82640   0.08918   0.00000  Uiso   1.00
C502   C     0.41087   0.83923   0.44182   0.00000  Uiso   1.00
C503   C     0.39748   0.84139   0.49817   0.00000  Uiso   1.00
C504   C     0.43044   0.83273   0.02314   0.00000  Uiso   1.00
H505   H     0.56917   0.70550   0.18756   0.00000  Uiso   1.00
H506   H     0.42980   0.70461   0.31195   0.00000  Uiso   1.00
H507   H     0.43082   0.96120   0.31298   0.00000  Uiso   1.00
H508   H     0.63356   0.77669   0.20575   0.00000  Uiso   1.00
H509   H     0.36631   0.88982   0.29461   0.00000  Uiso   1.00
H510   H     0.47964   0.85335   0.08571   0.00000  Uiso   1.00
H511   H     0.38631   0.84966   0.42274   0.00000  Uiso   1.00
H512   H     0.41845   0.83561   0.06701   0.00000  Uiso   1.00
H513   H     0.36224   0.85168   0.02244   0.00000  Uiso   1.00
H514   H     0.53150   0.77292   0.36785   0.00000  Uiso   1.00
H515   H     0.57021   0.96213   0.18863   0.00000  Uiso   1.00
N516   N     0.38093   0.83334   0.25001   0.00000  Uiso   1.00
N517   N     0.61906   0.83331   0.25000   0.00000  Uiso   1.00
O518   O     0.46179   0.89442   0.25000   0.00000  Uiso   1.00
O519   O     0.53823   0.89441   0.25000   0.00000  Uiso   1.00
O520   O     0.44280   0.83333   0.32681   0.00000  Uiso   1.00
O521   O     0.51924   0.83332   0.32681   0.00000  Uiso   1.00
O522   O     0.46177   0.77226   0.24999   0.00000  Uiso   1.00
O523   O     0.53821   0.77225   0.24999   0.00000  Uiso   1.00
O524   O     0.48076   0.83335   0.17319   0.00000  Uiso   1.00
O525   O     0.55720   0.83334   0.17319   0.00000  Uiso   1.00
Zn526  Zn    0.44896   0.83334   0.25000   0.00000  Uiso   1.00
Zn527  Zn    0.55104   0.83333   0.25000   0.00000  Uiso   1.00
H528   H     0.61045   0.79984   0.07969   0.00000  Uiso   1.00
S529   S     0.39249   0.75445   0.19331   0.00000  Uiso   1.00
O530   O     0.39060   0.72505   0.23760   0.00000  Uiso   1.00
O531   O     0.36702   0.73309   0.15832   0.00000  Uiso   1.00
O532   O     0.44908   0.76246   0.15328   0.00000  Uiso   1.00
H533   H     0.46233   0.73399   0.14344   0.00000  Uiso   1.00
S534   S     0.60731   0.91202   0.30721   0.00000  Uiso   1.00
O535   O     0.63259   0.93314   0.34257   0.00000  Uiso   1.00
O536   O     0.60948   0.94165   0.26307   0.00000  Uiso   1.00
O537   O     0.55062   0.90397   0.34694   0.00000  Uiso   1.00
H538   H     0.53724   0.93244   0.35633   0.00000  Uiso   1.00
S539   S     0.61314   0.75064   0.39019   0.00000  Uiso   1.00
O540   O     0.65652   0.77906   0.37819   0.00000  Uiso   1.00
O541   O     0.61916   0.71357   0.42102   0.00000  Uiso   1.00
O542   O     0.60707   0.73340   0.33110   0.00000  Uiso   1.00
H543   H     0.63367   0.71396   0.31466   0.00000  Uiso   1.00
H544   H     0.62535   0.77583   0.48610   0.00000  Uiso   1.00
C545   C     0.83376   0.91321   0.25053   0.00000  Uiso   1.00
C546   C     0.81017   0.81944   0.49174   0.00000  Uiso   1.00
C547   C     0.82012   0.80990   0.43627   0.00000  Uiso   1.00
C548   C     0.84711   0.81575   0.01345   0.00000  Uiso   1.00
C549   C     0.89004   0.79510   0.48320   0.00000  Uiso   1.00
C550   C     0.89567   0.77880   0.43041   0.00000  Uiso   1.00
C551   C     0.86062   0.78625   0.40784   0.00000  Uiso   1.00
C552   C     0.84282   0.83395   0.06403   0.00000  Uiso   1.00
C553   C     0.91781   0.80591   0.06045   0.00000  Uiso   1.00
C554   C     0.78950   0.82498   0.41051   0.00000  Uiso   1.00
C555   C     0.87323   0.97876   0.21593   0.00000  Uiso   1.00
C556   C     0.80679   0.83061   0.35181   0.00000  Uiso   1.00
C557   C     0.87239   0.68846   0.21496   0.00000  Uiso   1.00
C558   C     0.83238   0.70926   0.24910   0.00000  Uiso   1.00
C559   C     0.79343   0.68796   0.28465   0.00000  Uiso   1.00
C560   C     0.79427   0.97824   0.28559   0.00000  Uiso   1.00
C561   C     0.83425   0.95743   0.25135   0.00000  Uiso   1.00
C562   C     0.98141   0.80180   0.22487   0.00000  Uiso   1.00
C563   C     0.69570   0.80116   0.22426   0.00000  Uiso   1.00
C564   C     0.68518   0.86477   0.27534   0.00000  Uiso   1.00
C565   C     0.97087   0.86540   0.27599   0.00000  Uiso   1.00
C566   C     0.83286   0.75346   0.24966   0.00000  Uiso   1.00
C567   C     0.85987   0.83301   0.14787   0.00000  Uiso   1.00
C568   C     0.92554   0.79123   0.00719   0.00000  Uiso   1.00
C569   C     0.87565   0.82640   0.08918   0.00000  Uiso   1.00
C570   C     0.74421   0.83923   0.44182   0.00000  Uiso   1.00
C571   C     0.73082   0.84139   0.49817   0.00000  Uiso   1.00
C572   C     0.76377   0.83273   0.02314   0.00000  Uiso   1.00
H573   H     0.90251   0.70550   0.18756   0.00000  Uiso   1.00
H574   H     0.76313   0.70461   0.31195   0.00000  Uiso   1.00
H575   H     0.76416   0.96120   0.31298   0.00000  Uiso   1.00
H576   H     0.96689   0.77669   0.20575   0.00000  Uiso   1.00
H577   H     0.69964   0.88982   0.29461   0.00000  Uiso   1.00
H578   H     0.81297   0.85335   0.08571   0.00000  Uiso   1.00
H579   H     0.71965   0.84966   0.42274   0.00000  Uiso   1.00
H580   H     0.75178   0.83561   0.06701   0.00000  Uiso   1.00
H581   H     0.69558   0.85168   0.02244   0.00000  Uiso   1.00
H582   H     0.86483   0.77292   0.36785   0.00000  Uiso   1.00
H583   H     0.90355   0.96213   0.18863   0.00000  Uiso   1.00
N584   N     0.71426   0.83334   0.25001   0.00000  Uiso   1.00
N585   N     0.95239   0.83331   0.25000   0.00000  Uiso   1.00
O586   O     0.79512   0.89442   0.25000   0.00000  Uiso   1.00
O587   O     0.87157   0.89441   0.25000   0.00000  Uiso   1.00
O588   O     0.77613   0.83333   0.32681   0.00000  Uiso   1.00
O589   O     0.85258   0.83332   0.32681   0.00000  Uiso   1.00
O590   O     0.79510   0.77226   0.24999   0.00000  Uiso   1.00
O591   O     0.87154   0.77225   0.24999   0.00000  Uiso   1.00
O592   O     0.81409   0.83335   0.17319   0.00000  Uiso   1.00
O593   O     0.89053   0.83334   0.17319   0.00000  Uiso   1.00
Zn594  Zn    0.78229   0.83334   0.25000   0.00000  Uiso   1.00
Zn595  Zn    0.88438   0.83333   0.25000   0.00000  Uiso   1.00
H596   H     0.94378   0.79984   0.07969   0.00000  Uiso   1.00
S597   S     0.72583   0.75445   0.19331   0.00000  Uiso   1.00
O598   O     0.72394   0.72505   0.23760   0.00000  Uiso   1.00
O599   O     0.70036   0.73309   0.15832   0.00000  Uiso   1.00
O600   O     0.78241   0.76246   0.15328   0.00000  Uiso   1.00
H601   H     0.79566   0.73399   0.14344   0.00000  Uiso   1.00
S602   S     0.94064   0.91202   0.30721   0.00000  Uiso   1.00
O603   O     0.96592   0.93314   0.34257   0.00000  Uiso   1.00
O604   O     0.94281   0.94165   0.26307   0.00000  Uiso   1.00
O605   O     0.88395   0.90397   0.34694   0.00000  Uiso   1.00
H606   H     0.87058   0.93244   0.35633   0.00000  Uiso   1.00
S607   S     0.94647   0.75064   0.39019   0.00000  Uiso   1.00
O608   O     0.98985   0.77906   0.37819   0.00000  Uiso   1.00
O609   O     0.95250   0.71357   0.42102   0.00000  Uiso   1.00
O610   O     0.94040   0.73340   0.33110   0.00000  Uiso   1.00
H611   H     0.96701   0.71396   0.31466   0.00000  Uiso   1.00
H612   H     0.95868   0.77583   0.48610   0.00000  Uiso   1.00
C613   C     0.16709   0.24655   0.75053   0.00000  Uiso   1.00
C614   C     0.14350   0.15277   0.99174   0.00000  Uiso   1.00
C615   C     0.15345   0.14323   0.93627   0.00000  Uiso   1.00
C616   C     0.18044   0.14908   0.51345   0.00000  Uiso   1.00
C617   C     0.22337   0.12843   0.98320   0.00000  Uiso   1.00
C618   C     0.22900   0.11214   0.93041   0.00000  Uiso   1.00
C619   C     0.19395   0.11959   0.90784   0.00000  Uiso   1.00
C620   C     0.17615   0.16728   0.56403   0.00000  Uiso   1.00
C621   C     0.25115   0.13924   0.56045   0.00000  Uiso   1.00
C622   C     0.12283   0.15831   0.91051   0.00000  Uiso   1.00
C623   C     0.20657   0.31210   0.71593   0.00000  Uiso   1.00
C624   C     0.14012   0.16394   0.85181   0.00000  Uiso   1.00
C625   C     0.20572   0.02179   0.71496   0.00000  Uiso   1.00
C626   C     0.16571   0.04260   0.74910   0.00000  Uiso   1.00
C627   C     0.12677   0.02129   0.78465   0.00000  Uiso   1.00
C628   C     0.12760   0.31158   0.78559   0.00000  Uiso   1.00
C629   C     0.16758   0.29077   0.75135   0.00000  Uiso   1.00
C630   C     0.31475   0.13514   0.72487   0.00000  Uiso   1.00
C631   C     0.02904   0.13449   0.72426   0.00000  Uiso   1.00
C632   C     0.01851   0.19810   0.77534   0.00000  Uiso   1.00
C633   C     0.30420   0.19873   0.77599   0.00000  Uiso   1.00
C634   C     0.16620   0.08679   0.74966   0.00000  Uiso   1.00
C635   C     0.19320   0.16634   0.64787   0.00000  Uiso   1.00
C636   C     0.25887   0.12457   0.50719   0.00000  Uiso   1.00
C637   C     0.20899   0.15973   0.58918   0.00000  Uiso   1.00
C638   C     0.07754   0.17256   0.94182   0.00000  Uiso   1.00
C639   C     0.06415   0.17473   0.99817   0.00000  Uiso   1.00
C640   C     0.09711   0.16606   0.52314   0.00000  Uiso   1.00
H641   H     0.23584   0.03883   0.68756   0.00000  Uiso   1.00
H642   H     0.09646   0.03794   0.81195   0.00000  Uiso   1.00
H643   H     0.09749   0.29453   0.81298   0.00000  Uiso   1.00
H644   H     0.30023   0.11003   0.70575   0.00000  Uiso   1.00
H645   H     0.03297   0.22315   0.79461   0.00000  Uiso   1.00
H646   H     0.14630   0.18668   0.58571   0.00000  Uiso   1.00
H647   H     0.05298   0.18299   0.92274   0.00000  Uiso   1.00
H648   H     0.08511   0.16894   0.56701   0.00000  Uiso   1.00
H649   H     0.02891   0.18501   0.52244   0.00000  Uiso   1.00
H650   H     0.19817   0.10625   0.86785   0.00000  Uiso   1.00
H651   H     0.23688   0.29547   0.68863   0.00000  Uiso   1.00
N652   N     0.04760   0.16668   0.75001   0.00000  Uiso   1.00
N653   N     0.28573   0.16665   0.75000   0.00000  Uiso   1.00
O654   O     0.12846   0.22775   0.75000   0.00000  Uiso   1.00
O655   O     0.20490   0.22774   0.75000   0.00000  Uiso   1.00
O656   O     0.10947   0.16666   0.82681   0.00000  Uiso   1.00
O657   O     0.18591   0.16665   0.82681   0.00000  Uiso   1.00
O658   O     0.12843   0.10559   0.74999   0.00000  Uiso   1.00
O659   O     0.20488   0.10558   0.74999   0.00000  Uiso   1.00
O660   O     0.14742   0.16668   0.67319   0.00000  Uiso   1.00
O661   O     0.22387   0.16667   0.67319   0.00000  Uiso   1.00
Zn662  Zn    0.11562   0.16667   0.75000   0.00000  Uiso   1.00
Zn663  Zn    0.21771   0.16666   0.75000   0.00000  Uiso   1.00
H664   H     0.27711   0.13317   0.57969   0.00000  Uiso   1.00
S665   S     0.05916   0.08778   0.69331   0.00000  Uiso   1.00
O666   O     0.05727   0.05839   0.73760   0.00000  Uiso   1.00
O667   O     0.03369   0.06642   0.65832   0.00000  Uiso   1.00
O668   O     0.11574   0.09579   0.65328   0.00000  Uiso   1.00
H669   H     0.12900   0.06732   0.64344   0.00000  Uiso   1.00
S670   S     0.27398   0.24535   0.80721   0.00000  Uiso   1.00
O671   O     0.29926   0.26647   0.84257   0.00000  Uiso   1.00
O672   O     0.27615   0.27499   0.76307   0.00000  Uiso   1.00
O673   O     0.21728   0.23731   0.84694   0.00000  Uiso   1.00
H674   H     0.20391   0.26577   0.85633   0.00000  Uiso   1.00
S675   S     0.27980   0.08397   0.89019   0.00000  Uiso   1.00
O676   O     0.32318   0.11239   0.87819   0.00000  Uiso   1.00
O677   O     0.28583   0.04690   0.92102   0.00000  Uiso   1.00
O678   O     0.27373   0.06673   0.83110   0.00000  Uiso   1.00
H679   H     0.30034   0.04729   0.81466   0.00000  Uiso   1.00
H680   H     0.29201   0.10917   0.98610   0.00000  Uiso   1.00
C681   C     0.50042   0.24655   0.75053   0.00000  Uiso   1.00
C682   C     0.47684   0.15277   0.99174   0.00000  Uiso   1.00
C683   C     0.48679   0.14323   0.93627   0.00000  Uiso   1.00
C684   C     0.51377   0.14908   0.51345   0.00000  Uiso   1.00
C685   C     0.55670   0.12843   0.98320   0.00000  Uiso   1.00
C686   C     0.56234   0.11214   0.93041   0.00000  Uiso   1.00
C687   C     0.52729   0.11959   0.90784   0.00000  Uiso   1.00
C688   C     0.50949   0.16728   0.56403   0.00000  Uiso   1.00
C689   C     0.58448   0.13924   0.56045   0.00000  Uiso   1.00
C690   C     0.45616   0.15831   0.91051   0.00000  Uiso   1.00
C691   C     0.53990   0.31210   0.71593   0.00000  Uiso   1.00
C692   C     0.47345   0.16394   0.85181   0.00000  Uiso   1.00
C693   C     0.53906   0.02179   0.71496   0.00000  Uiso   1.00
C694   C     0.49904   0.04260   0.74910   0.00000  Uiso   1.00
C695   C     0.46010   0.02129   0.78465   0.00000  Uiso   1.00
C696   C     0.46094   0.31158   0.78559   0.00000  Uiso   1.00
C697   C     0.50092   0.29077   0.75135   0.00000  Uiso   1.00
C698   C     0.64808   0.13514   0.72487   0.00000  Uiso   1.00
C699   C     0.36237   0.13449   0.72426   0.00000  Uiso   1.00
C700   C     0.35184   0.19810   0.77534   0.00000  Uiso   1.00
C701   C     0.63753   0.19873   0.77599   0.00000  Uiso   1.00
C702   C     0.49953   0.08679   0.74966   0.00000  Uiso   1.00
C703   C     0.52653   0.16634   0.64787   0.00000  Uiso   1.00
C704   C     0.59221   0.12457   0.50719   0.00000  Uiso   1.00
C705   C     0.54232   0.15973   0.58918   0.00000  Uiso   1.00
C706   C     0.41087   0.17256   0.94182   0.00000  Uiso   1.00
C707   C     0.39748   0.17473   0.99817   0.00000  Uiso   1.00
C708   C     0.43044   0.16606   0.52314   0.00000  Uiso   1.00
H709   H     0.56917   0.03883   0.68756   0.00000  Uiso   1.00
H710   H     0.42980   0.03794   0.81195   0.00000  Uiso   1.00
H711   H     0.43082   0.29453   0.81298   0.00000  Uiso   1.00
H712   H     0.63356   0.11003   0.70575   0.00000  Uiso   1.00
H713   H     0.36631   0.22315   0.79461   0.00000  Uiso   1.00
H714   H     0.47964   0.18668   0.58571   0.00000  Uiso   1.00
H715   H     0.38631   0.18299   0.92274   0.00000  Uiso   1.00
H716   H     0.41845   0.16894   0.56701   0.00000  Uiso   1.00
H717   H     0.36224   0.18501   0.52244   0.00000  Uiso   1.00
H718   H     0.53150   0.10625   0.86785   0.00000  Uiso   1.00
H719   H     0.57021   0.29547   0.68863   0.00000  Uiso   1.00
N720   N     0.38093   0.16668   0.75001   0.00000  Uiso   1.00
N721   N     0.61906   0.16665   0.75000   0.00000  Uiso   1.00
O722   O     0.46179   0.22775   0.75000   0.00000  Uiso   1.00
O723   O     0.53823   0.22774   0.75000   0.00000  Uiso   1.00
O724   O     0.44280   0.16666   0.82681   0.00000  Uiso   1.00
O725   O     0.51924   0.16665   0.82681   0.00000  Uiso   1.00
O726   O     0.46177   0.10559   0.74999   0.00000  Uiso   1.00
O727   O     0.53821   0.10558   0.74999   0.00000  Uiso   1.00
O728   O     0.48076   0.16668   0.67319   0.00000  Uiso   1.00
O729   O     0.55720   0.16667   0.67319   0.00000  Uiso   1.00
Zn730  Zn    0.44896   0.16667   0.75000   0.00000  Uiso   1.00
Zn731  Zn    0.55104   0.16666   0.75000   0.00000  Uiso   1.00
H732   H     0.61045   0.13317   0.57969   0.00000  Uiso   1.00
S733   S     0.39249   0.08778   0.69331   0.00000  Uiso   1.00
O734   O     0.39060   0.05839   0.73760   0.00000  Uiso   1.00
O735   O     0.36702   0.06642   0.65832   0.00000  Uiso   1.00
O736   O     0.44908   0.09579   0.65328   0.00000  Uiso   1.00
H737   H     0.46233   0.06732   0.64344   0.00000  Uiso   1.00
S738   S     0.60731   0.24535   0.80721   0.00000  Uiso   1.00
O739   O     0.63259   0.26647   0.84257   0.00000  Uiso   1.00
O740   O     0.60948   0.27499   0.76307   0.00000  Uiso   1.00
O741   O     0.55062   0.23731   0.84694   0.00000  Uiso   1.00
H742   H     0.53724   0.26577   0.85633   0.00000  Uiso   1.00
S743   S     0.61314   0.08397   0.89019   0.00000  Uiso   1.00
O744   O     0.65652   0.11239   0.87819   0.00000  Uiso   1.00
O745   O     0.61916   0.04690   0.92102   0.00000  Uiso   1.00
O746   O     0.60707   0.06673   0.83110   0.00000  Uiso   1.00
H747   H     0.63367   0.04729   0.81466   0.00000  Uiso   1.00
H748   H     0.62535   0.10917   0.98610   0.00000  Uiso   1.00
C749   C     0.83376   0.24655   0.75053   0.00000  Uiso   1.00
C750   C     0.81017   0.15277   0.99174   0.00000  Uiso   1.00
C751   C     0.82012   0.14323   0.93627   0.00000  Uiso   1.00
C752   C     0.84711   0.14908   0.51345   0.00000  Uiso   1.00
C753   C     0.89004   0.12843   0.98320   0.00000  Uiso   1.00
C754   C     0.89567   0.11214   0.93041   0.00000  Uiso   1.00
C755   C     0.86062   0.11959   0.90784   0.00000  Uiso   1.00
C756   C     0.84282   0.16728   0.56403   0.00000  Uiso   1.00
C757   C     0.91781   0.13924   0.56045   0.00000  Uiso   1.00
C758   C     0.78950   0.15831   0.91051   0.00000  Uiso   1.00
C759   C     0.87323   0.31210   0.71593   0.00000  Uiso   1.00
C760   C     0.80679   0.16394   0.85181   0.00000  Uiso   1.00
C761   C     0.87239   0.02179   0.71496   0.00000  Uiso   1.00
C762   C     0.83238   0.04260   0.74910   0.00000  Uiso   1.00
C763   C     0.79343   0.02129   0.78465   0.00000  Uiso   1.00
C764   C     0.79427   0.31158   0.78559   0.00000  Uiso   1.00
C765   C     0.83425   0.29077   0.75135   0.00000  Uiso   1.00
C766   C     0.98141   0.13514   0.72487   0.00000  Uiso   1.00
C767   C     0.69570   0.13449   0.72426   0.00000  Uiso   1.00
C768   C     0.68518   0.19810   0.77534   0.00000  Uiso   1.00
C769   C     0.97087   0.19873   0.77599   0.00000  Uiso   1.00
C770   C     0.83286   0.08679   0.74966   0.00000  Uiso   1.00
C771   C     0.85987   0.16634   0.64787   0.00000  Uiso   1.00
C772   C     0.92554   0.12457   0.50719   0.00000  Uiso   1.00
C773   C     0.87565   0.15973   0.58918   0.00000  Uiso   1.00
C774   C     0.74421   0.17256   0.94182   0.00000  Uiso   1.00
C775   C     0.73082   0.17473   0.99817   0.00000  Uiso   1.00
C776   C     0.76377   0.16606   0.52314   0.00000  Uiso   1.00
H777   H     0.90251   0.03883   0.68756   0.00000  Uiso   1.00
H778   H     0.76313   0.03794   0.81195   0.00000  Uiso   1.00
H779   H     0.76416   0.29453   0.81298   0.00000  Uiso   1.00
H780   H     0.96689   0.11003   0.70575   0.00000  Uiso   1.00
H781   H     0.69964   0.22315   0.79461   0.00000  Uiso   1.00
H782   H     0.81297   0.18668   0.58571   0.00000  Uiso   1.00
H783   H     0.71965   0.18299   0.92274   0.00000  Uiso   1.00
H784   H     0.75178   0.16894   0.56701   0.00000  Uiso   1.00
H785   H     0.69558   0.18501   0.52244   0.00000  Uiso   1.00
H786   H     0.86483   0.10625   0.86785   0.00000  Uiso   1.00
H787   H     0.90355   0.29547   0.68863   0.00000  Uiso   1.00
N788   N     0.71426   0.16668   0.75001   0.00000  Uiso   1.00
N789   N     0.95239   0.16665   0.75000   0.00000  Uiso   1.00
O790   O     0.79512   0.22775   0.75000   0.00000  Uiso   1.00
O791   O     0.87157   0.22774   0.75000   0.00000  Uiso   1.00
O792   O     0.77613   0.16666   0.82681   0.00000  Uiso   1.00
O793   O     0.85258   0.16665   0.82681   0.00000  Uiso   1.00
O794   O     0.79510   0.10559   0.74999   0.00000  Uiso   1.00
O795   O     0.87154   0.10558   0.74999   0.00000  Uiso   1.00
O796   O     0.81409   0.16668   0.67319   0.00000  Uiso   1.00
O797   O     0.89053   0.16667   0.67319   0.00000  Uiso   1.00
Zn798  Zn    0.78229   0.16667   0.75000   0.00000  Uiso   1.00
Zn799  Zn    0.88438   0.16666   0.75000   0.00000  Uiso   1.00
H800   H     0.94378   0.13317   0.57969   0.00000  Uiso   1.00
S801   S     0.72583   0.08778   0.69331   0.00000  Uiso   1.00
O802   O     0.72394   0.05839   0.73760   0.00000  Uiso   1.00
O803   O     0.70036   0.06642   0.65832   0.00000  Uiso   1.00
O804   O     0.78241   0.09579   0.65328   0.00000  Uiso   1.00
H805   H     0.79566   0.06732   0.64344   0.00000  Uiso   1.00
S806   S     0.94064   0.24535   0.80721   0.00000  Uiso   1.00
O807   O     0.96592   0.26647   0.84257   0.00000  Uiso   1.00
O808   O     0.94281   0.27499   0.76307   0.00000  Uiso   1.00
O809   O     0.88395   0.23731   0.84694   0.00000  Uiso   1.00
H810   H     0.87058   0.26577   0.85633   0.00000  Uiso   1.00
S811   S     0.94647   0.08397   0.89019   0.00000  Uiso   1.00
O812   O     0.98985   0.11239   0.87819   0.00000  Uiso   1.00
O813   O     0.95250   0.04690   0.92102   0.00000  Uiso   1.00
O814   O     0.94040   0.06673   0.83110   0.00000  Uiso   1.00
H815   H     0.96701   0.04729   0.81466   0.00000  Uiso   1.00
H816   H     0.95868   0.10917   0.98610   0.00000  Uiso   1.00
C817   C     0.16709   0.57988   0.75053   0.00000  Uiso   1.00
C818   C     0.14350   0.48611   0.99174   0.00000  Uiso   1.00
C819   C     0.15345   0.47657   0.93627   0.00000  Uiso   1.00
C820   C     0.18044   0.48242   0.51345   0.00000  Uiso   1.00
C821   C     0.22337   0.46176   0.98320   0.00000  Uiso   1.00
C822   C     0.22900   0.44547   0.93041   0.00000  Uiso   1.00
C823   C     0.19395   0.45292   0.90784   0.00000  Uiso   1.00
C824   C     0.17615   0.50061   0.56403   0.00000  Uiso   1.00
C825   C     0.25115   0.47257   0.56045   0.00000  Uiso   1.00
C826   C     0.12283   0.49165   0.91051   0.00000  Uiso   1.00
C827   C     0.20657   0.64543   0.71593   0.00000  Uiso   1.00
C828   C     0.14012   0.49727   0.85181   0.00000  Uiso   1.00
C829   C     0.20572   0.35513   0.71496   0.00000  Uiso   1.00
C830   C     0.16571   0.37593   0.74910   0.00000  Uiso   1.00
C831   C     0.12677   0.35462   0.78465   0.00000  Uiso   1.00
C832   C     0.12760   0.64491   0.78559   0.00000  Uiso   1.00
C833   C     0.16758   0.62410   0.75135   0.00000  Uiso   1.00
C834   C     0.31475   0.46847   0.72487   0.00000  Uiso   1.00
C835   C     0.02904   0.46782   0.72426   0.00000  Uiso   1.00
C836   C     0.01851   0.53143   0.77534   0.00000  Uiso   1.00
C837   C     0.30420   0.53206   0.77599   0.00000  Uiso   1.00
C838   C     0.16620   0.42013   0.74966   0.00000  Uiso   1.00
C839   C     0.19320   0.49967   0.64787   0.00000  Uiso   1.00
C840   C     0.25887   0.45790   0.50719   0.00000  Uiso   1.00
C841   C     0.20899   0.49306   0.58918   0.00000  Uiso   1.00
C842   C     0.07754   0.50590   0.94182   0.00000  Uiso   1.00
C843   C     0.06415   0.50806   0.99817   0.00000  Uiso   1.00
C844   C     0.09711   0.49939   0.52314   0.00000  Uiso   1.00
H845   H     0.23584   0.37216   0.68756   0.00000  Uiso   1.00
H846   H     0.09646   0.37128   0.81195   0.00000  Uiso   1.00
H847   H     0.09749   0.62786   0.81298   0.00000  Uiso   1.00
H848   H     0.30023   0.44336   0.70575   0.00000  Uiso   1.00
H849   H     0.03297   0.55649   0.79461   0.00000  Uiso   1.00
H850   H     0.14630   0.52002   0.58571   0.00000  Uiso   1.00
H851   H     0.05298   0.51633   0.92274   0.00000  Uiso   1.00
H852   H     0.08511   0.50228   0.56701   0.00000  Uiso   1.00
H853   H     0.02891   0.51835   0.52244   0.00000  Uiso   1.00
H854   H     0.19817   0.43958   0.86785   0.00000  Uiso   1.00
H855   H     0.23688   0.62880   0.68863   0.00000  Uiso   1.00
N856   N     0.04760   0.50001   0.75001   0.00000  Uiso   1.00
N857   N     0.28573   0.49998   0.75000   0.00000  Uiso   1.00
O858   O     0.12846   0.56108   0.75000   0.00000  Uiso   1.00
O859   O     0.20490   0.56107   0.75000   0.00000  Uiso   1.00
O860   O     0.10947   0.50000   0.82681   0.00000  Uiso   1.00
O861   O     0.18591   0.49999   0.82681   0.00000  Uiso   1.00
O862   O     0.12843   0.43893   0.74999   0.00000  Uiso   1.00
O863   O     0.20488   0.43892   0.74999   0.00000  Uiso   1.00
O864   O     0.14742   0.50001   0.67319   0.00000  Uiso   1.00
O865   O     0.22387   0.50000   0.67319   0.00000  Uiso   1.00
Zn866  Zn    0.11562   0.50001   0.75000   0.00000  Uiso   1.00
Zn867  Zn    0.21771   0.49999   0.75000   0.00000  Uiso   1.00
H868   H     0.27711   0.46650   0.57969   0.00000  Uiso   1.00
S869   S     0.05916   0.42112   0.69331   0.00000  Uiso   1.00
O870   O     0.05727   0.39172   0.73760   0.00000  Uiso   1.00
O871   O     0.03369   0.39975   0.65832   0.00000  Uiso   1.00
O872   O     0.11574   0.42913   0.65328   0.00000  Uiso   1.00
H873   H     0.12900   0.40065   0.64344   0.00000  Uiso   1.00
S874   S     0.27398   0.57868   0.80721   0.00000  Uiso   1.00
O875   O     0.29926   0.59980   0.84257   0.00000  Uiso   1.00
O876   O     0.27615   0.60832   0.76307   0.00000  Uiso   1.00
O877   O     0.21728   0.57064   0.84694   0.00000  Uiso   1.00
H878   H     0.20391   0.59910   0.85633   0.00000  Uiso   1.00
S879   S     0.27980   0.41731   0.89019   0.00000  Uiso   1.00
O880   O     0.32318   0.44572   0.87819   0.00000  Uiso   1.00
O881   O     0.28583   0.38024   0.92102   0.00000  Uiso   1.00
O882   O     0.27373   0.40006   0.83110   0.00000  Uiso   1.00
H883   H     0.30034   0.38063   0.81466   0.00000  Uiso   1.00
H884   H     0.29201   0.44250   0.98610   0.00000  Uiso   1.00
C885   C     0.50042   0.57988   0.75053   0.00000  Uiso   1.00
C886   C     0.47684   0.48611   0.99174   0.00000  Uiso   1.00
C887   C     0.48679   0.47657   0.93627   0.00000  Uiso   1.00
C888   C     0.51377   0.48242   0.51345   0.00000  Uiso   1.00
C889   C     0.55670   0.46176   0.98320   0.00000  Uiso   1.00
C890   C     0.56234   0.44547   0.93041   0.00000  Uiso   1.00
C891   C     0.52729   0.45292   0.90784   0.00000  Uiso   1.00
C892   C     0.50949   0.50061   0.56403   0.00000  Uiso   1.00
C893   C     0.58448   0.47257   0.56045   0.00000  Uiso   1.00
C894   C     0.45616   0.49165   0.91051   0.00000  Uiso   1.00
C895   C     0.53990   0.64543   0.71593   0.00000  Uiso   1.00
C896   C     0.47345   0.49727   0.85181   0.00000  Uiso   1.00
C897   C     0.53906   0.35513   0.71496   0.00000  Uiso   1.00
C898   C     0.49904   0.37593   0.74910   0.00000  Uiso   1.00
C899   C     0.46010   0.35462   0.78465   0.00000  Uiso   1.00
C900   C     0.46094   0.64491   0.78559   0.00000  Uiso   1.00
C901   C     0.50092   0.62410   0.75135   0.00000  Uiso   1.00
C902   C     0.64808   0.46847   0.72487   0.00000  Uiso   1.00
C903   C     0.36237   0.46782   0.72426   0.00000  Uiso   1.00
C904   C     0.35184   0.53143   0.77534   0.00000  Uiso   1.00
C905   C     0.63753   0.53206   0.77599   0.00000  Uiso   1.00
C906   C     0.49953   0.42013   0.74966   0.00000  Uiso   1.00
C907   C     0.52653   0.49967   0.64787   0.00000  Uiso   1.00
C908   C     0.59221   0.45790   0.50719   0.00000  Uiso   1.00
C909   C     0.54232   0.49306   0.58918   0.00000  Uiso   1.00
C910   C     0.41087   0.50590   0.94182   0.00000  Uiso   1.00
C911   C     0.39748   0.50806   0.99817   0.00000  Uiso   1.00
C912   C     0.43044   0.49939   0.52314   0.00000  Uiso   1.00
H913   H     0.56917   0.37216   0.68756   0.00000  Uiso   1.00
H914   H     0.42980   0.37128   0.81195   0.00000  Uiso   1.00
H915   H     0.43082   0.62786   0.81298   0.00000  Uiso   1.00
H916   H     0.63356   0.44336   0.70575   0.00000  Uiso   1.00
H917   H     0.36631   0.55649   0.79461   0.00000  Uiso   1.00
H918   H     0.47964   0.52002   0.58571   0.00000  Uiso   1.00
H919   H     0.38631   0.51633   0.92274   0.00000  Uiso   1.00
H920   H     0.41845   0.50228   0.56701   0.00000  Uiso   1.00
H921   H     0.36224   0.51835   0.52244   0.00000  Uiso   1.00
H922   H     0.53150   0.43958   0.86785   0.00000  Uiso   1.00
H923   H     0.57021   0.62880   0.68863   0.00000  Uiso   1.00
N924   N     0.38093   0.50001   0.75001   0.00000  Uiso   1.00
N925   N     0.61906   0.49998   0.75000   0.00000  Uiso   1.00
O926   O     0.46179   0.56108   0.75000   0.00000  Uiso   1.00
O927   O     0.53823   0.56107   0.75000   0.00000  Uiso   1.00
O928   O     0.44280   0.50000   0.82681   0.00000  Uiso   1.00
O929   O     0.51924   0.49999   0.82681   0.00000  Uiso   1.00
O930   O     0.46177   0.43893   0.74999   0.00000  Uiso   1.00
O931   O     0.53821   0.43892   0.74999   0.00000  Uiso   1.00
O932   O     0.48076   0.50001   0.67319   0.00000  Uiso   1.00
O933   O     0.55720   0.50000   0.67319   0.00000  Uiso   1.00
Zn934  Zn    0.44896   0.50001   0.75000   0.00000  Uiso   1.00
Zn935  Zn    0.55104   0.49999   0.75000   0.00000  Uiso   1.00
H936   H     0.61045   0.46650   0.57969   0.00000  Uiso   1.00
S937   S     0.39249   0.42112   0.69331   0.00000  Uiso   1.00
O938   O     0.39060   0.39172   0.73760   0.00000  Uiso   1.00
O939   O     0.36702   0.39975   0.65832   0.00000  Uiso   1.00
O940   O     0.44908   0.42913   0.65328   0.00000  Uiso   1.00
H941   H     0.46233   0.40065   0.64344   0.00000  Uiso   1.00
S942   S     0.60731   0.57868   0.80721   0.00000  Uiso   1.00
O943   O     0.63259   0.59980   0.84257   0.00000  Uiso   1.00
O944   O     0.60948   0.60832   0.76307   0.00000  Uiso   1.00
O945   O     0.55062   0.57064   0.84694   0.00000  Uiso   1.00
H946   H     0.53724   0.59910   0.85633   0.00000  Uiso   1.00
S947   S     0.61314   0.41731   0.89019   0.00000  Uiso   1.00
O948   O     0.65652   0.44572   0.87819   0.00000  Uiso   1.00
O949   O     0.61916   0.38024   0.92102   0.00000  Uiso   1.00
O950   O     0.60707   0.40006   0.83110   0.00000  Uiso   1.00
H951   H     0.63367   0.38063   0.81466   0.00000  Uiso   1.00
H952   H     0.62535   0.44250   0.98610   0.00000  Uiso   1.00
C953   C     0.83376   0.57988   0.75053   0.00000  Uiso   1.00
C954   C     0.81017   0.48611   0.99174   0.00000  Uiso   1.00
C955   C     0.82012   0.47657   0.93627   0.00000  Uiso   1.00
C956   C     0.84711   0.48242   0.51345   0.00000  Uiso   1.00
C957   C     0.89004   0.46176   0.98320   0.00000  Uiso   1.00
C958   C     0.89567   0.44547   0.93041   0.00000  Uiso   1.00
C959   C     0.86062   0.45292   0.90784   0.00000  Uiso   1.00
C960   C     0.84282   0.50061   0.56403   0.00000  Uiso   1.00
C961   C     0.91781   0.47257   0.56045   0.00000  Uiso   1.00
C962   C     0.78950   0.49165   0.91051   0.00000  Uiso   1.00
C963   C     0.87323   0.64543   0.71593   0.00000  Uiso   1.00
C964   C     0.80679   0.49727   0.85181   0.00000  Uiso   1.00
C965   C     0.87239   0.35513   0.71496   0.00000  Uiso   1.00
C966   C     0.83238   0.37593   0.74910   0.00000  Uiso   1.00
C967   C     0.79343   0.35462   0.78465   0.00000  Uiso   1.00
C968   C     0.79427   0.64491   0.78559   0.00000  Uiso   1.00
C969   C     0.83425   0.62410   0.75135   0.00000  Uiso   1.00
C970   C     0.98141   0.46847   0.72487   0.00000  Uiso   1.00
C971   C     0.69570   0.46782   0.72426   0.00000  Uiso   1.00
C972   C     0.68518   0.53143   0.77534   0.00000  Uiso   1.00
C973   C     0.97087   0.53206   0.77599   0.00000  Uiso   1.00
C974   C     0.83286   0.42013   0.74966   0.00000  Uiso   1.00
C975   C     0.85987   0.49967   0.64787   0.00000  Uiso   1.00
C976   C     0.92554   0.45790   0.50719   0.00000  Uiso   1.00
C977   C     0.87565   0.49306   0.58918   0.00000  Uiso   1.00
C978   C     0.74421   0.50590   0.94182   0.00000  Uiso   1.00
C979   C     0.73082   0.50806   0.99817   0.00000  Uiso   1.00
C980   C     0.76377   0.49939   0.52314   0.00000  Uiso   1.00
H981   H     0.90251   0.37216   0.68756   0.00000  Uiso   1.00
H982   H     0.76313   0.37128   0.81195   0.00000  Uiso   1.00
H983   H     0.76416   0.62786   0.81298   0.00000  Uiso   1.00
H984   H     0.96689   0.44336   0.70575   0.00000  Uiso   1.00
H985   H     0.69964   0.55649   0.79461   0.00000  Uiso   1.00
H986   H     0.81297   0.52002   0.58571   0.00000  Uiso   1.00
H987   H     0.71965   0.51633   0.92274   0.00000  Uiso   1.00
H988   H     0.75178   0.50228   0.56701   0.00000  Uiso   1.00
H989   H     0.69558   0.51835   0.52244   0.00000  Uiso   1.00
H990   H     0.86483   0.43958   0.86785   0.00000  Uiso   1.00
H991   H     0.90355   0.62880   0.68863   0.00000  Uiso   1.00
N992   N     0.71426   0.50001   0.75001   0.00000  Uiso   1.00
N993   N     0.95239   0.49998   0.75000   0.00000  Uiso   1.00
O994   O     0.79512   0.56108   0.75000   0.00000  Uiso   1.00
O995   O     0.87157   0.56107   0.75000   0.00000  Uiso   1.00
O996   O     0.77613   0.50000   0.82681   0.00000  Uiso   1.00
O997   O     0.85258   0.49999   0.82681   0.00000  Uiso   1.00
O998   O     0.79510   0.43893   0.74999   0.00000  Uiso   1.00
O999   O     0.87154   0.43892   0.74999   0.00000  Uiso   1.00
O1000  O     0.81409   0.50001   0.67319   0.00000  Uiso   1.00
O1001  O     0.89053   0.50000   0.67319   0.00000  Uiso   1.00
Zn1002 Zn    0.78229   0.50001   0.75000   0.00000  Uiso   1.00
Zn1003 Zn    0.88438   0.49999   0.75000   0.00000  Uiso   1.00
H1004  H     0.94378   0.46650   0.57969   0.00000  Uiso   1.00
S1005  S     0.72583   0.42112   0.69331   0.00000  Uiso   1.00
O1006  O     0.72394   0.39172   0.73760   0.00000  Uiso   1.00
O1007  O     0.70036   0.39975   0.65832   0.00000  Uiso   1.00
O1008  O     0.78241   0.42913   0.65328   0.00000  Uiso   1.00
H1009  H     0.79566   0.40065   0.64344   0.00000  Uiso   1.00
S1010  S     0.94064   0.57868   0.80721   0.00000  Uiso   1.00
O1011  O     0.96592   0.59980   0.84257   0.00000  Uiso   1.00
O1012  O     0.94281   0.60832   0.76307   0.00000  Uiso   1.00
O1013  O     0.88395   0.57064   0.84694   0.00000  Uiso   1.00
H1014  H     0.87058   0.59910   0.85633   0.00000  Uiso   1.00
S1015  S     0.94647   0.41731   0.89019   0.00000  Uiso   1.00
O1016  O     0.98985   0.44572   0.87819   0.00000  Uiso   1.00
O1017  O     0.95250   0.38024   0.92102   0.00000  Uiso   1.00
O1018  O     0.94040   0.40006   0.83110   0.00000  Uiso   1.00
H1019  H     0.96701   0.38063   0.81466   0.00000  Uiso   1.00
H1020  H     0.95868   0.44250   0.98610   0.00000  Uiso   1.00
C1021  C     0.16709   0.91321   0.75053   0.00000  Uiso   1.00
C1022  C     0.14350   0.81944   0.99174   0.00000  Uiso   1.00
C1023  C     0.15345   0.80990   0.93627   0.00000  Uiso   1.00
C1024  C     0.18044   0.81575   0.51345   0.00000  Uiso   1.00
C1025  C     0.22337   0.79510   0.98320   0.00000  Uiso   1.00
C1026  C     0.22900   0.77880   0.93041   0.00000  Uiso   1.00
C1027  C     0.19395   0.78625   0.90784   0.00000  Uiso   1.00
C1028  C     0.17615   0.83395   0.56403   0.00000  Uiso   1.00
C1029  C     0.25115   0.80591   0.56045   0.00000  Uiso   1.00
C1030  C     0.12283   0.82498   0.91051   0.00000  Uiso   1.00
C1031  C     0.20657   0.97876   0.71593   0.00000  Uiso   1.00
C1032  C     0.14012   0.83061   0.85181   0.00000  Uiso   1.00
C1033  C     0.20572   0.68846   0.71496   0.00000  Uiso   1.00
C1034  C     0.16571   0.70926   0.74910   0.00000  Uiso   1.00
C1035  C     0.12677   0.68796   0.78465   0.00000  Uiso   1.00
C1036  C     0.12760   0.97824   0.78559   0.00000  Uiso   1.00
C1037  C     0.16758   0.95743   0.75135   0.00000  Uiso   1.00
C1038  C     0.31475   0.80180   0.72487   0.00000  Uiso   1.00
C1039  C     0.02904   0.80116   0.72426   0.00000  Uiso   1.00
C1040  C     0.01851   0.86477   0.77534   0.00000  Uiso   1.00
C1041  C     0.30420   0.86540   0.77599   0.00000  Uiso   1.00
C1042  C     0.16620   0.75346   0.74966   0.00000  Uiso   1.00
C1043  C     0.19320   0.83301   0.64787   0.00000  Uiso   1.00
C1044  C     0.25887   0.79123   0.50719   0.00000  Uiso   1.00
C1045  C     0.20899   0.82640   0.58918   0.00000  Uiso   1.00
C1046  C     0.07754   0.83923   0.94182   0.00000  Uiso   1.00
C1047  C     0.06415   0.84139   0.99817   0.00000  Uiso   1.00
C1048  C     0.09711   0.83273   0.52314   0.00000  Uiso   1.00
H1049  H     0.23584   0.70550   0.68756   0.00000  Uiso   1.00
H1050  H     0.09646   0.70461   0.81195   0.00000  Uiso   1.00
H1051  H     0.09749   0.96120   0.81298   0.00000  Uiso   1.00
H1052  H     0.30023   0.77669   0.70575   0.00000  Uiso   1.00
H1053  H     0.03297   0.88982   0.79461   0.00000  Uiso   1.00
H1054  H     0.14630   0.85335   0.58571   0.00000  Uiso   1.00
H1055  H     0.05298   0.84966   0.92274   0.00000  Uiso   1.00
H1056  H     0.08511   0.83561   0.56701   0.00000  Uiso   1.00
H1057  H     0.02891   0.85168   0.52244   0.00000  Uiso   1.00
H1058  H     0.19817   0.77292   0.86785   0.00000  Uiso   1.00
H1059  H     0.23688   0.96213   0.68863   0.00000  Uiso   1.00
N1060  N     0.04760   0.83334   0.75001   0.00000  Uiso   1.00
N1061  N     0.28573   0.83331   0.75000   0.00000  Uiso   1.00
O1062  O     0.12846   0.89442   0.75000   0.00000  Uiso   1.00
O1063  O     0.20490   0.89441   0.75000   0.00000  Uiso   1.00
O1064  O     0.10947   0.83333   0.82681   0.00000  Uiso   1.00
O1065  O     0.18591   0.83332   0.82681   0.00000  Uiso   1.00
O1066  O     0.12843   0.77226   0.74999   0.00000  Uiso   1.00
O1067  O     0.20488   0.77225   0.74999   0.00000  Uiso   1.00
O1068  O     0.14742   0.83335   0.67319   0.00000  Uiso   1.00
O1069  O     0.22387   0.83334   0.67319   0.00000  Uiso   1.00
Zn1070 Zn    0.11562   0.83334   0.75000   0.00000  Uiso   1.00
Zn1071 Zn    0.21771   0.83333   0.75000   0.00000  Uiso   1.00
H1072  H     0.27711   0.79984   0.57969   0.00000  Uiso   1.00
S1073  S     0.05916   0.75445   0.69331   0.00000  Uiso   1.00
O1074  O     0.05727   0.72505   0.73760   0.00000  Uiso   1.00
O1075  O     0.03369   0.73309   0.65832   0.00000  Uiso   1.00
O1076  O     0.11574   0.76246   0.65328   0.00000  Uiso   1.00
H1077  H     0.12900   0.73399   0.64344   0.00000  Uiso   1.00
S1078  S     0.27398   0.91202   0.80721   0.00000  Uiso   1.00
O1079  O     0.29926   0.93314   0.84257   0.00000  Uiso   1.00
O1080  O     0.27615   0.94165   0.76307   0.00000  Uiso   1.00
O1081  O     0.21728   0.90397   0.84694   0.00000  Uiso   1.00
H1082  H     0.20391   0.93244   0.85633   0.00000  Uiso   1.00
S1083  S     0.27980   0.75064   0.89019   0.00000  Uiso   1.00
O1084  O     0.32318   0.77906   0.87819   0.00000  Uiso   1.00
O1085  O     0.28583   0.71357   0.92102   0.00000  Uiso   1.00
O1086  O     0.27373   0.73340   0.83110   0.00000  Uiso   1.00
H1087  H     0.30034   0.71396   0.81466   0.00000  Uiso   1.00
H1088  H     0.29201   0.77583   0.98610   0.00000  Uiso   1.00
C1089  C     0.50042   0.91321   0.75053   0.00000  Uiso   1.00
C1090  C     0.47684   0.81944   0.99174   0.00000  Uiso   1.00
C1091  C     0.48679   0.80990   0.93627   0.00000  Uiso   1.00
C1092  C     0.51377   0.81575   0.51345   0.00000  Uiso   1.00
C1093  C     0.55670   0.79510   0.98320   0.00000  Uiso   1.00
C1094  C     0.56234   0.77880   0.93041   0.00000  Uiso   1.00
C1095  C     0.52729   0.78625   0.90784   0.00000  Uiso   1.00
C1096  C     0.50949   0.83395   0.56403   0.00000  Uiso   1.00
C1097  C     0.58448   0.80591   0.56045   0.00000  Uiso   1.00
C1098  C     0.45616   0.82498   0.91051   0.00000  Uiso   1.00
C1099  C     0.53990   0.97876   0.71593   0.00000  Uiso   1.00
C1100  C     0.47345   0.83061   0.85181   0.00000  Uiso   1.00
C1101  C     0.53906   0.68846   0.71496   0.00000  Uiso   1.00
C1102  C     0.49904   0.70926   0.74910   0.00000  Uiso   1.00
C1103  C     0.46010   0.68796   0.78465   0.00000  Uiso   1.00
C1104  C     0.46094   0.97824   0.78559   0.00000  Uiso   1.00
C1105  C     0.50092   0.95743   0.75135   0.00000  Uiso   1.00
C1106  C     0.64808   0.80180   0.72487   0.00000  Uiso   1.00
C1107  C     0.36237   0.80116   0.72426   0.00000  Uiso   1.00
C1108  C     0.35184   0.86477   0.77534   0.00000  Uiso   1.00
C1109  C     0.63753   0.86540   0.77599   0.00000  Uiso   1.00
C1110  C     0.49953   0.75346   0.74966   0.00000  Uiso   1.00
C1111  C     0.52653   0.83301   0.64787   0.00000  Uiso   1.00
C1112  C     0.59221   0.79123   0.50719   0.00000  Uiso   1.00
C1113  C     0.54232   0.82640   0.58918   0.00000  Uiso   1.00
C1114  C     0.41087   0.83923   0.94182   0.00000  Uiso   1.00
C1115  C     0.39748   0.84139   0.99817   0.00000  Uiso   1.00
C1116  C     0.43044   0.83273   0.52314   0.00000  Uiso   1.00
H1117  H     0.56917   0.70550   0.68756   0.00000  Uiso   1.00
H1118  H     0.42980   0.70461   0.81195   0.00000  Uiso   1.00
H1119  H     0.43082   0.96120   0.81298   0.00000  Uiso   1.00
H1120  H     0.63356   0.77669   0.70575   0.00000  Uiso   1.00
H1121  H     0.36631   0.88982   0.79461   0.00000  Uiso   1.00
H1122  H     0.47964   0.85335   0.58571   0.00000  Uiso   1.00
H1123  H     0.38631   0.84966   0.92274   0.00000  Uiso   1.00
H1124  H     0.41845   0.83561   0.56701   0.00000  Uiso   1.00
H1125  H     0.36224   0.85168   0.52244   0.00000  Uiso   1.00
H1126  H     0.53150   0.77292   0.86785   0.00000  Uiso   1.00
H1127  H     0.57021   0.96213   0.68863   0.00000  Uiso   1.00
N1128  N     0.38093   0.83334   0.75001   0.00000  Uiso   1.00
N1129  N     0.61906   0.83331   0.75000   0.00000  Uiso   1.00
O1130  O     0.46179   0.89442   0.75000   0.00000  Uiso   1.00
O1131  O     0.53823   0.89441   0.75000   0.00000  Uiso   1.00
O1132  O     0.44280   0.83333   0.82681   0.00000  Uiso   1.00
O1133  O     0.51924   0.83332   0.82681   0.00000  Uiso   1.00
O1134  O     0.46177   0.77226   0.74999   0.00000  Uiso   1.00
O1135  O     0.53821   0.77225   0.74999   0.00000  Uiso   1.00
O1136  O     0.48076   0.83335   0.67319   0.00000  Uiso   1.00
O1137  O     0.55720   0.83334   0.67319   0.00000  Uiso   1.00
Zn1138 Zn    0.44896   0.83334   0.75000   0.00000  Uiso   1.00
Zn1139 Zn    0.55104   0.83333   0.75000   0.00000  Uiso   1.00
H1140  H     0.61045   0.79984   0.57969   0.00000  Uiso   1.00
S1141  S     0.39249   0.75445   0.69331   0.00000  Uiso   1.00
O1142  O     0.39060   0.72505   0.73760   0.00000  Uiso   1.00
O1143  O     0.36702   0.73309   0.65832   0.00000  Uiso   1.00
O1144  O     0.44908   0.76246   0.65328   0.00000  Uiso   1.00
H1145  H     0.46233   0.73399   0.64344   0.00000  Uiso   1.00
S1146  S     0.60731   0.91202   0.80721   0.00000  Uiso   1.00
O1147  O     0.63259   0.93314   0.84257   0.00000  Uiso   1.00
O1148  O     0.60948   0.94165   0.76307   0.00000  Uiso   1.00
O1149  O     0.55062   0.90397   0.84694   0.00000  Uiso   1.00
H1150  H     0.53724   0.93244   0.85633   0.00000  Uiso   1.00
S1151  S     0.61314   0.75064   0.89019   0.00000  Uiso   1.00
O1152  O     0.65652   0.77906   0.87819   0.00000  Uiso   1.00
O1153  O     0.61916   0.71357   0.92102   0.00000  Uiso   1.00
O1154  O     0.60707   0.73340   0.83110   0.00000  Uiso   1.00
H1155  H     0.63367   0.71396   0.81466   0.00000  Uiso   1.00
H1156  H     0.62535   0.77583   0.98610   0.00000  Uiso   1.00
C1157  C     0.83376   0.91321   0.75053   0.00000  Uiso   1.00
C1158  C     0.81017   0.81944   0.99174   0.00000  Uiso   1.00
C1159  C     0.82012   0.80990   0.93627   0.00000  Uiso   1.00
C1160  C     0.84711   0.81575   0.51345   0.00000  Uiso   1.00
C1161  C     0.89004   0.79510   0.98320   0.00000  Uiso   1.00
C1162  C     0.89567   0.77880   0.93041   0.00000  Uiso   1.00
C1163  C     0.86062   0.78625   0.90784   0.00000  Uiso   1.00
C1164  C     0.84282   0.83395   0.56403   0.00000  Uiso   1.00
C1165  C     0.91781   0.80591   0.56045   0.00000  Uiso   1.00
C1166  C     0.78950   0.82498   0.91051   0.00000  Uiso   1.00
C1167  C     0.87323   0.97876   0.71593   0.00000  Uiso   1.00
C1168  C     0.80679   0.83061   0.85181   0.00000  Uiso   1.00
C1169  C     0.87239   0.68846   0.71496   0.00000  Uiso   1.00
C1170  C     0.83238   0.70926   0.74910   0.00000  Uiso   1.00
C1171  C     0.79343   0.68796   0.78465   0.00000  Uiso   1.00
C1172  C     0.79427   0.97824   0.78559   0.00000  Uiso   1.00
C1173  C     0.83425   0.95743   0.75135   0.00000  Uiso   1.00
C1174  C     0.98141   0.80180   0.72487   0.00000  Uiso   1.00
C1175  C     0.69570   0.80116   0.72426   0.00000  Uiso   1.00
C1176  C     0.68518   0.86477   0.77534   0.00000  Uiso   1.00
C1177  C     0.97087   0.86540   0.77599   0.00000  Uiso   1.00
C1178  C     0.83286   0.75346   0.74966   0.00000  Uiso   1.00
C1179  C     0.85987   0.83301   0.64787   0.00000  Uiso   1.00
C1180  C     0.92554   0.79123   0.50719   0.00000  Uiso   1.00
C1181  C     0.87565   0.82640   0.58918   0.00000  Uiso   1.00
C1182  C     0.74421   0.83923   0.94182   0.00000  Uiso   1.00
C1183  C     0.73082   0.84139   0.99817   0.00000  Uiso   1.00
C1184  C     0.76377   0.83273   0.52314   0.00000  Uiso   1.00
H1185  H     0.90251   0.70550   0.68756   0.00000  Uiso   1.00
H1186  H     0.76313   0.70461   0.81195   0.00000  Uiso   1.00
H1187  H     0.76416   0.96120   0.81298   0.00000  Uiso   1.00
H1188  H     0.96689   0.77669   0.70575   0.00000  Uiso   1.00
H1189  H     0.69964   0.88982   0.79461   0.00000  Uiso   1.00
H1190  H     0.81297   0.85335   0.58571   0.00000  Uiso   1.00
H1191  H     0.71965   0.84966   0.92274   0.00000  Uiso   1.00
H1192  H     0.75178   0.83561   0.56701   0.00000  Uiso   1.00
H1193  H     0.69558   0.85168   0.52244   0.00000  Uiso   1.00
H1194  H     0.86483   0.77292   0.86785   0.00000  Uiso   1.00
H1195  H     0.90355   0.96213   0.68863   0.00000  Uiso   1.00
N1196  N     0.71426   0.83334   0.75001   0.00000  Uiso   1.00
N1197  N     0.95239   0.83331   0.75000   0.00000  Uiso   1.00
O1198  O     0.79512   0.89442   0.75000   0.00000  Uiso   1.00
O1199  O     0.87157   0.89441   0.75000   0.00000  Uiso   1.00
O1200  O     0.77613   0.83333   0.82681   0.00000  Uiso   1.00
O1201  O     0.85258   0.83332   0.82681   0.00000  Uiso   1.00
O1202  O     0.79510   0.77226   0.74999   0.00000  Uiso   1.00
O1203  O     0.87154   0.77225   0.74999   0.00000  Uiso   1.00
O1204  O     0.81409   0.83335   0.67319   0.00000  Uiso   1.00
O1205  O     0.89053   0.83334   0.67319   0.00000  Uiso   1.00
Zn1206 Zn    0.78229   0.83334   0.75000   0.00000  Uiso   1.00
Zn1207 Zn    0.88438   0.83333   0.75000   0.00000  Uiso   1.00
H1208  H     0.94378   0.79984   0.57969   0.00000  Uiso   1.00
S1209  S     0.72583   0.75445   0.69331   0.00000  Uiso   1.00
O1210  O     0.72394   0.72505   0.73760   0.00000  Uiso   1.00
O1211  O     0.70036   0.73309   0.65832   0.00000  Uiso   1.00
O1212  O     0.78241   0.76246   0.65328   0.00000  Uiso   1.00
H1213  H     0.79566   0.73399   0.64344   0.00000  Uiso   1.00
S1214  S     0.94064   0.91202   0.80721   0.00000  Uiso   1.00
O1215  O     0.96592   0.93314   0.84257   0.00000  Uiso   1.00
O1216  O     0.94281   0.94165   0.76307   0.00000  Uiso   1.00
O1217  O     0.88395   0.90397   0.84694   0.00000  Uiso   1.00
H1218  H     0.87058   0.93244   0.85633   0.00000  Uiso   1.00
S1219  S     0.94647   0.75064   0.89019   0.00000  Uiso   1.00
O1220  O     0.98985   0.77906   0.87819   0.00000  Uiso   1.00
O1221  O     0.95250   0.71357   0.92102   0.00000  Uiso   1.00
O1222  O     0.94040   0.73340   0.83110   0.00000  Uiso   1.00
H1223  H     0.96701   0.71396   0.81466   0.00000  Uiso   1.00
H1224  H     0.95868   0.77583   0.98610   0.00000  Uiso   1.00
loop_
_geom_bond_atom_site_label_1
_geom_bond_atom_site_label_2
_geom_bond_distance
_geom_bond_site_symmetry_2
_ccdc_geom_bond_type
C1     C17     1.406   .     S
C1     O42     1.285   .     A
C1     O43     1.292   .     A
C2     C3      1.400   .     A
C2     C616    1.411   .     S
C2     C640    1.420   .     S
C3     C10     1.411   .     A
C3     C7      1.411   .     A
C4     C8      1.388   .     A
C4     C614    1.411   1_554 S
C4     C617    1.426   1_554 S
C5     C6      1.411   .     A
C5     C616    1.426   .     S
C5     C636    1.413   .     S
C6     S63     1.775   .     S
C6     C7      1.395   .     A
C7     H38     1.080   .     S
C8     H34     1.080   .     S
C8     C25     1.384   .     A
C9     C24     1.395   .     A
C9     C25     1.397   .     A
C9     H52     1.083   .     S
C10    C12     1.459   .     S
C10    C26     1.403   .     A
C11    H39     1.084   .     S
C11    C17     1.392   .     A
C11    C217    1.372   .     S
C12    O45     1.302   .     A
C12    O44     1.299   .     A
C13    C14     1.396   .     A
C13    H29     1.084   .     S
C13    C419    1.372   1_545 S
C14    C22     1.406   .     S
C14    C15     1.392   .     A
C15    H30     1.084   .     S
C15    C424    1.372   1_545 S
C16    H31     1.084   .     S
C16    C17     1.396   .     A
C16    C219    1.372   .     S
C18    N41     1.346   .     A
C18    H32     1.080   .     S
C18    C87     1.418   .     S
C19    S53     1.783   .     S
C19    N40     1.403   .     A
C19    C154    1.418   1_455 S
C20    H33     1.080   .     S
C20    N40     1.346   .     A
C20    C157    1.418   1_455 S
C21    S58     1.783   .     S
C21    N41     1.403   .     A
C21    C88     1.418   .     S
C22    O47     1.285   .     A
C22    O46     1.292   .     A
C23    O49     1.298   .     A
C23    C25     1.452   .     S
C23    O48     1.302   .     A
C24    C617    1.413   1_554 S
C24    H680    1.080   1_554 S
C26    H35     1.083   .     S
C26    C27     1.388   .     A
C27    C640    1.392   .     S
C27    H649    1.083   .     S
C28    H36     1.080   .     S
C28    C639    1.392   1_554 S
C28    C614    1.420   1_554 S
H37    C639    1.083   1_554 S
N40    Zn50    2.031   .     S
N41    Zn51    2.031   .     S
O42    Zn50    1.968   .     S
O43    Zn51    1.994   .     S
O44    Zn50    1.952   .     S
O45    Zn51    1.907   .     S
O46    Zn50    1.994   .     S
O47    Zn51    1.968   .     S
O48    Zn50    1.907   .     S
O49    Zn51    1.952   .     S
S53    O55     1.504   .     D
S53    O56     1.676   .     S
S53    O54     1.501   .     D
O56    H57     0.991   .     S
S58    O61     1.676   .     S
S58    O60     1.501   .     D
S58    O59     1.504   .     D
O61    H62     0.991   .     S
S63    O65     1.503   .     D
S63    O66     1.683   .     S
S63    O64     1.503   .     D
O66    H67     0.990   .     S
H68    C636    1.080   .     S
C69    C85     1.406   .     S
C69    O110    1.285   .     A
C69    O111    1.292   .     A
C70    C71     1.400   .     A
C70    C684    1.411   .     S
C70    C708    1.420   .     S
C71    C78     1.411   .     A
C71    C75     1.411   .     A
C72    C76     1.388   .     A
C72    C682    1.411   1_554 S
C72    C685    1.426   1_554 S
C73    C74     1.411   .     A
C73    C684    1.426   .     S
C73    C704    1.413   .     S
C74    S131    1.775   .     S
C74    C75     1.395   .     A
C75    H106    1.080   .     S
C76    H102    1.080   .     S
C76    C93     1.384   .     A
C77    C92     1.395   .     A
C77    C93     1.397   .     A
C77    H120    1.083   .     S
C78    C80     1.459   .     S
C78    C94     1.403   .     A
C79    H107    1.084   .     S
C79    C85     1.392   .     A
C79    C285    1.372   .     S
C80    O113    1.302   .     A
C80    O112    1.299   .     A
C81    C82     1.396   .     A
C81    H97     1.084   .     S
C81    C487    1.372   1_545 S
C82    C90     1.406   .     S
C82    C83     1.392   .     A
C83    H98     1.084   .     S
C83    C492    1.372   1_545 S
C84    H99     1.084   .     S
C84    C85     1.396   .     A
C84    C287    1.372   .     S
C86    N109    1.346   .     A
C86    H100    1.080   .     S
C86    C155    1.418   .     S
C87    S121    1.783   .     S
C87    N108    1.403   .     A
C88    H101    1.080   .     S
C88    N108    1.346   .     A
C89    S126    1.783   .     S
C89    N109    1.403   .     A
C89    C156    1.418   .     S
C90    O115    1.285   .     A
C90    O114    1.292   .     A
C91    O117    1.298   .     A
C91    C93     1.452   .     S
C91    O116    1.302   .     A
C92    C685    1.413   1_554 S
C92    H748    1.080   1_554 S
C94    H103    1.083   .     S
C94    C95     1.388   .     A
C95    C708    1.392   .     S
C95    H717    1.083   .     S
C96    H104    1.080   .     S
C96    C707    1.392   1_554 S
C96    C682    1.420   1_554 S
H105   C707    1.083   1_554 S
N108   Zn118   2.031   .     S
N109   Zn119   2.031   .     S
O110   Zn118   1.968   .     S
O111   Zn119   1.994   .     S
O112   Zn118   1.952   .     S
O113   Zn119   1.907   .     S
O114   Zn118   1.994   .     S
O115   Zn119   1.968   .     S
O116   Zn118   1.907   .     S
O117   Zn119   1.952   .     S
S121   O123    1.504   .     D
S121   O124    1.676   .     S
S121   O122    1.501   .     D
O124   H125    0.991   .     S
S126   O129    1.676   .     S
S126   O128    1.501   .     D
S126   O127    1.504   .     D
O129   H130    0.991   .     S
S131   O133    1.503   .     D
S131   O134    1.683   .     S
S131   O132    1.503   .     D
O134   H135    0.990   .     S
H136   C704    1.080   .     S
C137   C153    1.406   .     S
C137   O178    1.285   .     A
C137   O179    1.292   .     A
C138   C139    1.400   .     A
C138   C752    1.411   .     S
C138   C776    1.420   .     S
C139   C146    1.411   .     A
C139   C143    1.411   .     A
C140   C144    1.388   .     A
C140   C750    1.411   1_554 S
C140   C753    1.426   1_554 S
C141   C142    1.411   .     A
C141   C752    1.426   .     S
C141   C772    1.413   .     S
C142   S199    1.775   .     S
C142   C143    1.395   .     A
C143   H174    1.080   .     S
C144   H170    1.080   .     S
C144   C161    1.384   .     A
C145   C160    1.395   .     A
C145   C161    1.397   .     A
C145   H188    1.083   .     S
C146   C148    1.459   .     S
C146   C162    1.403   .     A
C147   H175    1.084   .     S
C147   C153    1.392   .     A
C147   C353    1.372   .     S
C148   O181    1.302   .     A
C148   O180    1.299   .     A
C149   C150    1.396   .     A
C149   H165    1.084   .     S
C149   C555    1.372   1_545 S
C150   C158    1.406   .     S
C150   C151    1.392   .     A
C151   H166    1.084   .     S
C151   C560    1.372   1_545 S
C152   H167    1.084   .     S
C152   C153    1.396   .     A
C152   C355    1.372   .     S
C154   N177    1.346   .     A
C154   H168    1.080   .     S
C154   C19     1.418   1_655 S
C155   S189    1.783   .     S
C155   N176    1.403   .     A
C156   H169    1.080   .     S
C156   N176    1.346   .     A
C157   S194    1.783   .     S
C157   N177    1.403   .     A
C157   C20     1.418   1_655 S
C158   O183    1.285   .     A
C158   O182    1.292   .     A
C159   O185    1.298   .     A
C159   C161    1.452   .     S
C159   O184    1.302   .     A
C160   C753    1.413   1_554 S
C160   H816    1.080   1_554 S
C162   H171    1.083   .     S
C162   C163    1.388   .     A
C163   C776    1.392   .     S
C163   H785    1.083   .     S
C164   H172    1.080   .     S
C164   C775    1.392   1_554 S
C164   C750    1.420   1_554 S
H173   C775    1.083   1_554 S
N176   Zn186   2.031   .     S
N177   Zn187   2.031   .     S
O178   Zn186   1.968   .     S
O179   Zn187   1.994   .     S
O180   Zn186   1.952   .     S
O181   Zn187   1.907   .     S
O182   Zn186   1.994   .     S
O183   Zn187   1.968   .     S
O184   Zn186   1.907   .     S
O185   Zn187   1.952   .     S
S189   O191    1.504   .     D
S189   O192    1.676   .     S
S189   O190    1.501   .     D
O192   H193    0.991   .     S
S194   O197    1.676   .     S
S194   O196    1.501   .     D
S194   O195    1.504   .     D
O197   H198    0.991   .     S
S199   O201    1.503   .     D
S199   O202    1.683   .     S
S199   O200    1.503   .     D
O202   H203    0.990   .     S
H204   C772    1.080   .     S
C205   C221    1.406   .     S
C205   O246    1.285   .     A
C205   O247    1.292   .     A
C206   C207    1.400   .     A
C206   C820    1.411   .     S
C206   C844    1.420   .     S
C207   C214    1.411   .     A
C207   C211    1.411   .     A
C208   C212    1.388   .     A
C208   C818    1.411   1_554 S
C208   C821    1.426   1_554 S
C209   C210    1.411   .     A
C209   C820    1.426   .     S
C209   C840    1.413   .     S
C210   S267    1.775   .     S
C210   C211    1.395   .     A
C211   H242    1.080   .     S
C212   H238    1.080   .     S
C212   C229    1.384   .     A
C213   C228    1.395   .     A
C213   C229    1.397   .     A
C213   H256    1.083   .     S
C214   C216    1.459   .     S
C214   C230    1.403   .     A
C215   H243    1.084   .     S
C215   C221    1.392   .     A
C215   C421    1.372   .     S
C216   O249    1.302   .     A
C216   O248    1.299   .     A
C217   C218    1.396   .     A
C217   H233    1.084   .     S
C218   C226    1.406   .     S
C218   C219    1.392   .     A
C219   H234    1.084   .     S
C220   H235    1.084   .     S
C220   C221    1.396   .     A
C220   C423    1.372   .     S
C222   N245    1.346   .     A
C222   H236    1.080   .     S
C222   C291    1.418   .     S
C223   S257    1.783   .     S
C223   N244    1.403   .     A
C223   C358    1.418   1_455 S
C224   H237    1.080   .     S
C224   N244    1.346   .     A
C224   C361    1.418   1_455 S
C225   S262    1.783   .     S
C225   N245    1.403   .     A
C225   C292    1.418   .     S
C226   O251    1.285   .     A
C226   O250    1.292   .     A
C227   O253    1.298   .     A
C227   C229    1.452   .     S
C227   O252    1.302   .     A
C228   C821    1.413   1_554 S
C228   H884    1.080   1_554 S
C230   H239    1.083   .     S
C230   C231    1.388   .     A
C231   C844    1.392   .     S
C231   H853    1.083   .     S
C232   H240    1.080   .     S
C232   C843    1.392   1_554 S
C232   C818    1.420   1_554 S
H241   C843    1.083   1_554 S
N244   Zn254   2.031   .     S
N245   Zn255   2.031   .     S
O246   Zn254   1.968   .     S
O247   Zn255   1.994   .     S
O248   Zn254   1.952   .     S
O249   Zn255   1.907   .     S
O250   Zn254   1.994   .     S
O251   Zn255   1.968   .     S
O252   Zn254   1.907   .     S
O253   Zn255   1.952   .     S
S257   O259    1.504   .     D
S257   O260    1.676   .     S
S257   O258    1.501   .     D
O260   H261    0.991   .     S
S262   O265    1.676   .     S
S262   O264    1.501   .     D
S262   O263    1.504   .     D
O265   H266    0.991   .     S
S267   O269    1.503   .     D
S267   O270    1.683   .     S
S267   O268    1.503   .     D
O270   H271    0.990   .     S
H272   C840    1.080   .     S
C273   C289    1.406   .     S
C273   O314    1.285   .     A
C273   O315    1.292   .     A
C274   C275    1.400   .     A
C274   C888    1.411   .     S
C274   C912    1.420   .     S
C275   C282    1.411   .     A
C275   C279    1.411   .     A
C276   C280    1.388   .     A
C276   C886    1.411   1_554 S
C276   C889    1.426   1_554 S
C277   C278    1.411   .     A
C277   C888    1.426   .     S
C277   C908    1.413   .     S
C278   S335    1.775   .     S
C278   C279    1.395   .     A
C279   H310    1.080   .     S
C280   H306    1.080   .     S
C280   C297    1.384   .     A
C281   C296    1.395   .     A
C281   C297    1.397   .     A
C281   H324    1.083   .     S
C282   C284    1.459   .     S
C282   C298    1.403   .     A
C283   H311    1.084   .     S
C283   C289    1.392   .     A
C283   C489    1.372   .     S
C284   O317    1.302   .     A
C284   O316    1.299   .     A
C285   C286    1.396   .     A
C285   H301    1.084   .     S
C286   C294    1.406   .     S
C286   C287    1.392   .     A
C287   H302    1.084   .     S
C288   H303    1.084   .     S
C288   C289    1.396   .     A
C288   C491    1.372   .     S
C290   N313    1.346   .     A
C290   H304    1.080   .     S
C290   C359    1.418   .     S
C291   S325    1.783   .     S
C291   N312    1.403   .     A
C292   H305    1.080   .     S
C292   N312    1.346   .     A
C293   S330    1.783   .     S
C293   N313    1.403   .     A
C293   C360    1.418   .     S
C294   O319    1.285   .     A
C294   O318    1.292   .     A
C295   O321    1.298   .     A
C295   C297    1.452   .     S
C295   O320    1.302   .     A
C296   C889    1.413   1_554 S
C296   H952    1.080   1_554 S
C298   H307    1.083   .     S
C298   C299    1.388   .     A
C299   C912    1.392   .     S
C299   H921    1.083   .     S
C300   H308    1.080   .     S
C300   C911    1.392   1_554 S
C300   C886    1.420   1_554 S
H309   C911    1.083   1_554 S
N312   Zn322   2.031   .     S
N313   Zn323   2.031   .     S
O314   Zn322   1.968   .     S
O315   Zn323   1.994   .     S
O316   Zn322   1.952   .     S
O317   Zn323   1.907   .     S
O318   Zn322   1.994   .     S
O319   Zn323   1.968   .     S
O320   Zn322   1.907   .     S
O321   Zn323   1.952   .     S
S325   O327    1.504   .     D
S325   O328    1.676   .     S
S325   O326    1.501   .     D
O328   H329    0.991   .     S
S330   O333    1.676   .     S
S330   O332    1.501   .     D
S330   O331    1.504   .     D
O333   H334    0.991   .     S
S335   O337    1.503   .     D
S335   O338    1.683   .     S
S335   O336    1.503   .     D
O338   H339    0.990   .     S
H340   C908    1.080   .     S
C341   C357    1.406   .     S
C341   O382    1.285   .     A
C341   O383    1.292   .     A
C342   C343    1.400   .     A
C342   C956    1.411   .     S
C342   C980    1.420   .     S
C343   C350    1.411   .     A
C343   C347    1.411   .     A
C344   C348    1.388   .     A
C344   C954    1.411   1_554 S
C344   C957    1.426   1_554 S
C345   C346    1.411   .     A
C345   C956    1.426   .     S
C345   C976    1.413   .     S
C346   S403    1.775   .     S
C346   C347    1.395   .     A
C347   H378    1.080   .     S
C348   H374    1.080   .     S
C348   C365    1.384   .     A
C349   C364    1.395   .     A
C349   C365    1.397   .     A
C349   H392    1.083   .     S
C350   C352    1.459   .     S
C350   C366    1.403   .     A
C351   H379    1.084   .     S
C351   C357    1.392   .     A
C351   C557    1.372   .     S
C352   O385    1.302   .     A
C352   O384    1.299   .     A
C353   C354    1.396   .     A
C353   H369    1.084   .     S
C354   C362    1.406   .     S
C354   C355    1.392   .     A
C355   H370    1.084   .     S
C356   H371    1.084   .     S
C356   C357    1.396   .     A
C356   C559    1.372   .     S
C358   N381    1.346   .     A
C358   H372    1.080   .     S
C358   C223    1.418   1_655 S
C359   S393    1.783   .     S
C359   N380    1.403   .     A
C360   H373    1.080   .     S
C360   N380    1.346   .     A
C361   S398    1.783   .     S
C361   N381    1.403   .     A
C361   C224    1.418   1_655 S
C362   O387    1.285   .     A
C362   O386    1.292   .     A
C363   O389    1.298   .     A
C363   C365    1.452   .     S
C363   O388    1.302   .     A
C364   C957    1.413   1_554 S
C364   H1020   1.080   1_554 S
C366   H375    1.083   .     S
C366   C367    1.388   .     A
C367   C980    1.392   .     S
C367   H989    1.083   .     S
C368   H376    1.080   .     S
C368   C979    1.392   1_554 S
C368   C954    1.420   1_554 S
H377   C979    1.083   1_554 S
N380   Zn390   2.031   .     S
N381   Zn391   2.031   .     S
O382   Zn390   1.968   .     S
O383   Zn391   1.994   .     S
O384   Zn390   1.952   .     S
O385   Zn391   1.907   .     S
O386   Zn390   1.994   .     S
O387   Zn391   1.968   .     S
O388   Zn390   1.907   .     S
O389   Zn391   1.952   .     S
S393   O395    1.504   .     D
S393   O396    1.676   .     S
S393   O394    1.501   .     D
O396   H397    0.991   .     S
S398   O401    1.676   .     S
S398   O400    1.501   .     D
S398   O399    1.504   .     D
O401   H402    0.991   .     S
S403   O405    1.503   .     D
S403   O406    1.683   .     S
S403   O404    1.503   .     D
O406   H407    0.990   .     S
H408   C976    1.080   .     S
C409   C425    1.406   .     S
C409   O450    1.285   .     A
C409   O451    1.292   .     A
C410   C411    1.400   .     A
C410   C1024   1.411   .     S
C410   C1048   1.420   .     S
C411   C418    1.411   .     A
C411   C415    1.411   .     A
C412   C416    1.388   .     A
C412   C1022   1.411   1_554 S
C412   C1025   1.426   1_554 S
C413   C414    1.411   .     A
C413   C1024   1.426   .     S
C413   C1044   1.413   .     S
C414   S471    1.775   .     S
C414   C415    1.395   .     A
C415   H446    1.080   .     S
C416   H442    1.080   .     S
C416   C433    1.384   .     A
C417   C432    1.395   .     A
C417   C433    1.397   .     A
C417   H460    1.083   .     S
C418   C420    1.459   .     S
C418   C434    1.403   .     A
C419   H447    1.084   .     S
C419   C425    1.392   .     A
C419   C13     1.372   1_565 S
C420   O453    1.302   .     A
C420   O452    1.299   .     A
C421   C422    1.396   .     A
C421   H437    1.084   .     S
C422   C430    1.406   .     S
C422   C423    1.392   .     A
C423   H438    1.084   .     S
C424   H439    1.084   .     S
C424   C425    1.396   .     A
C424   C15     1.372   1_565 S
C426   N449    1.346   .     A
C426   H440    1.080   .     S
C426   C495    1.418   .     S
C427   S461    1.783   .     S
C427   N448    1.403   .     A
C427   C562    1.418   1_455 S
C428   H441    1.080   .     S
C428   N448    1.346   .     A
C428   C565    1.418   1_455 S
C429   S466    1.783   .     S
C429   N449    1.403   .     A
C429   C496    1.418   .     S
C430   O455    1.285   .     A
C430   O454    1.292   .     A
C431   O457    1.298   .     A
C431   C433    1.452   .     S
C431   O456    1.302   .     A
C432   C1025   1.413   1_554 S
C432   H1088   1.080   1_554 S
C434   H443    1.083   .     S
C434   C435    1.388   .     A
C435   C1048   1.392   .     S
C435   H1057   1.083   .     S
C436   H444    1.080   .     S
C436   C1047   1.392   1_554 S
C436   C1022   1.420   1_554 S
H445   C1047   1.083   1_554 S
N448   Zn458   2.031   .     S
N449   Zn459   2.031   .     S
O450   Zn458   1.968   .     S
O451   Zn459   1.994   .     S
O452   Zn458   1.952   .     S
O453   Zn459   1.907   .     S
O454   Zn458   1.994   .     S
O455   Zn459   1.968   .     S
O456   Zn458   1.907   .     S
O457   Zn459   1.952   .     S
S461   O463    1.504   .     D
S461   O464    1.676   .     S
S461   O462    1.501   .     D
O464   H465    0.991   .     S
S466   O469    1.676   .     S
S466   O468    1.501   .     D
S466   O467    1.504   .     D
O469   H470    0.991   .     S
S471   O473    1.503   .     D
S471   O474    1.683   .     S
S471   O472    1.503   .     D
O474   H475    0.990   .     S
H476   C1044   1.080   .     S
C477   C493    1.406   .     S
C477   O518    1.285   .     A
C477   O519    1.292   .     A
C478   C479    1.400   .     A
C478   C1092   1.411   .     S
C478   C1116   1.420   .     S
C479   C486    1.411   .     A
C479   C483    1.411   .     A
C480   C484    1.388   .     A
C480   C1090   1.411   1_554 S
C480   C1093   1.426   1_554 S
C481   C482    1.411   .     A
C481   C1092   1.426   .     S
C481   C1112   1.413   .     S
C482   S539    1.775   .     S
C482   C483    1.395   .     A
C483   H514    1.080   .     S
C484   H510    1.080   .     S
C484   C501    1.384   .     A
C485   C500    1.395   .     A
C485   C501    1.397   .     A
C485   H528    1.083   .     S
C486   C488    1.459   .     S
C486   C502    1.403   .     A
C487   H515    1.084   .     S
C487   C493    1.392   .     A
C487   C81     1.372   1_565 S
C488   O521    1.302   .     A
C488   O520    1.299   .     A
C489   C490    1.396   .     A
C489   H505    1.084   .     S
C490   C498    1.406   .     S
C490   C491    1.392   .     A
C491   H506    1.084   .     S
C492   H507    1.084   .     S
C492   C493    1.396   .     A
C492   C83     1.372   1_565 S
C494   N517    1.346   .     A
C494   H508    1.080   .     S
C494   C563    1.418   .     S
C495   S529    1.783   .     S
C495   N516    1.403   .     A
C496   H509    1.080   .     S
C496   N516    1.346   .     A
C497   S534    1.783   .     S
C497   N517    1.403   .     A
C497   C564    1.418   .     S
C498   O523    1.285   .     A
C498   O522    1.292   .     A
C499   O525    1.298   .     A
C499   C501    1.452   .     S
C499   O524    1.302   .     A
C500   C1093   1.413   1_554 S
C500   H1156   1.080   1_554 S
C502   H511    1.083   .     S
C502   C503    1.388   .     A
C503   C1116   1.392   .     S
C503   H1125   1.083   .     S
C504   H512    1.080   .     S
C504   C1115   1.392   1_554 S
C504   C1090   1.420   1_554 S
H513   C1115   1.083   1_554 S
N516   Zn526   2.031   .     S
N517   Zn527   2.031   .     S
O518   Zn526   1.968   .     S
O519   Zn527   1.994   .     S
O520   Zn526   1.952   .     S
O521   Zn527   1.907   .     S
O522   Zn526   1.994   .     S
O523   Zn527   1.968   .     S
O524   Zn526   1.907   .     S
O525   Zn527   1.952   .     S
S529   O531    1.504   .     D
S529   O532    1.676   .     S
S529   O530    1.501   .     D
O532   H533    0.991   .     S
S534   O537    1.676   .     S
S534   O536    1.501   .     D
S534   O535    1.504   .     D
O537   H538    0.991   .     S
S539   O541    1.503   .     D
S539   O542    1.683   .     S
S539   O540    1.503   .     D
O542   H543    0.990   .     S
H544   C1112   1.080   .     S
C545   C561    1.406   .     S
C545   O586    1.285   .     A
C545   O587    1.292   .     A
C546   C547    1.400   .     A
C546   C1160   1.411   .     S
C546   C1184   1.420   .     S
C547   C554    1.411   .     A
C547   C551    1.411   .     A
C548   C552    1.388   .     A
C548   C1158   1.411   1_554 S
C548   C1161   1.426   1_554 S
C549   C550    1.411   .     A
C549   C1160   1.426   .     S
C549   C1180   1.413   .     S
C550   S607    1.775   .     S
C550   C551    1.395   .     A
C551   H582    1.080   .     S
C552   H578    1.080   .     S
C552   C569    1.384   .     A
C553   C568    1.395   .     A
C553   C569    1.397   .     A
C553   H596    1.083   .     S
C554   C556    1.459   .     S
C554   C570    1.403   .     A
C555   H583    1.084   .     S
C555   C561    1.392   .     A
C555   C149    1.372   1_565 S
C556   O589    1.302   .     A
C556   O588    1.299   .     A
C557   C558    1.396   .     A
C557   H573    1.084   .     S
C558   C566    1.406   .     S
C558   C559    1.392   .     A
C559   H574    1.084   .     S
C560   H575    1.084   .     S
C560   C561    1.396   .     A
C560   C151    1.372   1_565 S
C562   N585    1.346   .     A
C562   H576    1.080   .     S
C562   C427    1.418   1_655 S
C563   S597    1.783   .     S
C563   N584    1.403   .     A
C564   H577    1.080   .     S
C564   N584    1.346   .     A
C565   S602    1.783   .     S
C565   N585    1.403   .     A
C565   C428    1.418   1_655 S
C566   O591    1.285   .     A
C566   O590    1.292   .     A
C567   O593    1.298   .     A
C567   C569    1.452   .     S
C567   O592    1.302   .     A
C568   C1161   1.413   1_554 S
C568   H1224   1.080   1_554 S
C570   H579    1.083   .     S
C570   C571    1.388   .     A
C571   C1184   1.392   .     S
C571   H1193   1.083   .     S
C572   H580    1.080   .     S
C572   C1183   1.392   1_554 S
C572   C1158   1.420   1_554 S
H581   C1183   1.083   1_554 S
N584   Zn594   2.031   .     S
N585   Zn595   2.031   .     S
O586   Zn594   1.968   .     S
O587   Zn595   1.994   .     S
O588   Zn594   1.952   .     S
O589   Zn595   1.907   .     S
O590   Zn594   1.994   .     S
O591   Zn595   1.968   .     S
O592   Zn594   1.907   .     S
O593   Zn595   1.952   .     S
S597   O599    1.504   .     D
S597   O600    1.676   .     S
S597   O598    1.501   .     D
O600   H601    0.991   .     S
S602   O605    1.676   .     S
S602   O604    1.501   .     D
S602   O603    1.504   .     D
O605   H606    0.991   .     S
S607   O609    1.503   .     D
S607   O610    1.683   .     S
S607   O608    1.503   .     D
O610   H611    0.990   .     S
H612   C1180   1.080   .     S
C613   C629    1.406   .     S
C613   O654    1.285   .     A
C613   O655    1.292   .     A
C614   C615    1.400   .     A
C614   C4      1.411   1_556 S
C614   C28     1.420   1_556 S
C615   C622    1.411   .     A
C615   C619    1.411   .     A
C616   C620    1.388   .     A
C617   C618    1.411   .     A
C617   C4      1.426   1_556 S
C617   C24     1.413   1_556 S
C618   S675    1.775   .     S
C618   C619    1.395   .     A
C619   H650    1.080   .     S
C620   H646    1.080   .     S
C620   C637    1.384   .     A
C621   C636    1.395   .     A
C621   C637    1.397   .     A
C621   H664    1.083   .     S
C622   C624    1.459   .     S
C622   C638    1.403   .     A
C623   H651    1.084   .     S
C623   C629    1.392   .     A
C623   C829    1.372   .     S
C624   O657    1.302   .     A
C624   O656    1.299   .     A
C625   C626    1.396   .     A
C625   H641    1.084   .     S
C625   C1031   1.372   1_545 S
C626   C634    1.406   .     S
C626   C627    1.392   .     A
C627   H642    1.084   .     S
C627   C1036   1.372   1_545 S
C628   H643    1.084   .     S
C628   C629    1.396   .     A
C628   C831    1.372   .     S
C630   N653    1.346   .     A
C630   H644    1.080   .     S
C630   C699    1.418   .     S
C631   S665    1.783   .     S
C631   N652    1.403   .     A
C631   C766    1.418   1_455 S
C632   H645    1.080   .     S
C632   N652    1.346   .     A
C632   C769    1.418   1_455 S
C633   S670    1.783   .     S
C633   N653    1.403   .     A
C633   C700    1.418   .     S
C634   O659    1.285   .     A
C634   O658    1.292   .     A
C635   O661    1.298   .     A
C635   C637    1.452   .     S
C635   O660    1.302   .     A
C638   H647    1.083   .     S
C638   C639    1.388   .     A
C639   C28     1.392   1_556 S
C639   H37     1.083   1_556 S
C640   H648    1.080   .     S
N652   Zn662   2.031   .     S
N653   Zn663   2.031   .     S
O654   Zn662   1.968   .     S
O655   Zn663   1.994   .     S
O656   Zn662   1.952   .     S
O657   Zn663   1.907   .     S
O658   Zn662   1.994   .     S
O659   Zn663   1.968   .     S
O660   Zn662   1.907   .     S
O661   Zn663   1.952   .     S
S665   O667    1.504   .     D
S665   O668    1.676   .     S
S665   O666    1.501   .     D
O668   H669    0.991   .     S
S670   O673    1.676   .     S
S670   O672    1.501   .     D
S670   O671    1.504   .     D
O673   H674    0.991   .     S
S675   O677    1.503   .     D
S675   O678    1.683   .     S
S675   O676    1.503   .     D
O678   H679    0.990   .     S
H680   C24     1.080   1_556 S
C681   C697    1.406   .     S
C681   O722    1.285   .     A
C681   O723    1.292   .     A
C682   C683    1.400   .     A
C682   C72     1.411   1_556 S
C682   C96     1.420   1_556 S
C683   C690    1.411   .     A
C683   C687    1.411   .     A
C684   C688    1.388   .     A
C685   C686    1.411   .     A
C685   C72     1.426   1_556 S
C685   C92     1.413   1_556 S
C686   S743    1.775   .     S
C686   C687    1.395   .     A
C687   H718    1.080   .     S
C688   H714    1.080   .     S
C688   C705    1.384   .     A
C689   C704    1.395   .     A
C689   C705    1.397   .     A
C689   H732    1.083   .     S
C690   C692    1.459   .     S
C690   C706    1.403   .     A
C691   H719    1.084   .     S
C691   C697    1.392   .     A
C691   C897    1.372   .     S
C692   O725    1.302   .     A
C692   O724    1.299   .     A
C693   C694    1.396   .     A
C693   H709    1.084   .     S
C693   C1099   1.372   1_545 S
C694   C702    1.406   .     S
C694   C695    1.392   .     A
C695   H710    1.084   .     S
C695   C1104   1.372   1_545 S
C696   H711    1.084   .     S
C696   C697    1.396   .     A
C696   C899    1.372   .     S
C698   N721    1.346   .     A
C698   H712    1.080   .     S
C698   C767    1.418   .     S
C699   S733    1.783   .     S
C699   N720    1.403   .     A
C700   H713    1.080   .     S
C700   N720    1.346   .     A
C701   S738    1.783   .     S
C701   N721    1.403   .     A
C701   C768    1.418   .     S
C702   O727    1.285   .     A
C702   O726    1.292   .     A
C703   O729    1.298   .     A
C703   C705    1.452   .     S
C703   O728    1.302   .     A
C706   H715    1.083   .     S
C706   C707    1.388   .     A
C707   C96     1.392   1_556 S
C707   H105    1.083   1_556 S
C708   H716    1.080   .     S
N720   Zn730   2.031   .     S
N721   Zn731   2.031   .     S
O722   Zn730   1.968   .     S
O723   Zn731   1.994   .     S
O724   Zn730   1.952   .     S
O725   Zn731   1.907   .     S
O726   Zn730   1.994   .     S
O727   Zn731   1.968   .     S
O728   Zn730   1.907   .     S
O729   Zn731   1.952   .     S
S733   O735    1.504   .     D
S733   O736    1.676   .     S
S733   O734    1.501   .     D
O736   H737    0.991   .     S
S738   O741    1.676   .     S
S738   O740    1.501   .     D
S738   O739    1.504   .     D
O741   H742    0.991   .     S
S743   O745    1.503   .     D
S743   O746    1.683   .     S
S743   O744    1.503   .     D
O746   H747    0.990   .     S
H748   C92     1.080   1_556 S
C749   C765    1.406   .     S
C749   O790    1.285   .     A
C749   O791    1.292   .     A
C750   C751    1.400   .     A
C750   C140    1.411   1_556 S
C750   C164    1.420   1_556 S
C751   C758    1.411   .     A
C751   C755    1.411   .     A
C752   C756    1.388   .     A
C753   C754    1.411   .     A
C753   C140    1.426   1_556 S
C753   C160    1.413   1_556 S
C754   S811    1.775   .     S
C754   C755    1.395   .     A
C755   H786    1.080   .     S
C756   H782    1.080   .     S
C756   C773    1.384   .     A
C757   C772    1.395   .     A
C757   C773    1.397   .     A
C757   H800    1.083   .     S
C758   C760    1.459   .     S
C758   C774    1.403   .     A
C759   H787    1.084   .     S
C759   C765    1.392   .     A
C759   C965    1.372   .     S
C760   O793    1.302   .     A
C760   O792    1.299   .     A
C761   C762    1.396   .     A
C761   H777    1.084   .     S
C761   C1167   1.372   1_545 S
C762   C770    1.406   .     S
C762   C763    1.392   .     A
C763   H778    1.084   .     S
C763   C1172   1.372   1_545 S
C764   H779    1.084   .     S
C764   C765    1.396   .     A
C764   C967    1.372   .     S
C766   N789    1.346   .     A
C766   H780    1.080   .     S
C766   C631    1.418   1_655 S
C767   S801    1.783   .     S
C767   N788    1.403   .     A
C768   H781    1.080   .     S
C768   N788    1.346   .     A
C769   S806    1.783   .     S
C769   N789    1.403   .     A
C769   C632    1.418   1_655 S
C770   O795    1.285   .     A
C770   O794    1.292   .     A
C771   O797    1.298   .     A
C771   C773    1.452   .     S
C771   O796    1.302   .     A
C774   H783    1.083   .     S
C774   C775    1.388   .     A
C775   C164    1.392   1_556 S
C775   H173    1.083   1_556 S
C776   H784    1.080   .     S
N788   Zn798   2.031   .     S
N789   Zn799   2.031   .     S
O790   Zn798   1.968   .     S
O791   Zn799   1.994   .     S
O792   Zn798   1.952   .     S
O793   Zn799   1.907   .     S
O794   Zn798   1.994   .     S
O795   Zn799   1.968   .     S
O796   Zn798   1.907   .     S
O797   Zn799   1.952   .     S
S801   O803    1.504   .     D
S801   O804    1.676   .     S
S801   O802    1.501   .     D
O804   H805    0.991   .     S
S806   O809    1.676   .     S
S806   O808    1.501   .     D
S806   O807    1.504   .     D
O809   H810    0.991   .     S
S811   O813    1.503   .     D
S811   O814    1.683   .     S
S811   O812    1.503   .     D
O814   H815    0.990   .     S
H816   C160    1.080   1_556 S
C817   C833    1.406   .     S
C817   O858    1.285   .     A
C817   O859    1.292   .     A
C818   C819    1.400   .     A
C818   C208    1.411   1_556 S
C818   C232    1.420   1_556 S
C819   C826    1.411   .     A
C819   C823    1.411   .     A
C820   C824    1.388   .     A
C821   C822    1.411   .     A
C821   C208    1.426   1_556 S
C821   C228    1.413   1_556 S
C822   S879    1.775   .     S
C822   C823    1.395   .     A
C823   H854    1.080   .     S
C824   H850    1.080   .     S
C824   C841    1.384   .     A
C825   C840    1.395   .     A
C825   C841    1.397   .     A
C825   H868    1.083   .     S
C826   C828    1.459   .     S
C826   C842    1.403   .     A
C827   H855    1.084   .     S
C827   C833    1.392   .     A
C827   C1033   1.372   .     S
C828   O861    1.302   .     A
C828   O860    1.299   .     A
C829   C830    1.396   .     A
C829   H845    1.084   .     S
C830   C838    1.406   .     S
C830   C831    1.392   .     A
C831   H846    1.084   .     S
C832   H847    1.084   .     S
C832   C833    1.396   .     A
C832   C1035   1.372   .     S
C834   N857    1.346   .     A
C834   H848    1.080   .     S
C834   C903    1.418   .     S
C835   S869    1.783   .     S
C835   N856    1.403   .     A
C835   C970    1.418   1_455 S
C836   H849    1.080   .     S
C836   N856    1.346   .     A
C836   C973    1.418   1_455 S
C837   S874    1.783   .     S
C837   N857    1.403   .     A
C837   C904    1.418   .     S
C838   O863    1.285   .     A
C838   O862    1.292   .     A
C839   O865    1.298   .     A
C839   C841    1.452   .     S
C839   O864    1.302   .     A
C842   H851    1.083   .     S
C842   C843    1.388   .     A
C843   C232    1.392   1_556 S
C843   H241    1.083   1_556 S
C844   H852    1.080   .     S
N856   Zn866   2.031   .     S
N857   Zn867   2.031   .     S
O858   Zn866   1.968   .     S
O859   Zn867   1.994   .     S
O860   Zn866   1.952   .     S
O861   Zn867   1.907   .     S
O862   Zn866   1.994   .     S
O863   Zn867   1.968   .     S
O864   Zn866   1.907   .     S
O865   Zn867   1.952   .     S
S869   O871    1.504   .     D
S869   O872    1.676   .     S
S869   O870    1.501   .     D
O872   H873    0.991   .     S
S874   O877    1.676   .     S
S874   O876    1.501   .     D
S874   O875    1.504   .     D
O877   H878    0.991   .     S
S879   O881    1.503   .     D
S879   O882    1.683   .     S
S879   O880    1.503   .     D
O882   H883    0.990   .     S
H884   C228    1.080   1_556 S
C885   C901    1.406   .     S
C885   O926    1.285   .     A
C885   O927    1.292   .     A
C886   C887    1.400   .     A
C886   C276    1.411   1_556 S
C886   C300    1.420   1_556 S
C887   C894    1.411   .     A
C887   C891    1.411   .     A
C888   C892    1.388   .     A
C889   C890    1.411   .     A
C889   C276    1.426   1_556 S
C889   C296    1.413   1_556 S
C890   S947    1.775   .     S
C890   C891    1.395   .     A
C891   H922    1.080   .     S
C892   H918    1.080   .     S
C892   C909    1.384   .     A
C893   C908    1.395   .     A
C893   C909    1.397   .     A
C893   H936    1.083   .     S
C894   C896    1.459   .     S
C894   C910    1.403   .     A
C895   H923    1.084   .     S
C895   C901    1.392   .     A
C895   C1101   1.372   .     S
C896   O929    1.302   .     A
C896   O928    1.299   .     A
C897   C898    1.396   .     A
C897   H913    1.084   .     S
C898   C906    1.406   .     S
C898   C899    1.392   .     A
C899   H914    1.084   .     S
C900   H915    1.084   .     S
C900   C901    1.396   .     A
C900   C1103   1.372   .     S
C902   N925    1.346   .     A
C902   H916    1.080   .     S
C902   C971    1.418   .     S
C903   S937    1.783   .     S
C903   N924    1.403   .     A
C904   H917    1.080   .     S
C904   N924    1.346   .     A
C905   S942    1.783   .     S
C905   N925    1.403   .     A
C905   C972    1.418   .     S
C906   O931    1.285   .     A
C906   O930    1.292   .     A
C907   O933    1.298   .     A
C907   C909    1.452   .     S
C907   O932    1.302   .     A
C910   H919    1.083   .     S
C910   C911    1.388   .     A
C911   C300    1.392   1_556 S
C911   H309    1.083   1_556 S
C912   H920    1.080   .     S
N924   Zn934   2.031   .     S
N925   Zn935   2.031   .     S
O926   Zn934   1.968   .     S
O927   Zn935   1.994   .     S
O928   Zn934   1.952   .     S
O929   Zn935   1.907   .     S
O930   Zn934   1.994   .     S
O931   Zn935   1.968   .     S
O932   Zn934   1.907   .     S
O933   Zn935   1.952   .     S
S937   O939    1.504   .     D
S937   O940    1.676   .     S
S937   O938    1.501   .     D
O940   H941    0.991   .     S
S942   O945    1.676   .     S
S942   O944    1.501   .     D
S942   O943    1.504   .     D
O945   H946    0.991   .     S
S947   O949    1.503   .     D
S947   O950    1.683   .     S
S947   O948    1.503   .     D
O950   H951    0.990   .     S
H952   C296    1.080   1_556 S
C953   C969    1.406   .     S
C953   O994    1.285   .     A
C953   O995    1.292   .     A
C954   C955    1.400   .     A
C954   C344    1.411   1_556 S
C954   C368    1.420   1_556 S
C955   C962    1.411   .     A
C955   C959    1.411   .     A
C956   C960    1.388   .     A
C957   C958    1.411   .     A
C957   C344    1.426   1_556 S
C957   C364    1.413   1_556 S
C958   S1015   1.775   .     S
C958   C959    1.395   .     A
C959   H990    1.080   .     S
C960   H986    1.080   .     S
C960   C977    1.384   .     A
C961   C976    1.395   .     A
C961   C977    1.397   .     A
C961   H1004   1.083   .     S
C962   C964    1.459   .     S
C962   C978    1.403   .     A
C963   H991    1.084   .     S
C963   C969    1.392   .     A
C963   C1169   1.372   .     S
C964   O997    1.302   .     A
C964   O996    1.299   .     A
C965   C966    1.396   .     A
C965   H981    1.084   .     S
C966   C974    1.406   .     S
C966   C967    1.392   .     A
C967   H982    1.084   .     S
C968   H983    1.084   .     S
C968   C969    1.396   .     A
C968   C1171   1.372   .     S
C970   N993    1.346   .     A
C970   H984    1.080   .     S
C970   C835    1.418   1_655 S
C971   S1005   1.783   .     S
C971   N992    1.403   .     A
C972   H985    1.080   .     S
C972   N992    1.346   .     A
C973   S1010   1.783   .     S
C973   N993    1.403   .     A
C973   C836    1.418   1_655 S
C974   O999    1.285   .     A
C974   O998    1.292   .     A
C975   O1001   1.298   .     A
C975   C977    1.452   .     S
C975   O1000   1.302   .     A
C978   H987    1.083   .     S
C978   C979    1.388   .     A
C979   C368    1.392   1_556 S
C979   H377    1.083   1_556 S
C980   H988    1.080   .     S
N992   Zn1002  2.031   .     S
N993   Zn1003  2.031   .     S
O994   Zn1002  1.968   .     S
O995   Zn1003  1.994   .     S
O996   Zn1002  1.952   .     S
O997   Zn1003  1.907   .     S
O998   Zn1002  1.994   .     S
O999   Zn1003  1.968   .     S
O1000  Zn1002  1.907   .     S
O1001  Zn1003  1.952   .     S
S1005  O1007   1.504   .     D
S1005  O1008   1.676   .     S
S1005  O1006   1.501   .     D
O1008  H1009   0.991   .     S
S1010  O1013   1.676   .     S
S1010  O1012   1.501   .     D
S1010  O1011   1.504   .     D
O1013  H1014   0.991   .     S
S1015  O1017   1.503   .     D
S1015  O1018   1.683   .     S
S1015  O1016   1.503   .     D
O1018  H1019   0.990   .     S
H1020  C364    1.080   1_556 S
C1021  C1037   1.406   .     S
C1021  O1062   1.285   .     A
C1021  O1063   1.292   .     A
C1022  C1023   1.400   .     A
C1022  C412    1.411   1_556 S
C1022  C436    1.420   1_556 S
C1023  C1030   1.411   .     A
C1023  C1027   1.411   .     A
C1024  C1028   1.388   .     A
C1025  C1026   1.411   .     A
C1025  C412    1.426   1_556 S
C1025  C432    1.413   1_556 S
C1026  S1083   1.775   .     S
C1026  C1027   1.395   .     A
C1027  H1058   1.080   .     S
C1028  H1054   1.080   .     S
C1028  C1045   1.384   .     A
C1029  C1044   1.395   .     A
C1029  C1045   1.397   .     A
C1029  H1072   1.083   .     S
C1030  C1032   1.459   .     S
C1030  C1046   1.403   .     A
C1031  H1059   1.084   .     S
C1031  C1037   1.392   .     A
C1031  C625    1.372   1_565 S
C1032  O1065   1.302   .     A
C1032  O1064   1.299   .     A
C1033  C1034   1.396   .     A
C1033  H1049   1.084   .     S
C1034  C1042   1.406   .     S
C1034  C1035   1.392   .     A
C1035  H1050   1.084   .     S
C1036  H1051   1.084   .     S
C1036  C1037   1.396   .     A
C1036  C627    1.372   1_565 S
C1038  N1061   1.346   .     A
C1038  H1052   1.080   .     S
C1038  C1107   1.418   .     S
C1039  S1073   1.783   .     S
C1039  N1060   1.403   .     A
C1039  C1174   1.418   1_455 S
C1040  H1053   1.080   .     S
C1040  N1060   1.346   .     A
C1040  C1177   1.418   1_455 S
C1041  S1078   1.783   .     S
C1041  N1061   1.403   .     A
C1041  C1108   1.418   .     S
C1042  O1067   1.285   .     A
C1042  O1066   1.292   .     A
C1043  O1069   1.298   .     A
C1043  C1045   1.452   .     S
C1043  O1068   1.302   .     A
C1046  H1055   1.083   .     S
C1046  C1047   1.388   .     A
C1047  C436    1.392   1_556 S
C1047  H445    1.083   1_556 S
C1048  H1056   1.080   .     S
N1060  Zn1070  2.031   .     S
N1061  Zn1071  2.031   .     S
O1062  Zn1070  1.968   .     S
O1063  Zn1071  1.994   .     S
O1064  Zn1070  1.952   .     S
O1065  Zn1071  1.907   .     S
O1066  Zn1070  1.994   .     S
O1067  Zn1071  1.968   .     S
O1068  Zn1070  1.907   .     S
O1069  Zn1071  1.952   .     S
S1073  O1075   1.504   .     D
S1073  O1076   1.676   .     S
S1073  O1074   1.501   .     D
O1076  H1077   0.991   .     S
S1078  O1081   1.676   .     S
S1078  O1080   1.501   .     D
S1078  O1079   1.504   .     D
O1081  H1082   0.991   .     S
S1083  O1085   1.503   .     D
S1083  O1086   1.683   .     S
S1083  O1084   1.503   .     D
O1086  H1087   0.990   .     S
H1088  C432    1.080   1_556 S
C1089  C1105   1.406   .     S
C1089  O1130   1.285   .     A
C1089  O1131   1.292   .     A
C1090  C1091   1.400   .     A
C1090  C480    1.411   1_556 S
C1090  C504    1.420   1_556 S
C1091  C1098   1.411   .     A
C1091  C1095   1.411   .     A
C1092  C1096   1.388   .     A
C1093  C1094   1.411   .     A
C1093  C480    1.426   1_556 S
C1093  C500    1.413   1_556 S
C1094  S1151   1.775   .     S
C1094  C1095   1.395   .     A
C1095  H1126   1.080   .     S
C1096  H1122   1.080   .     S
C1096  C1113   1.384   .     A
C1097  C1112   1.395   .     A
C1097  C1113   1.397   .     A
C1097  H1140   1.083   .     S
C1098  C1100   1.459   .     S
C1098  C1114   1.403   .     A
C1099  H1127   1.084   .     S
C1099  C1105   1.392   .     A
C1099  C693    1.372   1_565 S
C1100  O1133   1.302   .     A
C1100  O1132   1.299   .     A
C1101  C1102   1.396   .     A
C1101  H1117   1.084   .     S
C1102  C1110   1.406   .     S
C1102  C1103   1.392   .     A
C1103  H1118   1.084   .     S
C1104  H1119   1.084   .     S
C1104  C1105   1.396   .     A
C1104  C695    1.372   1_565 S
C1106  N1129   1.346   .     A
C1106  H1120   1.080   .     S
C1106  C1175   1.418   .     S
C1107  S1141   1.783   .     S
C1107  N1128   1.403   .     A
C1108  H1121   1.080   .     S
C1108  N1128   1.346   .     A
C1109  S1146   1.783   .     S
C1109  N1129   1.403   .     A
C1109  C1176   1.418   .     S
C1110  O1135   1.285   .     A
C1110  O1134   1.292   .     A
C1111  O1137   1.298   .     A
C1111  C1113   1.452   .     S
C1111  O1136   1.302   .     A
C1114  H1123   1.083   .     S
C1114  C1115   1.388   .     A
C1115  C504    1.392   1_556 S
C1115  H513    1.083   1_556 S
C1116  H1124   1.080   .     S
N1128  Zn1138  2.031   .     S
N1129  Zn1139  2.031   .     S
O1130  Zn1138  1.968   .     S
O1131  Zn1139  1.994   .     S
O1132  Zn1138  1.952   .     S
O1133  Zn1139  1.907   .     S
O1134  Zn1138  1.994   .     S
O1135  Zn1139  1.968   .     S
O1136  Zn1138  1.907   .     S
O1137  Zn1139  1.952   .     S
S1141  O1143   1.504   .     D
S1141  O1144   1.676   .     S
S1141  O1142   1.501   .     D
O1144  H1145   0.991   .     S
S1146  O1149   1.676   .     S
S1146  O1148   1.501   .     D
S1146  O1147   1.504   .     D
O1149  H1150   0.991   .     S
S1151  O1153   1.503   .     D
S1151  O1154   1.683   .     S
S1151  O1152   1.503   .     D
O1154  H1155   0.990   .     S
H1156  C500    1.080   1_556 S
C1157  C1173   1.406   .     S
C1157  O1198   1.285   .     A
C1157  O1199   1.292   .     A
C1158  C1159   1.400   .     A
C1158  C548    1.411   1_556 S
C1158  C572    1.420   1_556 S
C1159  C1166   1.411   .     A
C1159  C1163   1.411   .     A
C1160  C1164   1.388   .     A
C1161  C1162   1.411   .     A
C1161  C548    1.426   1_556 S
C1161  C568    1.413   1_556 S
C1162  S1219   1.775   .     S
C1162  C1163   1.395   .     A
C1163  H1194   1.080   .     S
C1164  H1190   1.080   .     S
C1164  C1181   1.384   .     A
C1165  C1180   1.395   .     A
C1165  C1181   1.397   .     A
C1165  H1208   1.083   .     S
C1166  C1168   1.459   .     S
C1166  C1182   1.403   .     A
C1167  H1195   1.084   .     S
C1167  C1173   1.392   .     A
C1167  C761    1.372   1_565 S
C1168  O1201   1.302   .     A
C1168  O1200   1.299   .     A
C1169  C1170   1.396   .     A
C1169  H1185   1.084   .     S
C1170  C1178   1.406   .     S
C1170  C1171   1.392   .     A
C1171  H1186   1.084   .     S
C1172  H1187   1.084   .     S
C1172  C1173   1.396   .     A
C1172  C763    1.372   1_565 S
C1174  N1197   1.346   .     A
C1174  H1188   1.080   .     S
C1174  C1039   1.418   1_655 S
C1175  S1209   1.783   .     S
C1175  N1196   1.403   .     A
C1176  H1189   1.080   .     S
C1176  N1196   1.346   .     A
C1177  S1214   1.783   .     S
C1177  N1197   1.403   .     A
C1177  C1040   1.418   1_655 S
C1178  O1203   1.285   .     A
C1178  O1202   1.292   .     A
C1179  O1205   1.298   .     A
C1179  C1181   1.452   .     S
C1179  O1204   1.302   .     A
C1182  H1191   1.083   .     S
C1182  C1183   1.388   .     A
C1183  C572    1.392   1_556 S
C1183  H581    1.083   1_556 S
C1184  H1192   1.080   .     S
N1196  Zn1206  2.031   .     S
N1197  Zn1207  2.031   .     S
O1198  Zn1206  1.968   .     S
O1199  Zn1207  1.994   .     S
O1200  Zn1206  1.952   .     S
O1201  Zn1207  1.907   .     S
O1202  Zn1206  1.994   .     S
O1203  Zn1207  1.968   .     S
O1204  Zn1206  1.907   .     S
O1205  Zn1207  1.952   .     S
S1209  O1211   1.504   .     D
S1209  O1212   1.676   .     S
S1209  O1210   1.501   .     D
O1212  H1213   0.991   .     S
S1214  O1217   1.676   .     S
S1214  O1216   1.501   .     D
S1214  O1215   1.504   .     D
O1217  H1218   0.991   .     S
S1219  O1221   1.503   .     D
S1219  O1222   1.683   .     S
S1219  O1220   1.503   .     D
O1222  H1223   0.990   .     S
H1224  C568    1.080   1_556 S
