data_str_m3_o1_o16_pcu_sym.33
_audit_creation_date              2020-01-03
_audit_creation_method            'Materials Studio'
_symmetry_space_group_name_H-M    'P1'
_symmetry_Int_Tables_number       1
_symmetry_cell_setting            triclinic
loop_
_symmetry_equiv_pos_as_xyz
  x,y,z
_cell_length_a                    29.5359
_cell_length_b                    32.1555
_cell_length_c                    26.2343
_cell_angle_alpha                 88.7578
_cell_angle_beta                  69.4020
_cell_angle_gamma                 89.4457
loop_
_atom_site_label
_atom_site_type_symbol
_atom_site_fract_x
_atom_site_fract_y
_atom_site_fract_z
_atom_site_U_iso_or_equiv
_atom_site_adp_type
_atom_site_occupancy
O1     O     0.12846   0.22775   0.25000   0.00000  Uiso   1.00
O2     O     0.20490   0.22774   0.25000   0.00000  Uiso   1.00
C3     C     0.16615   0.24658   0.25099   0.00000  Uiso   1.00
O4     O     0.10947   0.16666   0.32681   0.00000  Uiso   1.00
O5     O     0.18591   0.16665   0.32681   0.00000  Uiso   1.00
C6     C     0.13969   0.16577   0.35250   0.00000  Uiso   1.00
Zn7    Zn    0.11562   0.16667   0.25000   0.00000  Uiso   1.00
Zn8    Zn    0.21771   0.16666   0.25000   0.00000  Uiso   1.00
O9     O     0.12843   0.10559   0.24999   0.00000  Uiso   1.00
O10    O     0.20488   0.10558   0.24999   0.00000  Uiso   1.00
O11    O     0.14742   0.16668   0.17319   0.00000  Uiso   1.00
O12    O     0.22387   0.16667   0.17319   0.00000  Uiso   1.00
C13    C     0.16655   0.08661   0.25133   0.00000  Uiso   1.00
C14    C     0.19383   0.16671   0.14767   0.00000  Uiso   1.00
C15    C     0.25169   0.11595   0.01446   0.00000  Uiso   1.00
H16    H     0.24913   0.08728   0.42182   0.00000  Uiso   1.00
H17    H     0.27939   0.09303   0.49565   0.00000  Uiso   1.00
C18    C     0.21200   0.16191   0.08889   0.00000  Uiso   1.00
C19    C     0.07944   0.18738   0.44076   0.00000  Uiso   1.00
C20    C     0.06786   0.19600   0.49607   0.00000  Uiso   1.00
C21    C     0.10149   0.18577   0.02121   0.00000  Uiso   1.00
C22    C     0.14569   0.16589   0.49207   0.00000  Uiso   1.00
C23    C     0.15259   0.15145   0.43967   0.00000  Uiso   1.00
C24    C     0.18253   0.15820   0.01419   0.00000  Uiso   1.00
C25    C     0.21867   0.12801   0.48987   0.00000  Uiso   1.00
C26    C     0.22158   0.11020   0.44105   0.00000  Uiso   1.00
C27    C     0.18979   0.12264   0.41566   0.00000  Uiso   1.00
C28    C     0.18509   0.17980   0.05923   0.00000  Uiso   1.00
C29    C     0.24752   0.13143   0.06497   0.00000  Uiso   1.00
C30    C     0.12231   0.16628   0.41212   0.00000  Uiso   1.00
H31    H     0.05594   0.19829   0.41955   0.00000  Uiso   1.00
H32    H     0.09248   0.19251   0.06384   0.00000  Uiso   1.00
H33    H     0.19379   0.10861   0.37754   0.00000  Uiso   1.00
C34    C     0.18658   0.31039   0.28681   0.00000  Uiso   1.00
C35    C     0.18810   0.02018   0.28569   0.00000  Uiso   1.00
C36    C     0.16679   0.04234   0.25294   0.00000  Uiso   1.00
C37    C     0.14378   0.02201   0.22242   0.00000  Uiso   1.00
H38    H     0.12728   0.03916   0.19742   0.00000  Uiso   1.00
C39    C     0.14266   0.31273   0.22318   0.00000  Uiso   1.00
H40    H     0.12565   0.29707   0.19847   0.00000  Uiso   1.00
C41    C     0.16467   0.29052   0.25436   0.00000  Uiso   1.00
C42    C     0.31875   0.13808   0.22095   0.00000  Uiso   1.00
H43    H     0.30801   0.11497   0.19814   0.00000  Uiso   1.00
C44    C     0.03342   0.13821   0.22074   0.00000  Uiso   1.00
H45    H     0.05911   0.11544   0.19730   0.00000  Uiso   1.00
N46    N     0.04760   0.16668   0.25001   0.00000  Uiso   1.00
C47    C     0.01440   0.19485   0.27972   0.00000  Uiso   1.00
H48    H     0.02485   0.21736   0.30357   0.00000  Uiso   1.00
C49    C     0.29978   0.19477   0.27977   0.00000  Uiso   1.00
H50    H     0.27387   0.21698   0.30391   0.00000  Uiso   1.00
N51    N     0.28573   0.16665   0.25000   0.00000  Uiso   1.00
N52    N     0.27898   0.11537   0.09165   0.00000  Uiso   1.00
O53    O     0.28480   0.07538   0.09512   0.00000  Uiso   1.00
O54    O     0.30938   0.14022   0.10128   0.00000  Uiso   1.00
N55    N     0.20727   0.04086   0.32145   0.00000  Uiso   1.00
O56    O     0.18861   0.03280   0.37352   0.00000  Uiso   1.00
O57    O     0.25028   0.05710   0.30173   0.00000  Uiso   1.00
N58    N     0.16801   0.22231   0.06882   0.00000  Uiso   1.00
O59    O     0.15871   0.23922   0.11602   0.00000  Uiso   1.00
O60    O     0.17047   0.24659   0.02756   0.00000  Uiso   1.00
N61    N     0.02320   0.21672   0.02589   0.00000  Uiso   1.00
O62    O     0.32385   0.22343   0.00387   0.00000  Uiso   1.00
O63    O     0.01460   0.22877   0.07548   0.00000  Uiso   1.00
N64    N     0.20586   0.28708   0.32200   0.00000  Uiso   1.00
O65    O     0.17879   0.26040   0.35737   0.00000  Uiso   1.00
O66    O     0.24897   0.29502   0.32203   0.00000  Uiso   1.00
O67    O     0.46179   0.22775   0.25000   0.00000  Uiso   1.00
O68    O     0.53823   0.22774   0.25000   0.00000  Uiso   1.00
C69    C     0.49948   0.24658   0.25099   0.00000  Uiso   1.00
O70    O     0.44280   0.16666   0.32681   0.00000  Uiso   1.00
O71    O     0.51924   0.16665   0.32681   0.00000  Uiso   1.00
C72    C     0.47302   0.16577   0.35250   0.00000  Uiso   1.00
Zn73   Zn    0.44896   0.16667   0.25000   0.00000  Uiso   1.00
Zn74   Zn    0.55104   0.16666   0.25000   0.00000  Uiso   1.00
O75    O     0.46177   0.10559   0.24999   0.00000  Uiso   1.00
O76    O     0.53821   0.10558   0.24999   0.00000  Uiso   1.00
O77    O     0.48076   0.16668   0.17319   0.00000  Uiso   1.00
O78    O     0.55720   0.16667   0.17319   0.00000  Uiso   1.00
C79    C     0.49989   0.08661   0.25133   0.00000  Uiso   1.00
C80    C     0.52716   0.16671   0.14767   0.00000  Uiso   1.00
C81    C     0.58502   0.11595   0.01446   0.00000  Uiso   1.00
H82    H     0.58247   0.08728   0.42182   0.00000  Uiso   1.00
H83    H     0.61273   0.09303   0.49565   0.00000  Uiso   1.00
C84    C     0.54533   0.16191   0.08889   0.00000  Uiso   1.00
C85    C     0.41278   0.18738   0.44076   0.00000  Uiso   1.00
C86    C     0.40119   0.19600   0.49607   0.00000  Uiso   1.00
C87    C     0.43482   0.18577   0.02121   0.00000  Uiso   1.00
C88    C     0.47902   0.16589   0.49207   0.00000  Uiso   1.00
C89    C     0.48592   0.15145   0.43967   0.00000  Uiso   1.00
C90    C     0.51586   0.15820   0.01419   0.00000  Uiso   1.00
C91    C     0.55200   0.12801   0.48987   0.00000  Uiso   1.00
C92    C     0.55492   0.11020   0.44105   0.00000  Uiso   1.00
C93    C     0.52313   0.12264   0.41566   0.00000  Uiso   1.00
C94    C     0.51842   0.17980   0.05923   0.00000  Uiso   1.00
C95    C     0.58085   0.13143   0.06497   0.00000  Uiso   1.00
C96    C     0.45564   0.16628   0.41212   0.00000  Uiso   1.00
H97    H     0.38927   0.19829   0.41955   0.00000  Uiso   1.00
H98    H     0.42582   0.19251   0.06384   0.00000  Uiso   1.00
H99    H     0.52712   0.10861   0.37754   0.00000  Uiso   1.00
C100   C     0.51991   0.31039   0.28681   0.00000  Uiso   1.00
C101   C     0.52143   0.02018   0.28569   0.00000  Uiso   1.00
C102   C     0.50012   0.04234   0.25294   0.00000  Uiso   1.00
C103   C     0.47712   0.02201   0.22242   0.00000  Uiso   1.00
H104   H     0.46061   0.03916   0.19742   0.00000  Uiso   1.00
C105   C     0.47600   0.31273   0.22318   0.00000  Uiso   1.00
H106   H     0.45898   0.29707   0.19847   0.00000  Uiso   1.00
C107   C     0.49800   0.29052   0.25436   0.00000  Uiso   1.00
C108   C     0.65208   0.13808   0.22095   0.00000  Uiso   1.00
H109   H     0.64134   0.11497   0.19814   0.00000  Uiso   1.00
C110   C     0.36675   0.13821   0.22074   0.00000  Uiso   1.00
H111   H     0.39245   0.11544   0.19730   0.00000  Uiso   1.00
N112   N     0.38093   0.16668   0.25001   0.00000  Uiso   1.00
C113   C     0.34773   0.19485   0.27972   0.00000  Uiso   1.00
H114   H     0.35819   0.21736   0.30357   0.00000  Uiso   1.00
C115   C     0.63311   0.19477   0.27977   0.00000  Uiso   1.00
H116   H     0.60720   0.21698   0.30391   0.00000  Uiso   1.00
N117   N     0.61906   0.16665   0.25000   0.00000  Uiso   1.00
N118   N     0.61231   0.11537   0.09165   0.00000  Uiso   1.00
O119   O     0.61814   0.07538   0.09512   0.00000  Uiso   1.00
O120   O     0.64271   0.14022   0.10128   0.00000  Uiso   1.00
N121   N     0.54060   0.04086   0.32145   0.00000  Uiso   1.00
O122   O     0.52195   0.03280   0.37352   0.00000  Uiso   1.00
O123   O     0.58361   0.05710   0.30173   0.00000  Uiso   1.00
N124   N     0.50134   0.22231   0.06882   0.00000  Uiso   1.00
O125   O     0.49205   0.23922   0.11602   0.00000  Uiso   1.00
O126   O     0.50380   0.24659   0.02756   0.00000  Uiso   1.00
N127   N     0.35654   0.21672   0.02589   0.00000  Uiso   1.00
O128   O     0.65718   0.22343   0.00387   0.00000  Uiso   1.00
O129   O     0.34793   0.22877   0.07548   0.00000  Uiso   1.00
N130   N     0.53919   0.28708   0.32200   0.00000  Uiso   1.00
O131   O     0.51212   0.26040   0.35737   0.00000  Uiso   1.00
O132   O     0.58231   0.29502   0.32203   0.00000  Uiso   1.00
O133   O     0.79512   0.22775   0.25000   0.00000  Uiso   1.00
O134   O     0.87157   0.22774   0.25000   0.00000  Uiso   1.00
C135   C     0.83282   0.24658   0.25099   0.00000  Uiso   1.00
O136   O     0.77613   0.16666   0.32681   0.00000  Uiso   1.00
O137   O     0.85258   0.16665   0.32681   0.00000  Uiso   1.00
C138   C     0.80636   0.16577   0.35250   0.00000  Uiso   1.00
Zn139  Zn    0.78229   0.16667   0.25000   0.00000  Uiso   1.00
Zn140  Zn    0.88438   0.16666   0.25000   0.00000  Uiso   1.00
O141   O     0.79510   0.10559   0.24999   0.00000  Uiso   1.00
O142   O     0.87154   0.10558   0.24999   0.00000  Uiso   1.00
O143   O     0.81409   0.16668   0.17319   0.00000  Uiso   1.00
O144   O     0.89053   0.16667   0.17319   0.00000  Uiso   1.00
C145   C     0.83322   0.08661   0.25133   0.00000  Uiso   1.00
C146   C     0.86049   0.16671   0.14767   0.00000  Uiso   1.00
C147   C     0.91835   0.11595   0.01446   0.00000  Uiso   1.00
H148   H     0.91580   0.08728   0.42182   0.00000  Uiso   1.00
H149   H     0.94606   0.09303   0.49565   0.00000  Uiso   1.00
C150   C     0.87866   0.16191   0.08889   0.00000  Uiso   1.00
C151   C     0.74611   0.18738   0.44076   0.00000  Uiso   1.00
C152   C     0.73452   0.19600   0.49607   0.00000  Uiso   1.00
C153   C     0.76816   0.18577   0.02121   0.00000  Uiso   1.00
C154   C     0.81236   0.16589   0.49207   0.00000  Uiso   1.00
C155   C     0.81925   0.15145   0.43967   0.00000  Uiso   1.00
C156   C     0.84919   0.15820   0.01419   0.00000  Uiso   1.00
C157   C     0.88533   0.12801   0.48987   0.00000  Uiso   1.00
C158   C     0.88825   0.11020   0.44105   0.00000  Uiso   1.00
C159   C     0.85646   0.12264   0.41566   0.00000  Uiso   1.00
C160   C     0.85176   0.17980   0.05923   0.00000  Uiso   1.00
C161   C     0.91419   0.13143   0.06497   0.00000  Uiso   1.00
C162   C     0.78897   0.16628   0.41212   0.00000  Uiso   1.00
H163   H     0.72261   0.19829   0.41955   0.00000  Uiso   1.00
H164   H     0.75915   0.19251   0.06384   0.00000  Uiso   1.00
H165   H     0.86045   0.10861   0.37754   0.00000  Uiso   1.00
C166   C     0.85324   0.31039   0.28681   0.00000  Uiso   1.00
C167   C     0.85477   0.02018   0.28569   0.00000  Uiso   1.00
C168   C     0.83346   0.04234   0.25294   0.00000  Uiso   1.00
C169   C     0.81045   0.02201   0.22242   0.00000  Uiso   1.00
H170   H     0.79395   0.03916   0.19742   0.00000  Uiso   1.00
C171   C     0.80933   0.31273   0.22318   0.00000  Uiso   1.00
H172   H     0.79232   0.29707   0.19847   0.00000  Uiso   1.00
C173   C     0.83133   0.29052   0.25436   0.00000  Uiso   1.00
C174   C     0.98542   0.13808   0.22095   0.00000  Uiso   1.00
H175   H     0.97468   0.11497   0.19814   0.00000  Uiso   1.00
C176   C     0.70008   0.13821   0.22074   0.00000  Uiso   1.00
H177   H     0.72578   0.11544   0.19730   0.00000  Uiso   1.00
N178   N     0.71426   0.16668   0.25001   0.00000  Uiso   1.00
C179   C     0.68106   0.19485   0.27972   0.00000  Uiso   1.00
H180   H     0.69152   0.21736   0.30357   0.00000  Uiso   1.00
C181   C     0.96644   0.19477   0.27977   0.00000  Uiso   1.00
H182   H     0.94054   0.21698   0.30391   0.00000  Uiso   1.00
N183   N     0.95239   0.16665   0.25000   0.00000  Uiso   1.00
N184   N     0.94565   0.11537   0.09165   0.00000  Uiso   1.00
O185   O     0.95147   0.07538   0.09512   0.00000  Uiso   1.00
O186   O     0.97604   0.14022   0.10128   0.00000  Uiso   1.00
N187   N     0.87394   0.04086   0.32145   0.00000  Uiso   1.00
O188   O     0.85528   0.03280   0.37352   0.00000  Uiso   1.00
O189   O     0.91695   0.05710   0.30173   0.00000  Uiso   1.00
N190   N     0.83467   0.22231   0.06882   0.00000  Uiso   1.00
O191   O     0.82538   0.23922   0.11602   0.00000  Uiso   1.00
O192   O     0.83713   0.24659   0.02756   0.00000  Uiso   1.00
N193   N     0.68987   0.21672   0.02589   0.00000  Uiso   1.00
O194   O     0.99051   0.22343   0.00387   0.00000  Uiso   1.00
O195   O     0.68127   0.22877   0.07548   0.00000  Uiso   1.00
N196   N     0.87253   0.28708   0.32200   0.00000  Uiso   1.00
O197   O     0.84546   0.26040   0.35737   0.00000  Uiso   1.00
O198   O     0.91564   0.29502   0.32203   0.00000  Uiso   1.00
O199   O     0.12846   0.56108   0.25000   0.00000  Uiso   1.00
O200   O     0.20490   0.56107   0.25000   0.00000  Uiso   1.00
C201   C     0.16615   0.57991   0.25099   0.00000  Uiso   1.00
O202   O     0.10947   0.50000   0.32681   0.00000  Uiso   1.00
O203   O     0.18591   0.49999   0.32681   0.00000  Uiso   1.00
C204   C     0.13969   0.49910   0.35250   0.00000  Uiso   1.00
Zn205  Zn    0.11562   0.50001   0.25000   0.00000  Uiso   1.00
Zn206  Zn    0.21771   0.49999   0.25000   0.00000  Uiso   1.00
O207   O     0.12843   0.43893   0.24999   0.00000  Uiso   1.00
O208   O     0.20488   0.43892   0.24999   0.00000  Uiso   1.00
O209   O     0.14742   0.50001   0.17319   0.00000  Uiso   1.00
O210   O     0.22387   0.50000   0.17319   0.00000  Uiso   1.00
C211   C     0.16655   0.41994   0.25133   0.00000  Uiso   1.00
C212   C     0.19383   0.50004   0.14767   0.00000  Uiso   1.00
C213   C     0.25169   0.44928   0.01446   0.00000  Uiso   1.00
H214   H     0.24913   0.42061   0.42182   0.00000  Uiso   1.00
H215   H     0.27939   0.42636   0.49565   0.00000  Uiso   1.00
C216   C     0.21200   0.49524   0.08889   0.00000  Uiso   1.00
C217   C     0.07944   0.52072   0.44076   0.00000  Uiso   1.00
C218   C     0.06786   0.52933   0.49607   0.00000  Uiso   1.00
C219   C     0.10149   0.51910   0.02121   0.00000  Uiso   1.00
C220   C     0.14569   0.49922   0.49207   0.00000  Uiso   1.00
C221   C     0.15259   0.48479   0.43967   0.00000  Uiso   1.00
C222   C     0.18253   0.49153   0.01419   0.00000  Uiso   1.00
C223   C     0.21867   0.46134   0.48987   0.00000  Uiso   1.00
C224   C     0.22158   0.44353   0.44105   0.00000  Uiso   1.00
C225   C     0.18979   0.45597   0.41566   0.00000  Uiso   1.00
C226   C     0.18509   0.51313   0.05923   0.00000  Uiso   1.00
C227   C     0.24752   0.46476   0.06497   0.00000  Uiso   1.00
C228   C     0.12231   0.49961   0.41212   0.00000  Uiso   1.00
H229   H     0.05594   0.53162   0.41955   0.00000  Uiso   1.00
H230   H     0.09248   0.52585   0.06384   0.00000  Uiso   1.00
H231   H     0.19379   0.44195   0.37754   0.00000  Uiso   1.00
C232   C     0.18658   0.64372   0.28681   0.00000  Uiso   1.00
C233   C     0.18810   0.35351   0.28569   0.00000  Uiso   1.00
C234   C     0.16679   0.37567   0.25294   0.00000  Uiso   1.00
C235   C     0.14378   0.35535   0.22242   0.00000  Uiso   1.00
H236   H     0.12728   0.37249   0.19742   0.00000  Uiso   1.00
C237   C     0.14266   0.64606   0.22318   0.00000  Uiso   1.00
H238   H     0.12565   0.63041   0.19847   0.00000  Uiso   1.00
C239   C     0.16467   0.62385   0.25436   0.00000  Uiso   1.00
C240   C     0.31875   0.47141   0.22095   0.00000  Uiso   1.00
H241   H     0.30801   0.44830   0.19814   0.00000  Uiso   1.00
C242   C     0.03342   0.47154   0.22074   0.00000  Uiso   1.00
H243   H     0.05911   0.44878   0.19730   0.00000  Uiso   1.00
N244   N     0.04760   0.50001   0.25001   0.00000  Uiso   1.00
C245   C     0.01440   0.52819   0.27972   0.00000  Uiso   1.00
H246   H     0.02485   0.55069   0.30357   0.00000  Uiso   1.00
C247   C     0.29978   0.52811   0.27977   0.00000  Uiso   1.00
H248   H     0.27387   0.55031   0.30391   0.00000  Uiso   1.00
N249   N     0.28573   0.49998   0.25000   0.00000  Uiso   1.00
N250   N     0.27898   0.44870   0.09165   0.00000  Uiso   1.00
O251   O     0.28480   0.40872   0.09512   0.00000  Uiso   1.00
O252   O     0.30938   0.47355   0.10128   0.00000  Uiso   1.00
N253   N     0.20727   0.37419   0.32145   0.00000  Uiso   1.00
O254   O     0.18861   0.36613   0.37352   0.00000  Uiso   1.00
O255   O     0.25028   0.39044   0.30173   0.00000  Uiso   1.00
N256   N     0.16801   0.55564   0.06882   0.00000  Uiso   1.00
O257   O     0.15871   0.57255   0.11602   0.00000  Uiso   1.00
O258   O     0.17047   0.57992   0.02756   0.00000  Uiso   1.00
N259   N     0.02320   0.55005   0.02589   0.00000  Uiso   1.00
O260   O     0.32385   0.55676   0.00387   0.00000  Uiso   1.00
O261   O     0.01460   0.56211   0.07548   0.00000  Uiso   1.00
N262   N     0.20586   0.62041   0.32200   0.00000  Uiso   1.00
O263   O     0.17879   0.59373   0.35737   0.00000  Uiso   1.00
O264   O     0.24897   0.62835   0.32203   0.00000  Uiso   1.00
O265   O     0.46179   0.56108   0.25000   0.00000  Uiso   1.00
O266   O     0.53823   0.56107   0.25000   0.00000  Uiso   1.00
C267   C     0.49948   0.57991   0.25099   0.00000  Uiso   1.00
O268   O     0.44280   0.50000   0.32681   0.00000  Uiso   1.00
O269   O     0.51924   0.49999   0.32681   0.00000  Uiso   1.00
C270   C     0.47302   0.49910   0.35250   0.00000  Uiso   1.00
Zn271  Zn    0.44896   0.50001   0.25000   0.00000  Uiso   1.00
Zn272  Zn    0.55104   0.49999   0.25000   0.00000  Uiso   1.00
O273   O     0.46177   0.43893   0.24999   0.00000  Uiso   1.00
O274   O     0.53821   0.43892   0.24999   0.00000  Uiso   1.00
O275   O     0.48076   0.50001   0.17319   0.00000  Uiso   1.00
O276   O     0.55720   0.50000   0.17319   0.00000  Uiso   1.00
C277   C     0.49989   0.41994   0.25133   0.00000  Uiso   1.00
C278   C     0.52716   0.50004   0.14767   0.00000  Uiso   1.00
C279   C     0.58502   0.44928   0.01446   0.00000  Uiso   1.00
H280   H     0.58247   0.42061   0.42182   0.00000  Uiso   1.00
H281   H     0.61273   0.42636   0.49565   0.00000  Uiso   1.00
C282   C     0.54533   0.49524   0.08889   0.00000  Uiso   1.00
C283   C     0.41278   0.52072   0.44076   0.00000  Uiso   1.00
C284   C     0.40119   0.52933   0.49607   0.00000  Uiso   1.00
C285   C     0.43482   0.51910   0.02121   0.00000  Uiso   1.00
C286   C     0.47902   0.49922   0.49207   0.00000  Uiso   1.00
C287   C     0.48592   0.48479   0.43967   0.00000  Uiso   1.00
C288   C     0.51586   0.49153   0.01419   0.00000  Uiso   1.00
C289   C     0.55200   0.46134   0.48987   0.00000  Uiso   1.00
C290   C     0.55492   0.44353   0.44105   0.00000  Uiso   1.00
C291   C     0.52313   0.45597   0.41566   0.00000  Uiso   1.00
C292   C     0.51842   0.51313   0.05923   0.00000  Uiso   1.00
C293   C     0.58085   0.46476   0.06497   0.00000  Uiso   1.00
C294   C     0.45564   0.49961   0.41212   0.00000  Uiso   1.00
H295   H     0.38927   0.53162   0.41955   0.00000  Uiso   1.00
H296   H     0.42582   0.52585   0.06384   0.00000  Uiso   1.00
H297   H     0.52712   0.44195   0.37754   0.00000  Uiso   1.00
C298   C     0.51991   0.64372   0.28681   0.00000  Uiso   1.00
C299   C     0.52143   0.35351   0.28569   0.00000  Uiso   1.00
C300   C     0.50012   0.37567   0.25294   0.00000  Uiso   1.00
C301   C     0.47712   0.35535   0.22242   0.00000  Uiso   1.00
H302   H     0.46061   0.37249   0.19742   0.00000  Uiso   1.00
C303   C     0.47600   0.64606   0.22318   0.00000  Uiso   1.00
H304   H     0.45898   0.63041   0.19847   0.00000  Uiso   1.00
C305   C     0.49800   0.62385   0.25436   0.00000  Uiso   1.00
C306   C     0.65208   0.47141   0.22095   0.00000  Uiso   1.00
H307   H     0.64134   0.44830   0.19814   0.00000  Uiso   1.00
C308   C     0.36675   0.47154   0.22074   0.00000  Uiso   1.00
H309   H     0.39245   0.44878   0.19730   0.00000  Uiso   1.00
N310   N     0.38093   0.50001   0.25001   0.00000  Uiso   1.00
C311   C     0.34773   0.52819   0.27972   0.00000  Uiso   1.00
H312   H     0.35819   0.55069   0.30357   0.00000  Uiso   1.00
C313   C     0.63311   0.52811   0.27977   0.00000  Uiso   1.00
H314   H     0.60720   0.55031   0.30391   0.00000  Uiso   1.00
N315   N     0.61906   0.49998   0.25000   0.00000  Uiso   1.00
N316   N     0.61231   0.44870   0.09165   0.00000  Uiso   1.00
O317   O     0.61814   0.40872   0.09512   0.00000  Uiso   1.00
O318   O     0.64271   0.47355   0.10128   0.00000  Uiso   1.00
N319   N     0.54060   0.37419   0.32145   0.00000  Uiso   1.00
O320   O     0.52195   0.36613   0.37352   0.00000  Uiso   1.00
O321   O     0.58361   0.39044   0.30173   0.00000  Uiso   1.00
N322   N     0.50134   0.55564   0.06882   0.00000  Uiso   1.00
O323   O     0.49205   0.57255   0.11602   0.00000  Uiso   1.00
O324   O     0.50380   0.57992   0.02756   0.00000  Uiso   1.00
N325   N     0.35654   0.55005   0.02589   0.00000  Uiso   1.00
O326   O     0.65718   0.55676   0.00387   0.00000  Uiso   1.00
O327   O     0.34793   0.56211   0.07548   0.00000  Uiso   1.00
N328   N     0.53919   0.62041   0.32200   0.00000  Uiso   1.00
O329   O     0.51212   0.59373   0.35737   0.00000  Uiso   1.00
O330   O     0.58231   0.62835   0.32203   0.00000  Uiso   1.00
O331   O     0.79512   0.56108   0.25000   0.00000  Uiso   1.00
O332   O     0.87157   0.56107   0.25000   0.00000  Uiso   1.00
C333   C     0.83282   0.57991   0.25099   0.00000  Uiso   1.00
O334   O     0.77613   0.50000   0.32681   0.00000  Uiso   1.00
O335   O     0.85258   0.49999   0.32681   0.00000  Uiso   1.00
C336   C     0.80636   0.49910   0.35250   0.00000  Uiso   1.00
Zn337  Zn    0.78229   0.50001   0.25000   0.00000  Uiso   1.00
Zn338  Zn    0.88438   0.49999   0.25000   0.00000  Uiso   1.00
O339   O     0.79510   0.43893   0.24999   0.00000  Uiso   1.00
O340   O     0.87154   0.43892   0.24999   0.00000  Uiso   1.00
O341   O     0.81409   0.50001   0.17319   0.00000  Uiso   1.00
O342   O     0.89053   0.50000   0.17319   0.00000  Uiso   1.00
C343   C     0.83322   0.41994   0.25133   0.00000  Uiso   1.00
C344   C     0.86049   0.50004   0.14767   0.00000  Uiso   1.00
C345   C     0.91835   0.44928   0.01446   0.00000  Uiso   1.00
H346   H     0.91580   0.42061   0.42182   0.00000  Uiso   1.00
H347   H     0.94606   0.42636   0.49565   0.00000  Uiso   1.00
C348   C     0.87866   0.49524   0.08889   0.00000  Uiso   1.00
C349   C     0.74611   0.52072   0.44076   0.00000  Uiso   1.00
C350   C     0.73452   0.52933   0.49607   0.00000  Uiso   1.00
C351   C     0.76816   0.51910   0.02121   0.00000  Uiso   1.00
C352   C     0.81236   0.49922   0.49207   0.00000  Uiso   1.00
C353   C     0.81925   0.48479   0.43967   0.00000  Uiso   1.00
C354   C     0.84919   0.49153   0.01419   0.00000  Uiso   1.00
C355   C     0.88533   0.46134   0.48987   0.00000  Uiso   1.00
C356   C     0.88825   0.44353   0.44105   0.00000  Uiso   1.00
C357   C     0.85646   0.45597   0.41566   0.00000  Uiso   1.00
C358   C     0.85176   0.51313   0.05923   0.00000  Uiso   1.00
C359   C     0.91419   0.46476   0.06497   0.00000  Uiso   1.00
C360   C     0.78897   0.49961   0.41212   0.00000  Uiso   1.00
H361   H     0.72261   0.53162   0.41955   0.00000  Uiso   1.00
H362   H     0.75915   0.52585   0.06384   0.00000  Uiso   1.00
H363   H     0.86045   0.44195   0.37754   0.00000  Uiso   1.00
C364   C     0.85324   0.64372   0.28681   0.00000  Uiso   1.00
C365   C     0.85477   0.35351   0.28569   0.00000  Uiso   1.00
C366   C     0.83346   0.37567   0.25294   0.00000  Uiso   1.00
C367   C     0.81045   0.35535   0.22242   0.00000  Uiso   1.00
H368   H     0.79395   0.37249   0.19742   0.00000  Uiso   1.00
C369   C     0.80933   0.64606   0.22318   0.00000  Uiso   1.00
H370   H     0.79232   0.63041   0.19847   0.00000  Uiso   1.00
C371   C     0.83133   0.62385   0.25436   0.00000  Uiso   1.00
C372   C     0.98542   0.47141   0.22095   0.00000  Uiso   1.00
H373   H     0.97468   0.44830   0.19814   0.00000  Uiso   1.00
C374   C     0.70008   0.47154   0.22074   0.00000  Uiso   1.00
H375   H     0.72578   0.44878   0.19730   0.00000  Uiso   1.00
N376   N     0.71426   0.50001   0.25001   0.00000  Uiso   1.00
C377   C     0.68106   0.52819   0.27972   0.00000  Uiso   1.00
H378   H     0.69152   0.55069   0.30357   0.00000  Uiso   1.00
C379   C     0.96644   0.52811   0.27977   0.00000  Uiso   1.00
H380   H     0.94054   0.55031   0.30391   0.00000  Uiso   1.00
N381   N     0.95239   0.49998   0.25000   0.00000  Uiso   1.00
N382   N     0.94565   0.44870   0.09165   0.00000  Uiso   1.00
O383   O     0.95147   0.40872   0.09512   0.00000  Uiso   1.00
O384   O     0.97604   0.47355   0.10128   0.00000  Uiso   1.00
N385   N     0.87394   0.37419   0.32145   0.00000  Uiso   1.00
O386   O     0.85528   0.36613   0.37352   0.00000  Uiso   1.00
O387   O     0.91695   0.39044   0.30173   0.00000  Uiso   1.00
N388   N     0.83467   0.55564   0.06882   0.00000  Uiso   1.00
O389   O     0.82538   0.57255   0.11602   0.00000  Uiso   1.00
O390   O     0.83713   0.57992   0.02756   0.00000  Uiso   1.00
N391   N     0.68987   0.55005   0.02589   0.00000  Uiso   1.00
O392   O     0.99051   0.55676   0.00387   0.00000  Uiso   1.00
O393   O     0.68127   0.56211   0.07548   0.00000  Uiso   1.00
N394   N     0.87253   0.62041   0.32200   0.00000  Uiso   1.00
O395   O     0.84546   0.59373   0.35737   0.00000  Uiso   1.00
O396   O     0.91564   0.62835   0.32203   0.00000  Uiso   1.00
O397   O     0.12846   0.89442   0.25000   0.00000  Uiso   1.00
O398   O     0.20490   0.89441   0.25000   0.00000  Uiso   1.00
C399   C     0.16615   0.91324   0.25099   0.00000  Uiso   1.00
O400   O     0.10947   0.83333   0.32681   0.00000  Uiso   1.00
O401   O     0.18591   0.83332   0.32681   0.00000  Uiso   1.00
C402   C     0.13969   0.83243   0.35250   0.00000  Uiso   1.00
Zn403  Zn    0.11562   0.83334   0.25000   0.00000  Uiso   1.00
Zn404  Zn    0.21771   0.83333   0.25000   0.00000  Uiso   1.00
O405   O     0.12843   0.77226   0.24999   0.00000  Uiso   1.00
O406   O     0.20488   0.77225   0.24999   0.00000  Uiso   1.00
O407   O     0.14742   0.83335   0.17319   0.00000  Uiso   1.00
O408   O     0.22387   0.83334   0.17319   0.00000  Uiso   1.00
C409   C     0.16655   0.75328   0.25133   0.00000  Uiso   1.00
C410   C     0.19383   0.83337   0.14767   0.00000  Uiso   1.00
C411   C     0.25169   0.78262   0.01446   0.00000  Uiso   1.00
H412   H     0.24913   0.75395   0.42182   0.00000  Uiso   1.00
H413   H     0.27939   0.75969   0.49565   0.00000  Uiso   1.00
C414   C     0.21200   0.82857   0.08889   0.00000  Uiso   1.00
C415   C     0.07944   0.85405   0.44076   0.00000  Uiso   1.00
C416   C     0.06786   0.86266   0.49607   0.00000  Uiso   1.00
C417   C     0.10149   0.85243   0.02121   0.00000  Uiso   1.00
C418   C     0.14569   0.83255   0.49207   0.00000  Uiso   1.00
C419   C     0.15259   0.81812   0.43967   0.00000  Uiso   1.00
C420   C     0.18253   0.82487   0.01419   0.00000  Uiso   1.00
C421   C     0.21867   0.79467   0.48987   0.00000  Uiso   1.00
C422   C     0.22158   0.77687   0.44105   0.00000  Uiso   1.00
C423   C     0.18979   0.78930   0.41566   0.00000  Uiso   1.00
C424   C     0.18509   0.84647   0.05923   0.00000  Uiso   1.00
C425   C     0.24752   0.79809   0.06497   0.00000  Uiso   1.00
C426   C     0.12231   0.83294   0.41212   0.00000  Uiso   1.00
H427   H     0.05594   0.86495   0.41955   0.00000  Uiso   1.00
H428   H     0.09248   0.85918   0.06384   0.00000  Uiso   1.00
H429   H     0.19379   0.77528   0.37754   0.00000  Uiso   1.00
C430   C     0.18658   0.97706   0.28681   0.00000  Uiso   1.00
C431   C     0.18810   0.68685   0.28569   0.00000  Uiso   1.00
C432   C     0.16679   0.70901   0.25294   0.00000  Uiso   1.00
C433   C     0.14378   0.68868   0.22242   0.00000  Uiso   1.00
H434   H     0.12728   0.70582   0.19742   0.00000  Uiso   1.00
C435   C     0.14266   0.97939   0.22318   0.00000  Uiso   1.00
H436   H     0.12565   0.96374   0.19847   0.00000  Uiso   1.00
C437   C     0.16467   0.95719   0.25436   0.00000  Uiso   1.00
C438   C     0.31875   0.80475   0.22095   0.00000  Uiso   1.00
H439   H     0.30801   0.78164   0.19814   0.00000  Uiso   1.00
C440   C     0.03342   0.80487   0.22074   0.00000  Uiso   1.00
H441   H     0.05911   0.78211   0.19730   0.00000  Uiso   1.00
N442   N     0.04760   0.83334   0.25001   0.00000  Uiso   1.00
C443   C     0.01440   0.86152   0.27972   0.00000  Uiso   1.00
H444   H     0.02485   0.88403   0.30357   0.00000  Uiso   1.00
C445   C     0.29978   0.86144   0.27977   0.00000  Uiso   1.00
H446   H     0.27387   0.88365   0.30391   0.00000  Uiso   1.00
N447   N     0.28573   0.83331   0.25000   0.00000  Uiso   1.00
N448   N     0.27898   0.78204   0.09165   0.00000  Uiso   1.00
O449   O     0.28480   0.74205   0.09512   0.00000  Uiso   1.00
O450   O     0.30938   0.80689   0.10128   0.00000  Uiso   1.00
N451   N     0.20727   0.70752   0.32145   0.00000  Uiso   1.00
O452   O     0.18861   0.69946   0.37352   0.00000  Uiso   1.00
O453   O     0.25028   0.72377   0.30173   0.00000  Uiso   1.00
N454   N     0.16801   0.88898   0.06882   0.00000  Uiso   1.00
O455   O     0.15871   0.90589   0.11602   0.00000  Uiso   1.00
O456   O     0.17047   0.91325   0.02756   0.00000  Uiso   1.00
N457   N     0.02320   0.88339   0.02589   0.00000  Uiso   1.00
O458   O     0.32385   0.89010   0.00387   0.00000  Uiso   1.00
O459   O     0.01460   0.89544   0.07548   0.00000  Uiso   1.00
N460   N     0.20586   0.95375   0.32200   0.00000  Uiso   1.00
O461   O     0.17879   0.92707   0.35737   0.00000  Uiso   1.00
O462   O     0.24897   0.96169   0.32203   0.00000  Uiso   1.00
O463   O     0.46179   0.89442   0.25000   0.00000  Uiso   1.00
O464   O     0.53823   0.89441   0.25000   0.00000  Uiso   1.00
C465   C     0.49948   0.91324   0.25099   0.00000  Uiso   1.00
O466   O     0.44280   0.83333   0.32681   0.00000  Uiso   1.00
O467   O     0.51924   0.83332   0.32681   0.00000  Uiso   1.00
C468   C     0.47302   0.83243   0.35250   0.00000  Uiso   1.00
Zn469  Zn    0.44896   0.83334   0.25000   0.00000  Uiso   1.00
Zn470  Zn    0.55104   0.83333   0.25000   0.00000  Uiso   1.00
O471   O     0.46177   0.77226   0.24999   0.00000  Uiso   1.00
O472   O     0.53821   0.77225   0.24999   0.00000  Uiso   1.00
O473   O     0.48076   0.83335   0.17319   0.00000  Uiso   1.00
O474   O     0.55720   0.83334   0.17319   0.00000  Uiso   1.00
C475   C     0.49989   0.75328   0.25133   0.00000  Uiso   1.00
C476   C     0.52716   0.83337   0.14767   0.00000  Uiso   1.00
C477   C     0.58502   0.78262   0.01446   0.00000  Uiso   1.00
H478   H     0.58247   0.75395   0.42182   0.00000  Uiso   1.00
H479   H     0.61273   0.75969   0.49565   0.00000  Uiso   1.00
C480   C     0.54533   0.82857   0.08889   0.00000  Uiso   1.00
C481   C     0.41278   0.85405   0.44076   0.00000  Uiso   1.00
C482   C     0.40119   0.86266   0.49607   0.00000  Uiso   1.00
C483   C     0.43482   0.85243   0.02121   0.00000  Uiso   1.00
C484   C     0.47902   0.83255   0.49207   0.00000  Uiso   1.00
C485   C     0.48592   0.81812   0.43967   0.00000  Uiso   1.00
C486   C     0.51586   0.82487   0.01419   0.00000  Uiso   1.00
C487   C     0.55200   0.79467   0.48987   0.00000  Uiso   1.00
C488   C     0.55492   0.77687   0.44105   0.00000  Uiso   1.00
C489   C     0.52313   0.78930   0.41566   0.00000  Uiso   1.00
C490   C     0.51842   0.84647   0.05923   0.00000  Uiso   1.00
C491   C     0.58085   0.79809   0.06497   0.00000  Uiso   1.00
C492   C     0.45564   0.83294   0.41212   0.00000  Uiso   1.00
H493   H     0.38927   0.86495   0.41955   0.00000  Uiso   1.00
H494   H     0.42582   0.85918   0.06384   0.00000  Uiso   1.00
H495   H     0.52712   0.77528   0.37754   0.00000  Uiso   1.00
C496   C     0.51991   0.97706   0.28681   0.00000  Uiso   1.00
C497   C     0.52143   0.68685   0.28569   0.00000  Uiso   1.00
C498   C     0.50012   0.70901   0.25294   0.00000  Uiso   1.00
C499   C     0.47712   0.68868   0.22242   0.00000  Uiso   1.00
H500   H     0.46061   0.70582   0.19742   0.00000  Uiso   1.00
C501   C     0.47600   0.97939   0.22318   0.00000  Uiso   1.00
H502   H     0.45898   0.96374   0.19847   0.00000  Uiso   1.00
C503   C     0.49800   0.95719   0.25436   0.00000  Uiso   1.00
C504   C     0.65208   0.80475   0.22095   0.00000  Uiso   1.00
H505   H     0.64134   0.78164   0.19814   0.00000  Uiso   1.00
C506   C     0.36675   0.80487   0.22074   0.00000  Uiso   1.00
H507   H     0.39245   0.78211   0.19730   0.00000  Uiso   1.00
N508   N     0.38093   0.83334   0.25001   0.00000  Uiso   1.00
C509   C     0.34773   0.86152   0.27972   0.00000  Uiso   1.00
H510   H     0.35819   0.88403   0.30357   0.00000  Uiso   1.00
C511   C     0.63311   0.86144   0.27977   0.00000  Uiso   1.00
H512   H     0.60720   0.88365   0.30391   0.00000  Uiso   1.00
N513   N     0.61906   0.83331   0.25000   0.00000  Uiso   1.00
N514   N     0.61231   0.78204   0.09165   0.00000  Uiso   1.00
O515   O     0.61814   0.74205   0.09512   0.00000  Uiso   1.00
O516   O     0.64271   0.80689   0.10128   0.00000  Uiso   1.00
N517   N     0.54060   0.70752   0.32145   0.00000  Uiso   1.00
O518   O     0.52195   0.69946   0.37352   0.00000  Uiso   1.00
O519   O     0.58361   0.72377   0.30173   0.00000  Uiso   1.00
N520   N     0.50134   0.88898   0.06882   0.00000  Uiso   1.00
O521   O     0.49205   0.90589   0.11602   0.00000  Uiso   1.00
O522   O     0.50380   0.91325   0.02756   0.00000  Uiso   1.00
N523   N     0.35654   0.88339   0.02589   0.00000  Uiso   1.00
O524   O     0.65718   0.89010   0.00387   0.00000  Uiso   1.00
O525   O     0.34793   0.89544   0.07548   0.00000  Uiso   1.00
N526   N     0.53919   0.95375   0.32200   0.00000  Uiso   1.00
O527   O     0.51212   0.92707   0.35737   0.00000  Uiso   1.00
O528   O     0.58231   0.96169   0.32203   0.00000  Uiso   1.00
O529   O     0.79512   0.89442   0.25000   0.00000  Uiso   1.00
O530   O     0.87157   0.89441   0.25000   0.00000  Uiso   1.00
C531   C     0.83282   0.91324   0.25099   0.00000  Uiso   1.00
O532   O     0.77613   0.83333   0.32681   0.00000  Uiso   1.00
O533   O     0.85258   0.83332   0.32681   0.00000  Uiso   1.00
C534   C     0.80636   0.83243   0.35250   0.00000  Uiso   1.00
Zn535  Zn    0.78229   0.83334   0.25000   0.00000  Uiso   1.00
Zn536  Zn    0.88438   0.83333   0.25000   0.00000  Uiso   1.00
O537   O     0.79510   0.77226   0.24999   0.00000  Uiso   1.00
O538   O     0.87154   0.77225   0.24999   0.00000  Uiso   1.00
O539   O     0.81409   0.83335   0.17319   0.00000  Uiso   1.00
O540   O     0.89053   0.83334   0.17319   0.00000  Uiso   1.00
C541   C     0.83322   0.75328   0.25133   0.00000  Uiso   1.00
C542   C     0.86049   0.83337   0.14767   0.00000  Uiso   1.00
C543   C     0.91835   0.78262   0.01446   0.00000  Uiso   1.00
H544   H     0.91580   0.75395   0.42182   0.00000  Uiso   1.00
H545   H     0.94606   0.75969   0.49565   0.00000  Uiso   1.00
C546   C     0.87866   0.82857   0.08889   0.00000  Uiso   1.00
C547   C     0.74611   0.85405   0.44076   0.00000  Uiso   1.00
C548   C     0.73452   0.86266   0.49607   0.00000  Uiso   1.00
C549   C     0.76816   0.85243   0.02121   0.00000  Uiso   1.00
C550   C     0.81236   0.83255   0.49207   0.00000  Uiso   1.00
C551   C     0.81925   0.81812   0.43967   0.00000  Uiso   1.00
C552   C     0.84919   0.82487   0.01419   0.00000  Uiso   1.00
C553   C     0.88533   0.79467   0.48987   0.00000  Uiso   1.00
C554   C     0.88825   0.77687   0.44105   0.00000  Uiso   1.00
C555   C     0.85646   0.78930   0.41566   0.00000  Uiso   1.00
C556   C     0.85176   0.84647   0.05923   0.00000  Uiso   1.00
C557   C     0.91419   0.79809   0.06497   0.00000  Uiso   1.00
C558   C     0.78897   0.83294   0.41212   0.00000  Uiso   1.00
H559   H     0.72261   0.86495   0.41955   0.00000  Uiso   1.00
H560   H     0.75915   0.85918   0.06384   0.00000  Uiso   1.00
H561   H     0.86045   0.77528   0.37754   0.00000  Uiso   1.00
C562   C     0.85324   0.97706   0.28681   0.00000  Uiso   1.00
C563   C     0.85477   0.68685   0.28569   0.00000  Uiso   1.00
C564   C     0.83346   0.70901   0.25294   0.00000  Uiso   1.00
C565   C     0.81045   0.68868   0.22242   0.00000  Uiso   1.00
H566   H     0.79395   0.70582   0.19742   0.00000  Uiso   1.00
C567   C     0.80933   0.97939   0.22318   0.00000  Uiso   1.00
H568   H     0.79232   0.96374   0.19847   0.00000  Uiso   1.00
C569   C     0.83133   0.95719   0.25436   0.00000  Uiso   1.00
C570   C     0.98542   0.80475   0.22095   0.00000  Uiso   1.00
H571   H     0.97468   0.78164   0.19814   0.00000  Uiso   1.00
C572   C     0.70008   0.80487   0.22074   0.00000  Uiso   1.00
H573   H     0.72578   0.78211   0.19730   0.00000  Uiso   1.00
N574   N     0.71426   0.83334   0.25001   0.00000  Uiso   1.00
C575   C     0.68106   0.86152   0.27972   0.00000  Uiso   1.00
H576   H     0.69152   0.88403   0.30357   0.00000  Uiso   1.00
C577   C     0.96644   0.86144   0.27977   0.00000  Uiso   1.00
H578   H     0.94054   0.88365   0.30391   0.00000  Uiso   1.00
N579   N     0.95239   0.83331   0.25000   0.00000  Uiso   1.00
N580   N     0.94565   0.78204   0.09165   0.00000  Uiso   1.00
O581   O     0.95147   0.74205   0.09512   0.00000  Uiso   1.00
O582   O     0.97604   0.80689   0.10128   0.00000  Uiso   1.00
N583   N     0.87394   0.70752   0.32145   0.00000  Uiso   1.00
O584   O     0.85528   0.69946   0.37352   0.00000  Uiso   1.00
O585   O     0.91695   0.72377   0.30173   0.00000  Uiso   1.00
N586   N     0.83467   0.88898   0.06882   0.00000  Uiso   1.00
O587   O     0.82538   0.90589   0.11602   0.00000  Uiso   1.00
O588   O     0.83713   0.91325   0.02756   0.00000  Uiso   1.00
N589   N     0.68987   0.88339   0.02589   0.00000  Uiso   1.00
O590   O     0.99051   0.89010   0.00387   0.00000  Uiso   1.00
O591   O     0.68127   0.89544   0.07548   0.00000  Uiso   1.00
N592   N     0.87253   0.95375   0.32200   0.00000  Uiso   1.00
O593   O     0.84546   0.92707   0.35737   0.00000  Uiso   1.00
O594   O     0.91564   0.96169   0.32203   0.00000  Uiso   1.00
O595   O     0.12846   0.22775   0.75000   0.00000  Uiso   1.00
O596   O     0.20490   0.22774   0.75000   0.00000  Uiso   1.00
C597   C     0.16615   0.24658   0.75099   0.00000  Uiso   1.00
O598   O     0.10947   0.16666   0.82681   0.00000  Uiso   1.00
O599   O     0.18591   0.16665   0.82681   0.00000  Uiso   1.00
C600   C     0.13969   0.16577   0.85250   0.00000  Uiso   1.00
Zn601  Zn    0.11562   0.16667   0.75000   0.00000  Uiso   1.00
Zn602  Zn    0.21771   0.16666   0.75000   0.00000  Uiso   1.00
O603   O     0.12843   0.10559   0.74999   0.00000  Uiso   1.00
O604   O     0.20488   0.10558   0.74999   0.00000  Uiso   1.00
O605   O     0.14742   0.16668   0.67319   0.00000  Uiso   1.00
O606   O     0.22387   0.16667   0.67319   0.00000  Uiso   1.00
C607   C     0.16655   0.08661   0.75133   0.00000  Uiso   1.00
C608   C     0.19383   0.16671   0.64767   0.00000  Uiso   1.00
C609   C     0.25169   0.11595   0.51446   0.00000  Uiso   1.00
H610   H     0.24913   0.08728   0.92182   0.00000  Uiso   1.00
H611   H     0.27939   0.09303   0.99565   0.00000  Uiso   1.00
C612   C     0.21200   0.16191   0.58889   0.00000  Uiso   1.00
C613   C     0.07944   0.18738   0.94076   0.00000  Uiso   1.00
C614   C     0.06786   0.19600   0.99607   0.00000  Uiso   1.00
C615   C     0.10149   0.18577   0.52121   0.00000  Uiso   1.00
C616   C     0.14569   0.16589   0.99207   0.00000  Uiso   1.00
C617   C     0.15259   0.15145   0.93967   0.00000  Uiso   1.00
C618   C     0.18253   0.15820   0.51419   0.00000  Uiso   1.00
C619   C     0.21867   0.12801   0.98987   0.00000  Uiso   1.00
C620   C     0.22158   0.11020   0.94105   0.00000  Uiso   1.00
C621   C     0.18979   0.12264   0.91566   0.00000  Uiso   1.00
C622   C     0.18509   0.17980   0.55923   0.00000  Uiso   1.00
C623   C     0.24752   0.13143   0.56497   0.00000  Uiso   1.00
C624   C     0.12231   0.16628   0.91212   0.00000  Uiso   1.00
H625   H     0.05594   0.19829   0.91955   0.00000  Uiso   1.00
H626   H     0.09248   0.19251   0.56384   0.00000  Uiso   1.00
H627   H     0.19379   0.10861   0.87754   0.00000  Uiso   1.00
C628   C     0.18658   0.31039   0.78681   0.00000  Uiso   1.00
C629   C     0.18810   0.02018   0.78569   0.00000  Uiso   1.00
C630   C     0.16679   0.04234   0.75294   0.00000  Uiso   1.00
C631   C     0.14378   0.02201   0.72242   0.00000  Uiso   1.00
H632   H     0.12728   0.03916   0.69742   0.00000  Uiso   1.00
C633   C     0.14266   0.31273   0.72318   0.00000  Uiso   1.00
H634   H     0.12565   0.29707   0.69847   0.00000  Uiso   1.00
C635   C     0.16467   0.29052   0.75436   0.00000  Uiso   1.00
C636   C     0.31875   0.13808   0.72095   0.00000  Uiso   1.00
H637   H     0.30801   0.11497   0.69814   0.00000  Uiso   1.00
C638   C     0.03342   0.13821   0.72074   0.00000  Uiso   1.00
H639   H     0.05911   0.11544   0.69730   0.00000  Uiso   1.00
N640   N     0.04760   0.16668   0.75001   0.00000  Uiso   1.00
C641   C     0.01440   0.19485   0.77972   0.00000  Uiso   1.00
H642   H     0.02485   0.21736   0.80357   0.00000  Uiso   1.00
C643   C     0.29978   0.19477   0.77977   0.00000  Uiso   1.00
H644   H     0.27387   0.21698   0.80391   0.00000  Uiso   1.00
N645   N     0.28573   0.16665   0.75000   0.00000  Uiso   1.00
N646   N     0.27898   0.11537   0.59165   0.00000  Uiso   1.00
O647   O     0.28480   0.07538   0.59512   0.00000  Uiso   1.00
O648   O     0.30938   0.14022   0.60128   0.00000  Uiso   1.00
N649   N     0.20727   0.04086   0.82145   0.00000  Uiso   1.00
O650   O     0.18861   0.03280   0.87352   0.00000  Uiso   1.00
O651   O     0.25028   0.05710   0.80173   0.00000  Uiso   1.00
N652   N     0.16801   0.22231   0.56882   0.00000  Uiso   1.00
O653   O     0.15871   0.23922   0.61602   0.00000  Uiso   1.00
O654   O     0.17047   0.24659   0.52756   0.00000  Uiso   1.00
N655   N     0.02320   0.21672   0.52589   0.00000  Uiso   1.00
O656   O     0.32385   0.22343   0.50387   0.00000  Uiso   1.00
O657   O     0.01460   0.22877   0.57548   0.00000  Uiso   1.00
N658   N     0.20586   0.28708   0.82200   0.00000  Uiso   1.00
O659   O     0.17879   0.26040   0.85737   0.00000  Uiso   1.00
O660   O     0.24897   0.29502   0.82203   0.00000  Uiso   1.00
O661   O     0.46179   0.22775   0.75000   0.00000  Uiso   1.00
O662   O     0.53823   0.22774   0.75000   0.00000  Uiso   1.00
C663   C     0.49948   0.24658   0.75099   0.00000  Uiso   1.00
O664   O     0.44280   0.16666   0.82681   0.00000  Uiso   1.00
O665   O     0.51924   0.16665   0.82681   0.00000  Uiso   1.00
C666   C     0.47302   0.16577   0.85250   0.00000  Uiso   1.00
Zn667  Zn    0.44896   0.16667   0.75000   0.00000  Uiso   1.00
Zn668  Zn    0.55104   0.16666   0.75000   0.00000  Uiso   1.00
O669   O     0.46177   0.10559   0.74999   0.00000  Uiso   1.00
O670   O     0.53821   0.10558   0.74999   0.00000  Uiso   1.00
O671   O     0.48076   0.16668   0.67319   0.00000  Uiso   1.00
O672   O     0.55720   0.16667   0.67319   0.00000  Uiso   1.00
C673   C     0.49989   0.08661   0.75133   0.00000  Uiso   1.00
C674   C     0.52716   0.16671   0.64767   0.00000  Uiso   1.00
C675   C     0.58502   0.11595   0.51446   0.00000  Uiso   1.00
H676   H     0.58247   0.08728   0.92182   0.00000  Uiso   1.00
H677   H     0.61273   0.09303   0.99565   0.00000  Uiso   1.00
C678   C     0.54533   0.16191   0.58889   0.00000  Uiso   1.00
C679   C     0.41278   0.18738   0.94076   0.00000  Uiso   1.00
C680   C     0.40119   0.19600   0.99607   0.00000  Uiso   1.00
C681   C     0.43482   0.18577   0.52121   0.00000  Uiso   1.00
C682   C     0.47902   0.16589   0.99207   0.00000  Uiso   1.00
C683   C     0.48592   0.15145   0.93967   0.00000  Uiso   1.00
C684   C     0.51586   0.15820   0.51419   0.00000  Uiso   1.00
C685   C     0.55200   0.12801   0.98987   0.00000  Uiso   1.00
C686   C     0.55492   0.11020   0.94105   0.00000  Uiso   1.00
C687   C     0.52313   0.12264   0.91566   0.00000  Uiso   1.00
C688   C     0.51842   0.17980   0.55923   0.00000  Uiso   1.00
C689   C     0.58085   0.13143   0.56497   0.00000  Uiso   1.00
C690   C     0.45564   0.16628   0.91212   0.00000  Uiso   1.00
H691   H     0.38927   0.19829   0.91955   0.00000  Uiso   1.00
H692   H     0.42582   0.19251   0.56384   0.00000  Uiso   1.00
H693   H     0.52712   0.10861   0.87754   0.00000  Uiso   1.00
C694   C     0.51991   0.31039   0.78681   0.00000  Uiso   1.00
C695   C     0.52143   0.02018   0.78569   0.00000  Uiso   1.00
C696   C     0.50012   0.04234   0.75294   0.00000  Uiso   1.00
C697   C     0.47712   0.02201   0.72242   0.00000  Uiso   1.00
H698   H     0.46061   0.03916   0.69742   0.00000  Uiso   1.00
C699   C     0.47600   0.31273   0.72318   0.00000  Uiso   1.00
H700   H     0.45898   0.29707   0.69847   0.00000  Uiso   1.00
C701   C     0.49800   0.29052   0.75436   0.00000  Uiso   1.00
C702   C     0.65208   0.13808   0.72095   0.00000  Uiso   1.00
H703   H     0.64134   0.11497   0.69814   0.00000  Uiso   1.00
C704   C     0.36675   0.13821   0.72074   0.00000  Uiso   1.00
H705   H     0.39245   0.11544   0.69730   0.00000  Uiso   1.00
N706   N     0.38093   0.16668   0.75001   0.00000  Uiso   1.00
C707   C     0.34773   0.19485   0.77972   0.00000  Uiso   1.00
H708   H     0.35819   0.21736   0.80357   0.00000  Uiso   1.00
C709   C     0.63311   0.19477   0.77977   0.00000  Uiso   1.00
H710   H     0.60720   0.21698   0.80391   0.00000  Uiso   1.00
N711   N     0.61906   0.16665   0.75000   0.00000  Uiso   1.00
N712   N     0.61231   0.11537   0.59165   0.00000  Uiso   1.00
O713   O     0.61814   0.07538   0.59512   0.00000  Uiso   1.00
O714   O     0.64271   0.14022   0.60128   0.00000  Uiso   1.00
N715   N     0.54060   0.04086   0.82145   0.00000  Uiso   1.00
O716   O     0.52195   0.03280   0.87352   0.00000  Uiso   1.00
O717   O     0.58361   0.05710   0.80173   0.00000  Uiso   1.00
N718   N     0.50134   0.22231   0.56882   0.00000  Uiso   1.00
O719   O     0.49205   0.23922   0.61602   0.00000  Uiso   1.00
O720   O     0.50380   0.24659   0.52756   0.00000  Uiso   1.00
N721   N     0.35654   0.21672   0.52589   0.00000  Uiso   1.00
O722   O     0.65718   0.22343   0.50387   0.00000  Uiso   1.00
O723   O     0.34793   0.22877   0.57548   0.00000  Uiso   1.00
N724   N     0.53919   0.28708   0.82200   0.00000  Uiso   1.00
O725   O     0.51212   0.26040   0.85737   0.00000  Uiso   1.00
O726   O     0.58231   0.29502   0.82203   0.00000  Uiso   1.00
O727   O     0.79512   0.22775   0.75000   0.00000  Uiso   1.00
O728   O     0.87157   0.22774   0.75000   0.00000  Uiso   1.00
C729   C     0.83282   0.24658   0.75099   0.00000  Uiso   1.00
O730   O     0.77613   0.16666   0.82681   0.00000  Uiso   1.00
O731   O     0.85258   0.16665   0.82681   0.00000  Uiso   1.00
C732   C     0.80636   0.16577   0.85250   0.00000  Uiso   1.00
Zn733  Zn    0.78229   0.16667   0.75000   0.00000  Uiso   1.00
Zn734  Zn    0.88438   0.16666   0.75000   0.00000  Uiso   1.00
O735   O     0.79510   0.10559   0.74999   0.00000  Uiso   1.00
O736   O     0.87154   0.10558   0.74999   0.00000  Uiso   1.00
O737   O     0.81409   0.16668   0.67319   0.00000  Uiso   1.00
O738   O     0.89053   0.16667   0.67319   0.00000  Uiso   1.00
C739   C     0.83322   0.08661   0.75133   0.00000  Uiso   1.00
C740   C     0.86049   0.16671   0.64767   0.00000  Uiso   1.00
C741   C     0.91835   0.11595   0.51446   0.00000  Uiso   1.00
H742   H     0.91580   0.08728   0.92182   0.00000  Uiso   1.00
H743   H     0.94606   0.09303   0.99565   0.00000  Uiso   1.00
C744   C     0.87866   0.16191   0.58889   0.00000  Uiso   1.00
C745   C     0.74611   0.18738   0.94076   0.00000  Uiso   1.00
C746   C     0.73452   0.19600   0.99607   0.00000  Uiso   1.00
C747   C     0.76816   0.18577   0.52121   0.00000  Uiso   1.00
C748   C     0.81236   0.16589   0.99207   0.00000  Uiso   1.00
C749   C     0.81925   0.15145   0.93967   0.00000  Uiso   1.00
C750   C     0.84919   0.15820   0.51419   0.00000  Uiso   1.00
C751   C     0.88533   0.12801   0.98987   0.00000  Uiso   1.00
C752   C     0.88825   0.11020   0.94105   0.00000  Uiso   1.00
C753   C     0.85646   0.12264   0.91566   0.00000  Uiso   1.00
C754   C     0.85176   0.17980   0.55923   0.00000  Uiso   1.00
C755   C     0.91419   0.13143   0.56497   0.00000  Uiso   1.00
C756   C     0.78897   0.16628   0.91212   0.00000  Uiso   1.00
H757   H     0.72261   0.19829   0.91955   0.00000  Uiso   1.00
H758   H     0.75915   0.19251   0.56384   0.00000  Uiso   1.00
H759   H     0.86045   0.10861   0.87754   0.00000  Uiso   1.00
C760   C     0.85324   0.31039   0.78681   0.00000  Uiso   1.00
C761   C     0.85477   0.02018   0.78569   0.00000  Uiso   1.00
C762   C     0.83346   0.04234   0.75294   0.00000  Uiso   1.00
C763   C     0.81045   0.02201   0.72242   0.00000  Uiso   1.00
H764   H     0.79395   0.03916   0.69742   0.00000  Uiso   1.00
C765   C     0.80933   0.31273   0.72318   0.00000  Uiso   1.00
H766   H     0.79232   0.29707   0.69847   0.00000  Uiso   1.00
C767   C     0.83133   0.29052   0.75436   0.00000  Uiso   1.00
C768   C     0.98542   0.13808   0.72095   0.00000  Uiso   1.00
H769   H     0.97468   0.11497   0.69814   0.00000  Uiso   1.00
C770   C     0.70008   0.13821   0.72074   0.00000  Uiso   1.00
H771   H     0.72578   0.11544   0.69730   0.00000  Uiso   1.00
N772   N     0.71426   0.16668   0.75001   0.00000  Uiso   1.00
C773   C     0.68106   0.19485   0.77972   0.00000  Uiso   1.00
H774   H     0.69152   0.21736   0.80357   0.00000  Uiso   1.00
C775   C     0.96644   0.19477   0.77977   0.00000  Uiso   1.00
H776   H     0.94054   0.21698   0.80391   0.00000  Uiso   1.00
N777   N     0.95239   0.16665   0.75000   0.00000  Uiso   1.00
N778   N     0.94565   0.11537   0.59165   0.00000  Uiso   1.00
O779   O     0.95147   0.07538   0.59512   0.00000  Uiso   1.00
O780   O     0.97604   0.14022   0.60128   0.00000  Uiso   1.00
N781   N     0.87394   0.04086   0.82145   0.00000  Uiso   1.00
O782   O     0.85528   0.03280   0.87352   0.00000  Uiso   1.00
O783   O     0.91695   0.05710   0.80173   0.00000  Uiso   1.00
N784   N     0.83467   0.22231   0.56882   0.00000  Uiso   1.00
O785   O     0.82538   0.23922   0.61602   0.00000  Uiso   1.00
O786   O     0.83713   0.24659   0.52756   0.00000  Uiso   1.00
N787   N     0.68987   0.21672   0.52589   0.00000  Uiso   1.00
O788   O     0.99051   0.22343   0.50387   0.00000  Uiso   1.00
O789   O     0.68127   0.22877   0.57548   0.00000  Uiso   1.00
N790   N     0.87253   0.28708   0.82200   0.00000  Uiso   1.00
O791   O     0.84546   0.26040   0.85737   0.00000  Uiso   1.00
O792   O     0.91564   0.29502   0.82203   0.00000  Uiso   1.00
O793   O     0.12846   0.56108   0.75000   0.00000  Uiso   1.00
O794   O     0.20490   0.56107   0.75000   0.00000  Uiso   1.00
C795   C     0.16615   0.57991   0.75099   0.00000  Uiso   1.00
O796   O     0.10947   0.50000   0.82681   0.00000  Uiso   1.00
O797   O     0.18591   0.49999   0.82681   0.00000  Uiso   1.00
C798   C     0.13969   0.49910   0.85250   0.00000  Uiso   1.00
Zn799  Zn    0.11562   0.50001   0.75000   0.00000  Uiso   1.00
Zn800  Zn    0.21771   0.49999   0.75000   0.00000  Uiso   1.00
O801   O     0.12843   0.43893   0.74999   0.00000  Uiso   1.00
O802   O     0.20488   0.43892   0.74999   0.00000  Uiso   1.00
O803   O     0.14742   0.50001   0.67319   0.00000  Uiso   1.00
O804   O     0.22387   0.50000   0.67319   0.00000  Uiso   1.00
C805   C     0.16655   0.41994   0.75133   0.00000  Uiso   1.00
C806   C     0.19383   0.50004   0.64767   0.00000  Uiso   1.00
C807   C     0.25169   0.44928   0.51446   0.00000  Uiso   1.00
H808   H     0.24913   0.42061   0.92182   0.00000  Uiso   1.00
H809   H     0.27939   0.42636   0.99565   0.00000  Uiso   1.00
C810   C     0.21200   0.49524   0.58889   0.00000  Uiso   1.00
C811   C     0.07944   0.52072   0.94076   0.00000  Uiso   1.00
C812   C     0.06786   0.52933   0.99607   0.00000  Uiso   1.00
C813   C     0.10149   0.51910   0.52121   0.00000  Uiso   1.00
C814   C     0.14569   0.49922   0.99207   0.00000  Uiso   1.00
C815   C     0.15259   0.48479   0.93967   0.00000  Uiso   1.00
C816   C     0.18253   0.49153   0.51419   0.00000  Uiso   1.00
C817   C     0.21867   0.46134   0.98987   0.00000  Uiso   1.00
C818   C     0.22158   0.44353   0.94105   0.00000  Uiso   1.00
C819   C     0.18979   0.45597   0.91566   0.00000  Uiso   1.00
C820   C     0.18509   0.51313   0.55923   0.00000  Uiso   1.00
C821   C     0.24752   0.46476   0.56497   0.00000  Uiso   1.00
C822   C     0.12231   0.49961   0.91212   0.00000  Uiso   1.00
H823   H     0.05594   0.53162   0.91955   0.00000  Uiso   1.00
H824   H     0.09248   0.52585   0.56384   0.00000  Uiso   1.00
H825   H     0.19379   0.44195   0.87754   0.00000  Uiso   1.00
C826   C     0.18658   0.64372   0.78681   0.00000  Uiso   1.00
C827   C     0.18810   0.35351   0.78569   0.00000  Uiso   1.00
C828   C     0.16679   0.37567   0.75294   0.00000  Uiso   1.00
C829   C     0.14378   0.35535   0.72242   0.00000  Uiso   1.00
H830   H     0.12728   0.37249   0.69742   0.00000  Uiso   1.00
C831   C     0.14266   0.64606   0.72318   0.00000  Uiso   1.00
H832   H     0.12565   0.63041   0.69847   0.00000  Uiso   1.00
C833   C     0.16467   0.62385   0.75436   0.00000  Uiso   1.00
C834   C     0.31875   0.47141   0.72095   0.00000  Uiso   1.00
H835   H     0.30801   0.44830   0.69814   0.00000  Uiso   1.00
C836   C     0.03342   0.47154   0.72074   0.00000  Uiso   1.00
H837   H     0.05911   0.44878   0.69730   0.00000  Uiso   1.00
N838   N     0.04760   0.50001   0.75001   0.00000  Uiso   1.00
C839   C     0.01440   0.52819   0.77972   0.00000  Uiso   1.00
H840   H     0.02485   0.55069   0.80357   0.00000  Uiso   1.00
C841   C     0.29978   0.52811   0.77977   0.00000  Uiso   1.00
H842   H     0.27387   0.55031   0.80391   0.00000  Uiso   1.00
N843   N     0.28573   0.49998   0.75000   0.00000  Uiso   1.00
N844   N     0.27898   0.44870   0.59165   0.00000  Uiso   1.00
O845   O     0.28480   0.40872   0.59512   0.00000  Uiso   1.00
O846   O     0.30938   0.47355   0.60128   0.00000  Uiso   1.00
N847   N     0.20727   0.37419   0.82145   0.00000  Uiso   1.00
O848   O     0.18861   0.36613   0.87352   0.00000  Uiso   1.00
O849   O     0.25028   0.39044   0.80173   0.00000  Uiso   1.00
N850   N     0.16801   0.55564   0.56882   0.00000  Uiso   1.00
O851   O     0.15871   0.57255   0.61602   0.00000  Uiso   1.00
O852   O     0.17047   0.57992   0.52756   0.00000  Uiso   1.00
N853   N     0.02320   0.55005   0.52589   0.00000  Uiso   1.00
O854   O     0.32385   0.55676   0.50387   0.00000  Uiso   1.00
O855   O     0.01460   0.56211   0.57548   0.00000  Uiso   1.00
N856   N     0.20586   0.62041   0.82200   0.00000  Uiso   1.00
O857   O     0.17879   0.59373   0.85737   0.00000  Uiso   1.00
O858   O     0.24897   0.62835   0.82203   0.00000  Uiso   1.00
O859   O     0.46179   0.56108   0.75000   0.00000  Uiso   1.00
O860   O     0.53823   0.56107   0.75000   0.00000  Uiso   1.00
C861   C     0.49948   0.57991   0.75099   0.00000  Uiso   1.00
O862   O     0.44280   0.50000   0.82681   0.00000  Uiso   1.00
O863   O     0.51924   0.49999   0.82681   0.00000  Uiso   1.00
C864   C     0.47302   0.49910   0.85250   0.00000  Uiso   1.00
Zn865  Zn    0.44896   0.50001   0.75000   0.00000  Uiso   1.00
Zn866  Zn    0.55104   0.49999   0.75000   0.00000  Uiso   1.00
O867   O     0.46177   0.43893   0.74999   0.00000  Uiso   1.00
O868   O     0.53821   0.43892   0.74999   0.00000  Uiso   1.00
O869   O     0.48076   0.50001   0.67319   0.00000  Uiso   1.00
O870   O     0.55720   0.50000   0.67319   0.00000  Uiso   1.00
C871   C     0.49989   0.41994   0.75133   0.00000  Uiso   1.00
C872   C     0.52716   0.50004   0.64767   0.00000  Uiso   1.00
C873   C     0.58502   0.44928   0.51446   0.00000  Uiso   1.00
H874   H     0.58247   0.42061   0.92182   0.00000  Uiso   1.00
H875   H     0.61273   0.42636   0.99565   0.00000  Uiso   1.00
C876   C     0.54533   0.49524   0.58889   0.00000  Uiso   1.00
C877   C     0.41278   0.52072   0.94076   0.00000  Uiso   1.00
C878   C     0.40119   0.52933   0.99607   0.00000  Uiso   1.00
C879   C     0.43482   0.51910   0.52121   0.00000  Uiso   1.00
C880   C     0.47902   0.49922   0.99207   0.00000  Uiso   1.00
C881   C     0.48592   0.48479   0.93967   0.00000  Uiso   1.00
C882   C     0.51586   0.49153   0.51419   0.00000  Uiso   1.00
C883   C     0.55200   0.46134   0.98987   0.00000  Uiso   1.00
C884   C     0.55492   0.44353   0.94105   0.00000  Uiso   1.00
C885   C     0.52313   0.45597   0.91566   0.00000  Uiso   1.00
C886   C     0.51842   0.51313   0.55923   0.00000  Uiso   1.00
C887   C     0.58085   0.46476   0.56497   0.00000  Uiso   1.00
C888   C     0.45564   0.49961   0.91212   0.00000  Uiso   1.00
H889   H     0.38927   0.53162   0.91955   0.00000  Uiso   1.00
H890   H     0.42582   0.52585   0.56384   0.00000  Uiso   1.00
H891   H     0.52712   0.44195   0.87754   0.00000  Uiso   1.00
C892   C     0.51991   0.64372   0.78681   0.00000  Uiso   1.00
C893   C     0.52143   0.35351   0.78569   0.00000  Uiso   1.00
C894   C     0.50012   0.37567   0.75294   0.00000  Uiso   1.00
C895   C     0.47712   0.35535   0.72242   0.00000  Uiso   1.00
H896   H     0.46061   0.37249   0.69742   0.00000  Uiso   1.00
C897   C     0.47600   0.64606   0.72318   0.00000  Uiso   1.00
H898   H     0.45898   0.63041   0.69847   0.00000  Uiso   1.00
C899   C     0.49800   0.62385   0.75436   0.00000  Uiso   1.00
C900   C     0.65208   0.47141   0.72095   0.00000  Uiso   1.00
H901   H     0.64134   0.44830   0.69814   0.00000  Uiso   1.00
C902   C     0.36675   0.47154   0.72074   0.00000  Uiso   1.00
H903   H     0.39245   0.44878   0.69730   0.00000  Uiso   1.00
N904   N     0.38093   0.50001   0.75001   0.00000  Uiso   1.00
C905   C     0.34773   0.52819   0.77972   0.00000  Uiso   1.00
H906   H     0.35819   0.55069   0.80357   0.00000  Uiso   1.00
C907   C     0.63311   0.52811   0.77977   0.00000  Uiso   1.00
H908   H     0.60720   0.55031   0.80391   0.00000  Uiso   1.00
N909   N     0.61906   0.49998   0.75000   0.00000  Uiso   1.00
N910   N     0.61231   0.44870   0.59165   0.00000  Uiso   1.00
O911   O     0.61814   0.40872   0.59512   0.00000  Uiso   1.00
O912   O     0.64271   0.47355   0.60128   0.00000  Uiso   1.00
N913   N     0.54060   0.37419   0.82145   0.00000  Uiso   1.00
O914   O     0.52195   0.36613   0.87352   0.00000  Uiso   1.00
O915   O     0.58361   0.39044   0.80173   0.00000  Uiso   1.00
N916   N     0.50134   0.55564   0.56882   0.00000  Uiso   1.00
O917   O     0.49205   0.57255   0.61602   0.00000  Uiso   1.00
O918   O     0.50380   0.57992   0.52756   0.00000  Uiso   1.00
N919   N     0.35654   0.55005   0.52589   0.00000  Uiso   1.00
O920   O     0.65718   0.55676   0.50387   0.00000  Uiso   1.00
O921   O     0.34793   0.56211   0.57548   0.00000  Uiso   1.00
N922   N     0.53919   0.62041   0.82200   0.00000  Uiso   1.00
O923   O     0.51212   0.59373   0.85737   0.00000  Uiso   1.00
O924   O     0.58231   0.62835   0.82203   0.00000  Uiso   1.00
O925   O     0.79512   0.56108   0.75000   0.00000  Uiso   1.00
O926   O     0.87157   0.56107   0.75000   0.00000  Uiso   1.00
C927   C     0.83282   0.57991   0.75099   0.00000  Uiso   1.00
O928   O     0.77613   0.50000   0.82681   0.00000  Uiso   1.00
O929   O     0.85258   0.49999   0.82681   0.00000  Uiso   1.00
C930   C     0.80636   0.49910   0.85250   0.00000  Uiso   1.00
Zn931  Zn    0.78229   0.50001   0.75000   0.00000  Uiso   1.00
Zn932  Zn    0.88438   0.49999   0.75000   0.00000  Uiso   1.00
O933   O     0.79510   0.43893   0.74999   0.00000  Uiso   1.00
O934   O     0.87154   0.43892   0.74999   0.00000  Uiso   1.00
O935   O     0.81409   0.50001   0.67319   0.00000  Uiso   1.00
O936   O     0.89053   0.50000   0.67319   0.00000  Uiso   1.00
C937   C     0.83322   0.41994   0.75133   0.00000  Uiso   1.00
C938   C     0.86049   0.50004   0.64767   0.00000  Uiso   1.00
C939   C     0.91835   0.44928   0.51446   0.00000  Uiso   1.00
H940   H     0.91580   0.42061   0.92182   0.00000  Uiso   1.00
H941   H     0.94606   0.42636   0.99565   0.00000  Uiso   1.00
C942   C     0.87866   0.49524   0.58889   0.00000  Uiso   1.00
C943   C     0.74611   0.52072   0.94076   0.00000  Uiso   1.00
C944   C     0.73452   0.52933   0.99607   0.00000  Uiso   1.00
C945   C     0.76816   0.51910   0.52121   0.00000  Uiso   1.00
C946   C     0.81236   0.49922   0.99207   0.00000  Uiso   1.00
C947   C     0.81925   0.48479   0.93967   0.00000  Uiso   1.00
C948   C     0.84919   0.49153   0.51419   0.00000  Uiso   1.00
C949   C     0.88533   0.46134   0.98987   0.00000  Uiso   1.00
C950   C     0.88825   0.44353   0.94105   0.00000  Uiso   1.00
C951   C     0.85646   0.45597   0.91566   0.00000  Uiso   1.00
C952   C     0.85176   0.51313   0.55923   0.00000  Uiso   1.00
C953   C     0.91419   0.46476   0.56497   0.00000  Uiso   1.00
C954   C     0.78897   0.49961   0.91212   0.00000  Uiso   1.00
H955   H     0.72261   0.53162   0.91955   0.00000  Uiso   1.00
H956   H     0.75915   0.52585   0.56384   0.00000  Uiso   1.00
H957   H     0.86045   0.44195   0.87754   0.00000  Uiso   1.00
C958   C     0.85324   0.64372   0.78681   0.00000  Uiso   1.00
C959   C     0.85477   0.35351   0.78569   0.00000  Uiso   1.00
C960   C     0.83346   0.37567   0.75294   0.00000  Uiso   1.00
C961   C     0.81045   0.35535   0.72242   0.00000  Uiso   1.00
H962   H     0.79395   0.37249   0.69742   0.00000  Uiso   1.00
C963   C     0.80933   0.64606   0.72318   0.00000  Uiso   1.00
H964   H     0.79232   0.63041   0.69847   0.00000  Uiso   1.00
C965   C     0.83133   0.62385   0.75436   0.00000  Uiso   1.00
C966   C     0.98542   0.47141   0.72095   0.00000  Uiso   1.00
H967   H     0.97468   0.44830   0.69814   0.00000  Uiso   1.00
C968   C     0.70008   0.47154   0.72074   0.00000  Uiso   1.00
H969   H     0.72578   0.44878   0.69730   0.00000  Uiso   1.00
N970   N     0.71426   0.50001   0.75001   0.00000  Uiso   1.00
C971   C     0.68106   0.52819   0.77972   0.00000  Uiso   1.00
H972   H     0.69152   0.55069   0.80357   0.00000  Uiso   1.00
C973   C     0.96644   0.52811   0.77977   0.00000  Uiso   1.00
H974   H     0.94054   0.55031   0.80391   0.00000  Uiso   1.00
N975   N     0.95239   0.49998   0.75000   0.00000  Uiso   1.00
N976   N     0.94565   0.44870   0.59165   0.00000  Uiso   1.00
O977   O     0.95147   0.40872   0.59512   0.00000  Uiso   1.00
O978   O     0.97604   0.47355   0.60128   0.00000  Uiso   1.00
N979   N     0.87394   0.37419   0.82145   0.00000  Uiso   1.00
O980   O     0.85528   0.36613   0.87352   0.00000  Uiso   1.00
O981   O     0.91695   0.39044   0.80173   0.00000  Uiso   1.00
N982   N     0.83467   0.55564   0.56882   0.00000  Uiso   1.00
O983   O     0.82538   0.57255   0.61602   0.00000  Uiso   1.00
O984   O     0.83713   0.57992   0.52756   0.00000  Uiso   1.00
N985   N     0.68987   0.55005   0.52589   0.00000  Uiso   1.00
O986   O     0.99051   0.55676   0.50387   0.00000  Uiso   1.00
O987   O     0.68127   0.56211   0.57548   0.00000  Uiso   1.00
N988   N     0.87253   0.62041   0.82200   0.00000  Uiso   1.00
O989   O     0.84546   0.59373   0.85737   0.00000  Uiso   1.00
O990   O     0.91564   0.62835   0.82203   0.00000  Uiso   1.00
O991   O     0.12846   0.89442   0.75000   0.00000  Uiso   1.00
O992   O     0.20490   0.89441   0.75000   0.00000  Uiso   1.00
C993   C     0.16615   0.91324   0.75099   0.00000  Uiso   1.00
O994   O     0.10947   0.83333   0.82681   0.00000  Uiso   1.00
O995   O     0.18591   0.83332   0.82681   0.00000  Uiso   1.00
C996   C     0.13969   0.83243   0.85250   0.00000  Uiso   1.00
Zn997  Zn    0.11562   0.83334   0.75000   0.00000  Uiso   1.00
Zn998  Zn    0.21771   0.83333   0.75000   0.00000  Uiso   1.00
O999   O     0.12843   0.77226   0.74999   0.00000  Uiso   1.00
O1000  O     0.20488   0.77225   0.74999   0.00000  Uiso   1.00
O1001  O     0.14742   0.83335   0.67319   0.00000  Uiso   1.00
O1002  O     0.22387   0.83334   0.67319   0.00000  Uiso   1.00
C1003  C     0.16655   0.75328   0.75133   0.00000  Uiso   1.00
C1004  C     0.19383   0.83337   0.64767   0.00000  Uiso   1.00
C1005  C     0.25169   0.78262   0.51446   0.00000  Uiso   1.00
H1006  H     0.24913   0.75395   0.92182   0.00000  Uiso   1.00
H1007  H     0.27939   0.75969   0.99565   0.00000  Uiso   1.00
C1008  C     0.21200   0.82857   0.58889   0.00000  Uiso   1.00
C1009  C     0.07944   0.85405   0.94076   0.00000  Uiso   1.00
C1010  C     0.06786   0.86266   0.99607   0.00000  Uiso   1.00
C1011  C     0.10149   0.85243   0.52121   0.00000  Uiso   1.00
C1012  C     0.14569   0.83255   0.99207   0.00000  Uiso   1.00
C1013  C     0.15259   0.81812   0.93967   0.00000  Uiso   1.00
C1014  C     0.18253   0.82487   0.51419   0.00000  Uiso   1.00
C1015  C     0.21867   0.79467   0.98987   0.00000  Uiso   1.00
C1016  C     0.22158   0.77687   0.94105   0.00000  Uiso   1.00
C1017  C     0.18979   0.78930   0.91566   0.00000  Uiso   1.00
C1018  C     0.18509   0.84647   0.55923   0.00000  Uiso   1.00
C1019  C     0.24752   0.79809   0.56497   0.00000  Uiso   1.00
C1020  C     0.12231   0.83294   0.91212   0.00000  Uiso   1.00
H1021  H     0.05594   0.86495   0.91955   0.00000  Uiso   1.00
H1022  H     0.09248   0.85918   0.56384   0.00000  Uiso   1.00
H1023  H     0.19379   0.77528   0.87754   0.00000  Uiso   1.00
C1024  C     0.18658   0.97706   0.78681   0.00000  Uiso   1.00
C1025  C     0.18810   0.68685   0.78569   0.00000  Uiso   1.00
C1026  C     0.16679   0.70901   0.75294   0.00000  Uiso   1.00
C1027  C     0.14378   0.68868   0.72242   0.00000  Uiso   1.00
H1028  H     0.12728   0.70582   0.69742   0.00000  Uiso   1.00
C1029  C     0.14266   0.97939   0.72318   0.00000  Uiso   1.00
H1030  H     0.12565   0.96374   0.69847   0.00000  Uiso   1.00
C1031  C     0.16467   0.95719   0.75436   0.00000  Uiso   1.00
C1032  C     0.31875   0.80475   0.72095   0.00000  Uiso   1.00
H1033  H     0.30801   0.78164   0.69814   0.00000  Uiso   1.00
C1034  C     0.03342   0.80487   0.72074   0.00000  Uiso   1.00
H1035  H     0.05911   0.78211   0.69730   0.00000  Uiso   1.00
N1036  N     0.04760   0.83334   0.75001   0.00000  Uiso   1.00
C1037  C     0.01440   0.86152   0.77972   0.00000  Uiso   1.00
H1038  H     0.02485   0.88403   0.80357   0.00000  Uiso   1.00
C1039  C     0.29978   0.86144   0.77977   0.00000  Uiso   1.00
H1040  H     0.27387   0.88365   0.80391   0.00000  Uiso   1.00
N1041  N     0.28573   0.83331   0.75000   0.00000  Uiso   1.00
N1042  N     0.27898   0.78204   0.59165   0.00000  Uiso   1.00
O1043  O     0.28480   0.74205   0.59512   0.00000  Uiso   1.00
O1044  O     0.30938   0.80689   0.60128   0.00000  Uiso   1.00
N1045  N     0.20727   0.70752   0.82145   0.00000  Uiso   1.00
O1046  O     0.18861   0.69946   0.87352   0.00000  Uiso   1.00
O1047  O     0.25028   0.72377   0.80173   0.00000  Uiso   1.00
N1048  N     0.16801   0.88898   0.56882   0.00000  Uiso   1.00
O1049  O     0.15871   0.90589   0.61602   0.00000  Uiso   1.00
O1050  O     0.17047   0.91325   0.52756   0.00000  Uiso   1.00
N1051  N     0.02320   0.88339   0.52589   0.00000  Uiso   1.00
O1052  O     0.32385   0.89010   0.50387   0.00000  Uiso   1.00
O1053  O     0.01460   0.89544   0.57548   0.00000  Uiso   1.00
N1054  N     0.20586   0.95375   0.82200   0.00000  Uiso   1.00
O1055  O     0.17879   0.92707   0.85737   0.00000  Uiso   1.00
O1056  O     0.24897   0.96169   0.82203   0.00000  Uiso   1.00
O1057  O     0.46179   0.89442   0.75000   0.00000  Uiso   1.00
O1058  O     0.53823   0.89441   0.75000   0.00000  Uiso   1.00
C1059  C     0.49948   0.91324   0.75099   0.00000  Uiso   1.00
O1060  O     0.44280   0.83333   0.82681   0.00000  Uiso   1.00
O1061  O     0.51924   0.83332   0.82681   0.00000  Uiso   1.00
C1062  C     0.47302   0.83243   0.85250   0.00000  Uiso   1.00
Zn1063 Zn    0.44896   0.83334   0.75000   0.00000  Uiso   1.00
Zn1064 Zn    0.55104   0.83333   0.75000   0.00000  Uiso   1.00
O1065  O     0.46177   0.77226   0.74999   0.00000  Uiso   1.00
O1066  O     0.53821   0.77225   0.74999   0.00000  Uiso   1.00
O1067  O     0.48076   0.83335   0.67319   0.00000  Uiso   1.00
O1068  O     0.55720   0.83334   0.67319   0.00000  Uiso   1.00
C1069  C     0.49989   0.75328   0.75133   0.00000  Uiso   1.00
C1070  C     0.52716   0.83337   0.64767   0.00000  Uiso   1.00
C1071  C     0.58502   0.78262   0.51446   0.00000  Uiso   1.00
H1072  H     0.58247   0.75395   0.92182   0.00000  Uiso   1.00
H1073  H     0.61273   0.75969   0.99565   0.00000  Uiso   1.00
C1074  C     0.54533   0.82857   0.58889   0.00000  Uiso   1.00
C1075  C     0.41278   0.85405   0.94076   0.00000  Uiso   1.00
C1076  C     0.40119   0.86266   0.99607   0.00000  Uiso   1.00
C1077  C     0.43482   0.85243   0.52121   0.00000  Uiso   1.00
C1078  C     0.47902   0.83255   0.99207   0.00000  Uiso   1.00
C1079  C     0.48592   0.81812   0.93967   0.00000  Uiso   1.00
C1080  C     0.51586   0.82487   0.51419   0.00000  Uiso   1.00
C1081  C     0.55200   0.79467   0.98987   0.00000  Uiso   1.00
C1082  C     0.55492   0.77687   0.94105   0.00000  Uiso   1.00
C1083  C     0.52313   0.78930   0.91566   0.00000  Uiso   1.00
C1084  C     0.51842   0.84647   0.55923   0.00000  Uiso   1.00
C1085  C     0.58085   0.79809   0.56497   0.00000  Uiso   1.00
C1086  C     0.45564   0.83294   0.91212   0.00000  Uiso   1.00
H1087  H     0.38927   0.86495   0.91955   0.00000  Uiso   1.00
H1088  H     0.42582   0.85918   0.56384   0.00000  Uiso   1.00
H1089  H     0.52712   0.77528   0.87754   0.00000  Uiso   1.00
C1090  C     0.51991   0.97706   0.78681   0.00000  Uiso   1.00
C1091  C     0.52143   0.68685   0.78569   0.00000  Uiso   1.00
C1092  C     0.50012   0.70901   0.75294   0.00000  Uiso   1.00
C1093  C     0.47712   0.68868   0.72242   0.00000  Uiso   1.00
H1094  H     0.46061   0.70582   0.69742   0.00000  Uiso   1.00
C1095  C     0.47600   0.97939   0.72318   0.00000  Uiso   1.00
H1096  H     0.45898   0.96374   0.69847   0.00000  Uiso   1.00
C1097  C     0.49800   0.95719   0.75436   0.00000  Uiso   1.00
C1098  C     0.65208   0.80475   0.72095   0.00000  Uiso   1.00
H1099  H     0.64134   0.78164   0.69814   0.00000  Uiso   1.00
C1100  C     0.36675   0.80487   0.72074   0.00000  Uiso   1.00
H1101  H     0.39245   0.78211   0.69730   0.00000  Uiso   1.00
N1102  N     0.38093   0.83334   0.75001   0.00000  Uiso   1.00
C1103  C     0.34773   0.86152   0.77972   0.00000  Uiso   1.00
H1104  H     0.35819   0.88403   0.80357   0.00000  Uiso   1.00
C1105  C     0.63311   0.86144   0.77977   0.00000  Uiso   1.00
H1106  H     0.60720   0.88365   0.80391   0.00000  Uiso   1.00
N1107  N     0.61906   0.83331   0.75000   0.00000  Uiso   1.00
N1108  N     0.61231   0.78204   0.59165   0.00000  Uiso   1.00
O1109  O     0.61814   0.74205   0.59512   0.00000  Uiso   1.00
O1110  O     0.64271   0.80689   0.60128   0.00000  Uiso   1.00
N1111  N     0.54060   0.70752   0.82145   0.00000  Uiso   1.00
O1112  O     0.52195   0.69946   0.87352   0.00000  Uiso   1.00
O1113  O     0.58361   0.72377   0.80173   0.00000  Uiso   1.00
N1114  N     0.50134   0.88898   0.56882   0.00000  Uiso   1.00
O1115  O     0.49205   0.90589   0.61602   0.00000  Uiso   1.00
O1116  O     0.50380   0.91325   0.52756   0.00000  Uiso   1.00
N1117  N     0.35654   0.88339   0.52589   0.00000  Uiso   1.00
O1118  O     0.65718   0.89010   0.50387   0.00000  Uiso   1.00
O1119  O     0.34793   0.89544   0.57548   0.00000  Uiso   1.00
N1120  N     0.53919   0.95375   0.82200   0.00000  Uiso   1.00
O1121  O     0.51212   0.92707   0.85737   0.00000  Uiso   1.00
O1122  O     0.58231   0.96169   0.82203   0.00000  Uiso   1.00
O1123  O     0.79512   0.89442   0.75000   0.00000  Uiso   1.00
O1124  O     0.87157   0.89441   0.75000   0.00000  Uiso   1.00
C1125  C     0.83282   0.91324   0.75099   0.00000  Uiso   1.00
O1126  O     0.77613   0.83333   0.82681   0.00000  Uiso   1.00
O1127  O     0.85258   0.83332   0.82681   0.00000  Uiso   1.00
C1128  C     0.80636   0.83243   0.85250   0.00000  Uiso   1.00
Zn1129 Zn    0.78229   0.83334   0.75000   0.00000  Uiso   1.00
Zn1130 Zn    0.88438   0.83333   0.75000   0.00000  Uiso   1.00
O1131  O     0.79510   0.77226   0.74999   0.00000  Uiso   1.00
O1132  O     0.87154   0.77225   0.74999   0.00000  Uiso   1.00
O1133  O     0.81409   0.83335   0.67319   0.00000  Uiso   1.00
O1134  O     0.89053   0.83334   0.67319   0.00000  Uiso   1.00
C1135  C     0.83322   0.75328   0.75133   0.00000  Uiso   1.00
C1136  C     0.86049   0.83337   0.64767   0.00000  Uiso   1.00
C1137  C     0.91835   0.78262   0.51446   0.00000  Uiso   1.00
H1138  H     0.91580   0.75395   0.92182   0.00000  Uiso   1.00
H1139  H     0.94606   0.75969   0.99565   0.00000  Uiso   1.00
C1140  C     0.87866   0.82857   0.58889   0.00000  Uiso   1.00
C1141  C     0.74611   0.85405   0.94076   0.00000  Uiso   1.00
C1142  C     0.73452   0.86266   0.99607   0.00000  Uiso   1.00
C1143  C     0.76816   0.85243   0.52121   0.00000  Uiso   1.00
C1144  C     0.81236   0.83255   0.99207   0.00000  Uiso   1.00
C1145  C     0.81925   0.81812   0.93967   0.00000  Uiso   1.00
C1146  C     0.84919   0.82487   0.51419   0.00000  Uiso   1.00
C1147  C     0.88533   0.79467   0.98987   0.00000  Uiso   1.00
C1148  C     0.88825   0.77687   0.94105   0.00000  Uiso   1.00
C1149  C     0.85646   0.78930   0.91566   0.00000  Uiso   1.00
C1150  C     0.85176   0.84647   0.55923   0.00000  Uiso   1.00
C1151  C     0.91419   0.79809   0.56497   0.00000  Uiso   1.00
C1152  C     0.78897   0.83294   0.91212   0.00000  Uiso   1.00
H1153  H     0.72261   0.86495   0.91955   0.00000  Uiso   1.00
H1154  H     0.75915   0.85918   0.56384   0.00000  Uiso   1.00
H1155  H     0.86045   0.77528   0.87754   0.00000  Uiso   1.00
C1156  C     0.85324   0.97706   0.78681   0.00000  Uiso   1.00
C1157  C     0.85477   0.68685   0.78569   0.00000  Uiso   1.00
C1158  C     0.83346   0.70901   0.75294   0.00000  Uiso   1.00
C1159  C     0.81045   0.68868   0.72242   0.00000  Uiso   1.00
H1160  H     0.79395   0.70582   0.69742   0.00000  Uiso   1.00
C1161  C     0.80933   0.97939   0.72318   0.00000  Uiso   1.00
H1162  H     0.79232   0.96374   0.69847   0.00000  Uiso   1.00
C1163  C     0.83133   0.95719   0.75436   0.00000  Uiso   1.00
C1164  C     0.98542   0.80475   0.72095   0.00000  Uiso   1.00
H1165  H     0.97468   0.78164   0.69814   0.00000  Uiso   1.00
C1166  C     0.70008   0.80487   0.72074   0.00000  Uiso   1.00
H1167  H     0.72578   0.78211   0.69730   0.00000  Uiso   1.00
N1168  N     0.71426   0.83334   0.75001   0.00000  Uiso   1.00
C1169  C     0.68106   0.86152   0.77972   0.00000  Uiso   1.00
H1170  H     0.69152   0.88403   0.80357   0.00000  Uiso   1.00
C1171  C     0.96644   0.86144   0.77977   0.00000  Uiso   1.00
H1172  H     0.94054   0.88365   0.80391   0.00000  Uiso   1.00
N1173  N     0.95239   0.83331   0.75000   0.00000  Uiso   1.00
N1174  N     0.94565   0.78204   0.59165   0.00000  Uiso   1.00
O1175  O     0.95147   0.74205   0.59512   0.00000  Uiso   1.00
O1176  O     0.97604   0.80689   0.60128   0.00000  Uiso   1.00
N1177  N     0.87394   0.70752   0.82145   0.00000  Uiso   1.00
O1178  O     0.85528   0.69946   0.87352   0.00000  Uiso   1.00
O1179  O     0.91695   0.72377   0.80173   0.00000  Uiso   1.00
N1180  N     0.83467   0.88898   0.56882   0.00000  Uiso   1.00
O1181  O     0.82538   0.90589   0.61602   0.00000  Uiso   1.00
O1182  O     0.83713   0.91325   0.52756   0.00000  Uiso   1.00
N1183  N     0.68987   0.88339   0.52589   0.00000  Uiso   1.00
O1184  O     0.99051   0.89010   0.50387   0.00000  Uiso   1.00
O1185  O     0.68127   0.89544   0.57548   0.00000  Uiso   1.00
N1186  N     0.87253   0.95375   0.82200   0.00000  Uiso   1.00
O1187  O     0.84546   0.92707   0.85737   0.00000  Uiso   1.00
O1188  O     0.91564   0.96169   0.82203   0.00000  Uiso   1.00
loop_
_geom_bond_atom_site_label_1
_geom_bond_atom_site_label_2
_geom_bond_distance
_geom_bond_site_symmetry_2
_ccdc_geom_bond_type
O1     Zn7     2.004   .     S
O1     C3      1.281   .     A
O2     C3      1.282   .     A
O2     Zn8     1.997   .     S
C3     C41     1.417   .     S
O4     Zn7     1.958   .     S
O4     C6      1.294   .     A
O5     Zn8     1.900   .     S
O5     C6      1.293   .     A
C6     C30     1.465   .     S
Zn7    N46     2.009   .     S
Zn7    O11     1.900   .     S
Zn7    O9      1.997   .     S
Zn8    O12     1.958   .     S
Zn8    N51     2.009   .     S
Zn8    O10     2.004   .     S
O9     C13     1.287   .     A
O10    C13     1.280   .     A
O11    C14     1.297   .     A
O12    C14     1.286   .     A
C13    C36     1.423   .     S
C14    C18     1.455   .     S
C15    C29     1.390   .     A
C15    H611    1.085   1_554 S
C15    C619    1.394   1_554 S
H16    C26     1.084   .     S
H17    C609    1.085   .     S
C18    C29     1.414   .     A
C18    C28     1.405   .     A
C19    C20     1.402   .     A
C19    H31     1.083   .     S
C19    C30     1.401   .     A
C20    C615    1.405   .     S
C20    N655    1.441   .     S
C21    H32     1.081   .     S
C21    C614    1.405   1_554 S
C21    C616    1.414   1_554 S
C22    C23     1.406   .     A
C22    C615    1.414   .     S
C22    C618    1.419   .     S
C23    C27     1.408   .     A
C23    C30     1.407   .     A
C24    C28     1.408   .     A
C24    C616    1.419   1_554 S
C24    C619    1.420   1_554 S
C25    C26     1.389   .     A
C25    C609    1.394   .     S
C25    C618    1.420   .     S
C26    C27     1.381   .     A
C27    H33     1.074   .     S
C28    N58     1.449   .     S
C29    N52     1.433   .     S
C34    N64     1.439   .     S
C34    C41     1.404   .     A
C34    C233    1.387   .     S
C35    N55     1.432   .     S
C35    C36     1.410   .     A
C35    C430    1.387   1_545 S
C36    C37     1.394   .     A
C37    H38     1.084   .     S
C37    C435    1.371   1_545 S
C39    H40     1.084   .     S
C39    C41     1.393   .     A
C39    C235    1.371   .     S
C42    N51     1.366   .     A
C42    H43     1.081   .     S
C42    C110    1.416   .     S
C44    N46     1.367   .     A
C44    H45     1.082   .     S
C44    C174    1.416   1_455 S
N46    C47     1.366   .     A
C47    H48     1.082   .     S
C47    C181    1.416   1_455 S
C49    N51     1.366   .     A
C49    H50     1.079   .     S
C49    C113    1.416   .     S
N52    O54     1.300   .     A
N52    O53     1.301   .     A
N55    O56     1.302   .     A
N55    O57     1.301   .     A
N58    O60     1.302   .     A
N58    O59     1.301   .     A
N61    O63     1.302   .     A
N61    C614    1.441   1_554 S
N61    O194    1.302   1_455 S
O62    N127    1.302   .     S
N64    O65     1.301   .     A
N64    O66     1.301   .     A
O67    Zn73    2.004   .     S
O67    C69     1.281   .     A
O68    C69     1.282   .     A
O68    Zn74    1.997   .     S
C69    C107    1.417   .     S
O70    Zn73    1.958   .     S
O70    C72     1.294   .     A
O71    Zn74    1.900   .     S
O71    C72     1.293   .     A
C72    C96     1.465   .     S
Zn73   N112    2.009   .     S
Zn73   O77     1.900   .     S
Zn73   O75     1.997   .     S
Zn74   O78     1.958   .     S
Zn74   N117    2.009   .     S
Zn74   O76     2.004   .     S
O75    C79     1.287   .     A
O76    C79     1.280   .     A
O77    C80     1.297   .     A
O78    C80     1.286   .     A
C79    C102    1.423   .     S
C80    C84     1.455   .     S
C81    C95     1.390   .     A
C81    H677    1.085   1_554 S
C81    C685    1.394   1_554 S
H82    C92     1.084   .     S
H83    C675    1.085   .     S
C84    C95     1.414   .     A
C84    C94     1.405   .     A
C85    C86     1.402   .     A
C85    H97     1.083   .     S
C85    C96     1.401   .     A
C86    C681    1.405   .     S
C86    N721    1.441   .     S
C87    H98     1.081   .     S
C87    C680    1.405   1_554 S
C87    C682    1.414   1_554 S
C88    C89     1.406   .     A
C88    C681    1.414   .     S
C88    C684    1.419   .     S
C89    C93     1.408   .     A
C89    C96     1.407   .     A
C90    C94     1.408   .     A
C90    C682    1.419   1_554 S
C90    C685    1.420   1_554 S
C91    C92     1.389   .     A
C91    C675    1.394   .     S
C91    C684    1.420   .     S
C92    C93     1.381   .     A
C93    H99     1.074   .     S
C94    N124    1.449   .     S
C95    N118    1.433   .     S
C100   N130    1.439   .     S
C100   C107    1.404   .     A
C100   C299    1.387   .     S
C101   N121    1.432   .     S
C101   C102    1.410   .     A
C101   C496    1.387   1_545 S
C102   C103    1.394   .     A
C103   H104    1.084   .     S
C103   C501    1.371   1_545 S
C105   H106    1.084   .     S
C105   C107    1.393   .     A
C105   C301    1.371   .     S
C108   N117    1.366   .     A
C108   H109    1.081   .     S
C108   C176    1.416   .     S
C110   N112    1.367   .     A
C110   H111    1.082   .     S
N112   C113    1.366   .     A
C113   H114    1.082   .     S
C115   N117    1.366   .     A
C115   H116    1.079   .     S
C115   C179    1.416   .     S
N118   O120    1.300   .     A
N118   O119    1.301   .     A
N121   O122    1.302   .     A
N121   O123    1.301   .     A
N124   O126    1.302   .     A
N124   O125    1.301   .     A
N127   O129    1.302   .     A
N127   C680    1.441   1_554 S
O128   N193    1.302   .     S
N130   O131    1.301   .     A
N130   O132    1.301   .     A
O133   Zn139   2.004   .     S
O133   C135    1.281   .     A
O134   C135    1.282   .     A
O134   Zn140   1.997   .     S
C135   C173    1.417   .     S
O136   Zn139   1.958   .     S
O136   C138    1.294   .     A
O137   Zn140   1.900   .     S
O137   C138    1.293   .     A
C138   C162    1.465   .     S
Zn139  N178    2.009   .     S
Zn139  O143    1.900   .     S
Zn139  O141    1.997   .     S
Zn140  O144    1.958   .     S
Zn140  N183    2.009   .     S
Zn140  O142    2.004   .     S
O141   C145    1.287   .     A
O142   C145    1.280   .     A
O143   C146    1.297   .     A
O144   C146    1.286   .     A
C145   C168    1.423   .     S
C146   C150    1.455   .     S
C147   C161    1.390   .     A
C147   H743    1.085   1_554 S
C147   C751    1.394   1_554 S
H148   C158    1.084   .     S
H149   C741    1.085   .     S
C150   C161    1.414   .     A
C150   C160    1.405   .     A
C151   C152    1.402   .     A
C151   H163    1.083   .     S
C151   C162    1.401   .     A
C152   C747    1.405   .     S
C152   N787    1.441   .     S
C153   H164    1.081   .     S
C153   C746    1.405   1_554 S
C153   C748    1.414   1_554 S
C154   C155    1.406   .     A
C154   C747    1.414   .     S
C154   C750    1.419   .     S
C155   C159    1.408   .     A
C155   C162    1.407   .     A
C156   C160    1.408   .     A
C156   C748    1.419   1_554 S
C156   C751    1.420   1_554 S
C157   C158    1.389   .     A
C157   C741    1.394   .     S
C157   C750    1.420   .     S
C158   C159    1.381   .     A
C159   H165    1.074   .     S
C160   N190    1.449   .     S
C161   N184    1.433   .     S
C166   N196    1.439   .     S
C166   C173    1.404   .     A
C166   C365    1.387   .     S
C167   N187    1.432   .     S
C167   C168    1.410   .     A
C167   C562    1.387   1_545 S
C168   C169    1.394   .     A
C169   H170    1.084   .     S
C169   C567    1.371   1_545 S
C171   H172    1.084   .     S
C171   C173    1.393   .     A
C171   C367    1.371   .     S
C174   N183    1.366   .     A
C174   H175    1.081   .     S
C174   C44     1.416   1_655 S
C176   N178    1.367   .     A
C176   H177    1.082   .     S
N178   C179    1.366   .     A
C179   H180    1.082   .     S
C181   N183    1.366   .     A
C181   H182    1.079   .     S
C181   C47     1.416   1_655 S
N184   O186    1.300   .     A
N184   O185    1.301   .     A
N187   O188    1.302   .     A
N187   O189    1.301   .     A
N190   O192    1.302   .     A
N190   O191    1.301   .     A
N193   O195    1.302   .     A
N193   C746    1.441   1_554 S
O194   N61     1.302   1_655 S
N196   O197    1.301   .     A
N196   O198    1.301   .     A
O199   Zn205   2.004   .     S
O199   C201    1.281   .     A
O200   C201    1.282   .     A
O200   Zn206   1.997   .     S
C201   C239    1.417   .     S
O202   Zn205   1.958   .     S
O202   C204    1.294   .     A
O203   Zn206   1.900   .     S
O203   C204    1.293   .     A
C204   C228    1.465   .     S
Zn205  N244    2.009   .     S
Zn205  O209    1.900   .     S
Zn205  O207    1.997   .     S
Zn206  O210    1.958   .     S
Zn206  N249    2.009   .     S
Zn206  O208    2.004   .     S
O207   C211    1.287   .     A
O208   C211    1.280   .     A
O209   C212    1.297   .     A
O210   C212    1.286   .     A
C211   C234    1.423   .     S
C212   C216    1.455   .     S
C213   C227    1.390   .     A
C213   H809    1.085   1_554 S
C213   C817    1.394   1_554 S
H214   C224    1.084   .     S
H215   C807    1.085   .     S
C216   C227    1.414   .     A
C216   C226    1.405   .     A
C217   C218    1.402   .     A
C217   H229    1.083   .     S
C217   C228    1.401   .     A
C218   C813    1.405   .     S
C218   N853    1.441   .     S
C219   H230    1.081   .     S
C219   C812    1.405   1_554 S
C219   C814    1.414   1_554 S
C220   C221    1.406   .     A
C220   C813    1.414   .     S
C220   C816    1.419   .     S
C221   C225    1.408   .     A
C221   C228    1.407   .     A
C222   C226    1.408   .     A
C222   C814    1.419   1_554 S
C222   C817    1.420   1_554 S
C223   C224    1.389   .     A
C223   C807    1.394   .     S
C223   C816    1.420   .     S
C224   C225    1.381   .     A
C225   H231    1.074   .     S
C226   N256    1.449   .     S
C227   N250    1.433   .     S
C232   N262    1.439   .     S
C232   C239    1.404   .     A
C232   C431    1.387   .     S
C233   N253    1.432   .     S
C233   C234    1.410   .     A
C234   C235    1.394   .     A
C235   H236    1.084   .     S
C237   H238    1.084   .     S
C237   C239    1.393   .     A
C237   C433    1.371   .     S
C240   N249    1.366   .     A
C240   H241    1.081   .     S
C240   C308    1.416   .     S
C242   N244    1.367   .     A
C242   H243    1.082   .     S
C242   C372    1.416   1_455 S
N244   C245    1.366   .     A
C245   H246    1.082   .     S
C245   C379    1.416   1_455 S
C247   N249    1.366   .     A
C247   H248    1.079   .     S
C247   C311    1.416   .     S
N250   O252    1.300   .     A
N250   O251    1.301   .     A
N253   O254    1.302   .     A
N253   O255    1.301   .     A
N256   O258    1.302   .     A
N256   O257    1.301   .     A
N259   O261    1.302   .     A
N259   C812    1.441   1_554 S
N259   O392    1.302   1_455 S
O260   N325    1.302   .     S
N262   O263    1.301   .     A
N262   O264    1.301   .     A
O265   Zn271   2.004   .     S
O265   C267    1.281   .     A
O266   C267    1.282   .     A
O266   Zn272   1.997   .     S
C267   C305    1.417   .     S
O268   Zn271   1.958   .     S
O268   C270    1.294   .     A
O269   Zn272   1.900   .     S
O269   C270    1.293   .     A
C270   C294    1.465   .     S
Zn271  N310    2.009   .     S
Zn271  O275    1.900   .     S
Zn271  O273    1.997   .     S
Zn272  O276    1.958   .     S
Zn272  N315    2.009   .     S
Zn272  O274    2.004   .     S
O273   C277    1.287   .     A
O274   C277    1.280   .     A
O275   C278    1.297   .     A
O276   C278    1.286   .     A
C277   C300    1.423   .     S
C278   C282    1.455   .     S
C279   C293    1.390   .     A
C279   H875    1.085   1_554 S
C279   C883    1.394   1_554 S
H280   C290    1.084   .     S
H281   C873    1.085   .     S
C282   C293    1.414   .     A
C282   C292    1.405   .     A
C283   C284    1.402   .     A
C283   H295    1.083   .     S
C283   C294    1.401   .     A
C284   C879    1.405   .     S
C284   N919    1.441   .     S
C285   H296    1.081   .     S
C285   C878    1.405   1_554 S
C285   C880    1.414   1_554 S
C286   C287    1.406   .     A
C286   C879    1.414   .     S
C286   C882    1.419   .     S
C287   C291    1.408   .     A
C287   C294    1.407   .     A
C288   C292    1.408   .     A
C288   C880    1.419   1_554 S
C288   C883    1.420   1_554 S
C289   C290    1.389   .     A
C289   C873    1.394   .     S
C289   C882    1.420   .     S
C290   C291    1.381   .     A
C291   H297    1.074   .     S
C292   N322    1.449   .     S
C293   N316    1.433   .     S
C298   N328    1.439   .     S
C298   C305    1.404   .     A
C298   C497    1.387   .     S
C299   N319    1.432   .     S
C299   C300    1.410   .     A
C300   C301    1.394   .     A
C301   H302    1.084   .     S
C303   H304    1.084   .     S
C303   C305    1.393   .     A
C303   C499    1.371   .     S
C306   N315    1.366   .     A
C306   H307    1.081   .     S
C306   C374    1.416   .     S
C308   N310    1.367   .     A
C308   H309    1.082   .     S
N310   C311    1.366   .     A
C311   H312    1.082   .     S
C313   N315    1.366   .     A
C313   H314    1.079   .     S
C313   C377    1.416   .     S
N316   O318    1.300   .     A
N316   O317    1.301   .     A
N319   O320    1.302   .     A
N319   O321    1.301   .     A
N322   O324    1.302   .     A
N322   O323    1.301   .     A
N325   O327    1.302   .     A
N325   C878    1.441   1_554 S
O326   N391    1.302   .     S
N328   O329    1.301   .     A
N328   O330    1.301   .     A
O331   Zn337   2.004   .     S
O331   C333    1.281   .     A
O332   C333    1.282   .     A
O332   Zn338   1.997   .     S
C333   C371    1.417   .     S
O334   Zn337   1.958   .     S
O334   C336    1.294   .     A
O335   Zn338   1.900   .     S
O335   C336    1.293   .     A
C336   C360    1.465   .     S
Zn337  N376    2.009   .     S
Zn337  O341    1.900   .     S
Zn337  O339    1.997   .     S
Zn338  O342    1.958   .     S
Zn338  N381    2.009   .     S
Zn338  O340    2.004   .     S
O339   C343    1.287   .     A
O340   C343    1.280   .     A
O341   C344    1.297   .     A
O342   C344    1.286   .     A
C343   C366    1.423   .     S
C344   C348    1.455   .     S
C345   C359    1.390   .     A
C345   H941    1.085   1_554 S
C345   C949    1.394   1_554 S
H346   C356    1.084   .     S
H347   C939    1.085   .     S
C348   C359    1.414   .     A
C348   C358    1.405   .     A
C349   C350    1.402   .     A
C349   H361    1.083   .     S
C349   C360    1.401   .     A
C350   C945    1.405   .     S
C350   N985    1.441   .     S
C351   H362    1.081   .     S
C351   C944    1.405   1_554 S
C351   C946    1.414   1_554 S
C352   C353    1.406   .     A
C352   C945    1.414   .     S
C352   C948    1.419   .     S
C353   C357    1.408   .     A
C353   C360    1.407   .     A
C354   C358    1.408   .     A
C354   C946    1.419   1_554 S
C354   C949    1.420   1_554 S
C355   C356    1.389   .     A
C355   C939    1.394   .     S
C355   C948    1.420   .     S
C356   C357    1.381   .     A
C357   H363    1.074   .     S
C358   N388    1.449   .     S
C359   N382    1.433   .     S
C364   N394    1.439   .     S
C364   C371    1.404   .     A
C364   C563    1.387   .     S
C365   N385    1.432   .     S
C365   C366    1.410   .     A
C366   C367    1.394   .     A
C367   H368    1.084   .     S
C369   H370    1.084   .     S
C369   C371    1.393   .     A
C369   C565    1.371   .     S
C372   N381    1.366   .     A
C372   H373    1.081   .     S
C372   C242    1.416   1_655 S
C374   N376    1.367   .     A
C374   H375    1.082   .     S
N376   C377    1.366   .     A
C377   H378    1.082   .     S
C379   N381    1.366   .     A
C379   H380    1.079   .     S
C379   C245    1.416   1_655 S
N382   O384    1.300   .     A
N382   O383    1.301   .     A
N385   O386    1.302   .     A
N385   O387    1.301   .     A
N388   O390    1.302   .     A
N388   O389    1.301   .     A
N391   O393    1.302   .     A
N391   C944    1.441   1_554 S
O392   N259    1.302   1_655 S
N394   O395    1.301   .     A
N394   O396    1.301   .     A
O397   Zn403   2.004   .     S
O397   C399    1.281   .     A
O398   C399    1.282   .     A
O398   Zn404   1.997   .     S
C399   C437    1.417   .     S
O400   Zn403   1.958   .     S
O400   C402    1.294   .     A
O401   Zn404   1.900   .     S
O401   C402    1.293   .     A
C402   C426    1.465   .     S
Zn403  N442    2.009   .     S
Zn403  O407    1.900   .     S
Zn403  O405    1.997   .     S
Zn404  O408    1.958   .     S
Zn404  N447    2.009   .     S
Zn404  O406    2.004   .     S
O405   C409    1.287   .     A
O406   C409    1.280   .     A
O407   C410    1.297   .     A
O408   C410    1.286   .     A
C409   C432    1.423   .     S
C410   C414    1.455   .     S
C411   C425    1.390   .     A
C411   H1007   1.085   1_554 S
C411   C1015   1.394   1_554 S
H412   C422    1.084   .     S
H413   C1005   1.085   .     S
C414   C425    1.414   .     A
C414   C424    1.405   .     A
C415   C416    1.402   .     A
C415   H427    1.083   .     S
C415   C426    1.401   .     A
C416   C1011   1.405   .     S
C416   N1051   1.441   .     S
C417   H428    1.081   .     S
C417   C1010   1.405   1_554 S
C417   C1012   1.414   1_554 S
C418   C419    1.406   .     A
C418   C1011   1.414   .     S
C418   C1014   1.419   .     S
C419   C423    1.408   .     A
C419   C426    1.407   .     A
C420   C424    1.408   .     A
C420   C1012   1.419   1_554 S
C420   C1015   1.420   1_554 S
C421   C422    1.389   .     A
C421   C1005   1.394   .     S
C421   C1014   1.420   .     S
C422   C423    1.381   .     A
C423   H429    1.074   .     S
C424   N454    1.449   .     S
C425   N448    1.433   .     S
C430   N460    1.439   .     S
C430   C437    1.404   .     A
C430   C35     1.387   1_565 S
C431   N451    1.432   .     S
C431   C432    1.410   .     A
C432   C433    1.394   .     A
C433   H434    1.084   .     S
C435   H436    1.084   .     S
C435   C437    1.393   .     A
C435   C37     1.371   1_565 S
C438   N447    1.366   .     A
C438   H439    1.081   .     S
C438   C506    1.416   .     S
C440   N442    1.367   .     A
C440   H441    1.082   .     S
C440   C570    1.416   1_455 S
N442   C443    1.366   .     A
C443   H444    1.082   .     S
C443   C577    1.416   1_455 S
C445   N447    1.366   .     A
C445   H446    1.079   .     S
C445   C509    1.416   .     S
N448   O450    1.300   .     A
N448   O449    1.301   .     A
N451   O452    1.302   .     A
N451   O453    1.301   .     A
N454   O456    1.302   .     A
N454   O455    1.301   .     A
N457   O459    1.302   .     A
N457   C1010   1.441   1_554 S
N457   O590    1.302   1_455 S
O458   N523    1.302   .     S
N460   O461    1.301   .     A
N460   O462    1.301   .     A
O463   Zn469   2.004   .     S
O463   C465    1.281   .     A
O464   C465    1.282   .     A
O464   Zn470   1.997   .     S
C465   C503    1.417   .     S
O466   Zn469   1.958   .     S
O466   C468    1.294   .     A
O467   Zn470   1.900   .     S
O467   C468    1.293   .     A
C468   C492    1.465   .     S
Zn469  N508    2.009   .     S
Zn469  O473    1.900   .     S
Zn469  O471    1.997   .     S
Zn470  O474    1.958   .     S
Zn470  N513    2.009   .     S
Zn470  O472    2.004   .     S
O471   C475    1.287   .     A
O472   C475    1.280   .     A
O473   C476    1.297   .     A
O474   C476    1.286   .     A
C475   C498    1.423   .     S
C476   C480    1.455   .     S
C477   C491    1.390   .     A
C477   H1073   1.085   1_554 S
C477   C1081   1.394   1_554 S
H478   C488    1.084   .     S
H479   C1071   1.085   .     S
C480   C491    1.414   .     A
C480   C490    1.405   .     A
C481   C482    1.402   .     A
C481   H493    1.083   .     S
C481   C492    1.401   .     A
C482   C1077   1.405   .     S
C482   N1117   1.441   .     S
C483   H494    1.081   .     S
C483   C1076   1.405   1_554 S
C483   C1078   1.414   1_554 S
C484   C485    1.406   .     A
C484   C1077   1.414   .     S
C484   C1080   1.419   .     S
C485   C489    1.408   .     A
C485   C492    1.407   .     A
C486   C490    1.408   .     A
C486   C1078   1.419   1_554 S
C486   C1081   1.420   1_554 S
C487   C488    1.389   .     A
C487   C1071   1.394   .     S
C487   C1080   1.420   .     S
C488   C489    1.381   .     A
C489   H495    1.074   .     S
C490   N520    1.449   .     S
C491   N514    1.433   .     S
C496   N526    1.439   .     S
C496   C503    1.404   .     A
C496   C101    1.387   1_565 S
C497   N517    1.432   .     S
C497   C498    1.410   .     A
C498   C499    1.394   .     A
C499   H500    1.084   .     S
C501   H502    1.084   .     S
C501   C503    1.393   .     A
C501   C103    1.371   1_565 S
C504   N513    1.366   .     A
C504   H505    1.081   .     S
C504   C572    1.416   .     S
C506   N508    1.367   .     A
C506   H507    1.082   .     S
N508   C509    1.366   .     A
C509   H510    1.082   .     S
C511   N513    1.366   .     A
C511   H512    1.079   .     S
C511   C575    1.416   .     S
N514   O516    1.300   .     A
N514   O515    1.301   .     A
N517   O518    1.302   .     A
N517   O519    1.301   .     A
N520   O522    1.302   .     A
N520   O521    1.301   .     A
N523   O525    1.302   .     A
N523   C1076   1.441   1_554 S
O524   N589    1.302   .     S
N526   O527    1.301   .     A
N526   O528    1.301   .     A
O529   Zn535   2.004   .     S
O529   C531    1.281   .     A
O530   C531    1.282   .     A
O530   Zn536   1.997   .     S
C531   C569    1.417   .     S
O532   Zn535   1.958   .     S
O532   C534    1.294   .     A
O533   Zn536   1.900   .     S
O533   C534    1.293   .     A
C534   C558    1.465   .     S
Zn535  N574    2.009   .     S
Zn535  O539    1.900   .     S
Zn535  O537    1.997   .     S
Zn536  O540    1.958   .     S
Zn536  N579    2.009   .     S
Zn536  O538    2.004   .     S
O537   C541    1.287   .     A
O538   C541    1.280   .     A
O539   C542    1.297   .     A
O540   C542    1.286   .     A
C541   C564    1.423   .     S
C542   C546    1.455   .     S
C543   C557    1.390   .     A
C543   H1139   1.085   1_554 S
C543   C1147   1.394   1_554 S
H544   C554    1.084   .     S
H545   C1137   1.085   .     S
C546   C557    1.414   .     A
C546   C556    1.405   .     A
C547   C548    1.402   .     A
C547   H559    1.083   .     S
C547   C558    1.401   .     A
C548   C1143   1.405   .     S
C548   N1183   1.441   .     S
C549   H560    1.081   .     S
C549   C1142   1.405   1_554 S
C549   C1144   1.414   1_554 S
C550   C551    1.406   .     A
C550   C1143   1.414   .     S
C550   C1146   1.419   .     S
C551   C555    1.408   .     A
C551   C558    1.407   .     A
C552   C556    1.408   .     A
C552   C1144   1.419   1_554 S
C552   C1147   1.420   1_554 S
C553   C554    1.389   .     A
C553   C1137   1.394   .     S
C553   C1146   1.420   .     S
C554   C555    1.381   .     A
C555   H561    1.074   .     S
C556   N586    1.449   .     S
C557   N580    1.433   .     S
C562   N592    1.439   .     S
C562   C569    1.404   .     A
C562   C167    1.387   1_565 S
C563   N583    1.432   .     S
C563   C564    1.410   .     A
C564   C565    1.394   .     A
C565   H566    1.084   .     S
C567   H568    1.084   .     S
C567   C569    1.393   .     A
C567   C169    1.371   1_565 S
C570   N579    1.366   .     A
C570   H571    1.081   .     S
C570   C440    1.416   1_655 S
C572   N574    1.367   .     A
C572   H573    1.082   .     S
N574   C575    1.366   .     A
C575   H576    1.082   .     S
C577   N579    1.366   .     A
C577   H578    1.079   .     S
C577   C443    1.416   1_655 S
N580   O582    1.300   .     A
N580   O581    1.301   .     A
N583   O584    1.302   .     A
N583   O585    1.301   .     A
N586   O588    1.302   .     A
N586   O587    1.301   .     A
N589   O591    1.302   .     A
N589   C1142   1.441   1_554 S
O590   N457    1.302   1_655 S
N592   O593    1.301   .     A
N592   O594    1.301   .     A
O595   Zn601   2.004   .     S
O595   C597    1.281   .     A
O596   C597    1.282   .     A
O596   Zn602   1.997   .     S
C597   C635    1.417   .     S
O598   Zn601   1.958   .     S
O598   C600    1.294   .     A
O599   Zn602   1.900   .     S
O599   C600    1.293   .     A
C600   C624    1.465   .     S
Zn601  N640    2.009   .     S
Zn601  O605    1.900   .     S
Zn601  O603    1.997   .     S
Zn602  O606    1.958   .     S
Zn602  N645    2.009   .     S
Zn602  O604    2.004   .     S
O603   C607    1.287   .     A
O604   C607    1.280   .     A
O605   C608    1.297   .     A
O606   C608    1.286   .     A
C607   C630    1.423   .     S
C608   C612    1.455   .     S
C609   C623    1.390   .     A
H610   C620    1.084   .     S
H611   C15     1.085   1_556 S
C612   C623    1.414   .     A
C612   C622    1.405   .     A
C613   C614    1.402   .     A
C613   H625    1.083   .     S
C613   C624    1.401   .     A
C614   C21     1.405   1_556 S
C614   N61     1.441   1_556 S
C615   H626    1.081   .     S
C616   C617    1.406   .     A
C616   C21     1.414   1_556 S
C616   C24     1.419   1_556 S
C617   C621    1.408   .     A
C617   C624    1.407   .     A
C618   C622    1.408   .     A
C619   C620    1.389   .     A
C619   C15     1.394   1_556 S
C619   C24     1.420   1_556 S
C620   C621    1.381   .     A
C621   H627    1.074   .     S
C622   N652    1.449   .     S
C623   N646    1.433   .     S
C628   N658    1.439   .     S
C628   C635    1.404   .     A
C628   C827    1.387   .     S
C629   N649    1.432   .     S
C629   C630    1.410   .     A
C629   C1024   1.387   1_545 S
C630   C631    1.394   .     A
C631   H632    1.084   .     S
C631   C1029   1.371   1_545 S
C633   H634    1.084   .     S
C633   C635    1.393   .     A
C633   C829    1.371   .     S
C636   N645    1.366   .     A
C636   H637    1.081   .     S
C636   C704    1.416   .     S
C638   N640    1.367   .     A
C638   H639    1.082   .     S
C638   C768    1.416   1_455 S
N640   C641    1.366   .     A
C641   H642    1.082   .     S
C641   C775    1.416   1_455 S
C643   N645    1.366   .     A
C643   H644    1.079   .     S
C643   C707    1.416   .     S
N646   O648    1.300   .     A
N646   O647    1.301   .     A
N649   O650    1.302   .     A
N649   O651    1.301   .     A
N652   O654    1.302   .     A
N652   O653    1.301   .     A
N655   O657    1.302   .     A
N655   O788    1.302   1_455 S
O656   N721    1.302   .     S
N658   O659    1.301   .     A
N658   O660    1.301   .     A
O661   Zn667   2.004   .     S
O661   C663    1.281   .     A
O662   C663    1.282   .     A
O662   Zn668   1.997   .     S
C663   C701    1.417   .     S
O664   Zn667   1.958   .     S
O664   C666    1.294   .     A
O665   Zn668   1.900   .     S
O665   C666    1.293   .     A
C666   C690    1.465   .     S
Zn667  N706    2.009   .     S
Zn667  O671    1.900   .     S
Zn667  O669    1.997   .     S
Zn668  O672    1.958   .     S
Zn668  N711    2.009   .     S
Zn668  O670    2.004   .     S
O669   C673    1.287   .     A
O670   C673    1.280   .     A
O671   C674    1.297   .     A
O672   C674    1.286   .     A
C673   C696    1.423   .     S
C674   C678    1.455   .     S
C675   C689    1.390   .     A
H676   C686    1.084   .     S
H677   C81     1.085   1_556 S
C678   C689    1.414   .     A
C678   C688    1.405   .     A
C679   C680    1.402   .     A
C679   H691    1.083   .     S
C679   C690    1.401   .     A
C680   C87     1.405   1_556 S
C680   N127    1.441   1_556 S
C681   H692    1.081   .     S
C682   C683    1.406   .     A
C682   C87     1.414   1_556 S
C682   C90     1.419   1_556 S
C683   C687    1.408   .     A
C683   C690    1.407   .     A
C684   C688    1.408   .     A
C685   C686    1.389   .     A
C685   C81     1.394   1_556 S
C685   C90     1.420   1_556 S
C686   C687    1.381   .     A
C687   H693    1.074   .     S
C688   N718    1.449   .     S
C689   N712    1.433   .     S
C694   N724    1.439   .     S
C694   C701    1.404   .     A
C694   C893    1.387   .     S
C695   N715    1.432   .     S
C695   C696    1.410   .     A
C695   C1090   1.387   1_545 S
C696   C697    1.394   .     A
C697   H698    1.084   .     S
C697   C1095   1.371   1_545 S
C699   H700    1.084   .     S
C699   C701    1.393   .     A
C699   C895    1.371   .     S
C702   N711    1.366   .     A
C702   H703    1.081   .     S
C702   C770    1.416   .     S
C704   N706    1.367   .     A
C704   H705    1.082   .     S
N706   C707    1.366   .     A
C707   H708    1.082   .     S
C709   N711    1.366   .     A
C709   H710    1.079   .     S
C709   C773    1.416   .     S
N712   O714    1.300   .     A
N712   O713    1.301   .     A
N715   O716    1.302   .     A
N715   O717    1.301   .     A
N718   O720    1.302   .     A
N718   O719    1.301   .     A
N721   O723    1.302   .     A
O722   N787    1.302   .     S
N724   O725    1.301   .     A
N724   O726    1.301   .     A
O727   Zn733   2.004   .     S
O727   C729    1.281   .     A
O728   C729    1.282   .     A
O728   Zn734   1.997   .     S
C729   C767    1.417   .     S
O730   Zn733   1.958   .     S
O730   C732    1.294   .     A
O731   Zn734   1.900   .     S
O731   C732    1.293   .     A
C732   C756    1.465   .     S
Zn733  N772    2.009   .     S
Zn733  O737    1.900   .     S
Zn733  O735    1.997   .     S
Zn734  O738    1.958   .     S
Zn734  N777    2.009   .     S
Zn734  O736    2.004   .     S
O735   C739    1.287   .     A
O736   C739    1.280   .     A
O737   C740    1.297   .     A
O738   C740    1.286   .     A
C739   C762    1.423   .     S
C740   C744    1.455   .     S
C741   C755    1.390   .     A
H742   C752    1.084   .     S
H743   C147    1.085   1_556 S
C744   C755    1.414   .     A
C744   C754    1.405   .     A
C745   C746    1.402   .     A
C745   H757    1.083   .     S
C745   C756    1.401   .     A
C746   C153    1.405   1_556 S
C746   N193    1.441   1_556 S
C747   H758    1.081   .     S
C748   C749    1.406   .     A
C748   C153    1.414   1_556 S
C748   C156    1.419   1_556 S
C749   C753    1.408   .     A
C749   C756    1.407   .     A
C750   C754    1.408   .     A
C751   C752    1.389   .     A
C751   C147    1.394   1_556 S
C751   C156    1.420   1_556 S
C752   C753    1.381   .     A
C753   H759    1.074   .     S
C754   N784    1.449   .     S
C755   N778    1.433   .     S
C760   N790    1.439   .     S
C760   C767    1.404   .     A
C760   C959    1.387   .     S
C761   N781    1.432   .     S
C761   C762    1.410   .     A
C761   C1156   1.387   1_545 S
C762   C763    1.394   .     A
C763   H764    1.084   .     S
C763   C1161   1.371   1_545 S
C765   H766    1.084   .     S
C765   C767    1.393   .     A
C765   C961    1.371   .     S
C768   N777    1.366   .     A
C768   H769    1.081   .     S
C768   C638    1.416   1_655 S
C770   N772    1.367   .     A
C770   H771    1.082   .     S
N772   C773    1.366   .     A
C773   H774    1.082   .     S
C775   N777    1.366   .     A
C775   H776    1.079   .     S
C775   C641    1.416   1_655 S
N778   O780    1.300   .     A
N778   O779    1.301   .     A
N781   O782    1.302   .     A
N781   O783    1.301   .     A
N784   O786    1.302   .     A
N784   O785    1.301   .     A
N787   O789    1.302   .     A
O788   N655    1.302   1_655 S
N790   O791    1.301   .     A
N790   O792    1.301   .     A
O793   Zn799   2.004   .     S
O793   C795    1.281   .     A
O794   C795    1.282   .     A
O794   Zn800   1.997   .     S
C795   C833    1.417   .     S
O796   Zn799   1.958   .     S
O796   C798    1.294   .     A
O797   Zn800   1.900   .     S
O797   C798    1.293   .     A
C798   C822    1.465   .     S
Zn799  N838    2.009   .     S
Zn799  O803    1.900   .     S
Zn799  O801    1.997   .     S
Zn800  O804    1.958   .     S
Zn800  N843    2.009   .     S
Zn800  O802    2.004   .     S
O801   C805    1.287   .     A
O802   C805    1.280   .     A
O803   C806    1.297   .     A
O804   C806    1.286   .     A
C805   C828    1.423   .     S
C806   C810    1.455   .     S
C807   C821    1.390   .     A
H808   C818    1.084   .     S
H809   C213    1.085   1_556 S
C810   C821    1.414   .     A
C810   C820    1.405   .     A
C811   C812    1.402   .     A
C811   H823    1.083   .     S
C811   C822    1.401   .     A
C812   C219    1.405   1_556 S
C812   N259    1.441   1_556 S
C813   H824    1.081   .     S
C814   C815    1.406   .     A
C814   C219    1.414   1_556 S
C814   C222    1.419   1_556 S
C815   C819    1.408   .     A
C815   C822    1.407   .     A
C816   C820    1.408   .     A
C817   C818    1.389   .     A
C817   C213    1.394   1_556 S
C817   C222    1.420   1_556 S
C818   C819    1.381   .     A
C819   H825    1.074   .     S
C820   N850    1.449   .     S
C821   N844    1.433   .     S
C826   N856    1.439   .     S
C826   C833    1.404   .     A
C826   C1025   1.387   .     S
C827   N847    1.432   .     S
C827   C828    1.410   .     A
C828   C829    1.394   .     A
C829   H830    1.084   .     S
C831   H832    1.084   .     S
C831   C833    1.393   .     A
C831   C1027   1.371   .     S
C834   N843    1.366   .     A
C834   H835    1.081   .     S
C834   C902    1.416   .     S
C836   N838    1.367   .     A
C836   H837    1.082   .     S
C836   C966    1.416   1_455 S
N838   C839    1.366   .     A
C839   H840    1.082   .     S
C839   C973    1.416   1_455 S
C841   N843    1.366   .     A
C841   H842    1.079   .     S
C841   C905    1.416   .     S
N844   O846    1.300   .     A
N844   O845    1.301   .     A
N847   O848    1.302   .     A
N847   O849    1.301   .     A
N850   O852    1.302   .     A
N850   O851    1.301   .     A
N853   O855    1.302   .     A
N853   O986    1.302   1_455 S
O854   N919    1.302   .     S
N856   O857    1.301   .     A
N856   O858    1.301   .     A
O859   Zn865   2.004   .     S
O859   C861    1.281   .     A
O860   C861    1.282   .     A
O860   Zn866   1.997   .     S
C861   C899    1.417   .     S
O862   Zn865   1.958   .     S
O862   C864    1.294   .     A
O863   Zn866   1.900   .     S
O863   C864    1.293   .     A
C864   C888    1.465   .     S
Zn865  N904    2.009   .     S
Zn865  O869    1.900   .     S
Zn865  O867    1.997   .     S
Zn866  O870    1.958   .     S
Zn866  N909    2.009   .     S
Zn866  O868    2.004   .     S
O867   C871    1.287   .     A
O868   C871    1.280   .     A
O869   C872    1.297   .     A
O870   C872    1.286   .     A
C871   C894    1.423   .     S
C872   C876    1.455   .     S
C873   C887    1.390   .     A
H874   C884    1.084   .     S
H875   C279    1.085   1_556 S
C876   C887    1.414   .     A
C876   C886    1.405   .     A
C877   C878    1.402   .     A
C877   H889    1.083   .     S
C877   C888    1.401   .     A
C878   C285    1.405   1_556 S
C878   N325    1.441   1_556 S
C879   H890    1.081   .     S
C880   C881    1.406   .     A
C880   C285    1.414   1_556 S
C880   C288    1.419   1_556 S
C881   C885    1.408   .     A
C881   C888    1.407   .     A
C882   C886    1.408   .     A
C883   C884    1.389   .     A
C883   C279    1.394   1_556 S
C883   C288    1.420   1_556 S
C884   C885    1.381   .     A
C885   H891    1.074   .     S
C886   N916    1.449   .     S
C887   N910    1.433   .     S
C892   N922    1.439   .     S
C892   C899    1.404   .     A
C892   C1091   1.387   .     S
C893   N913    1.432   .     S
C893   C894    1.410   .     A
C894   C895    1.394   .     A
C895   H896    1.084   .     S
C897   H898    1.084   .     S
C897   C899    1.393   .     A
C897   C1093   1.371   .     S
C900   N909    1.366   .     A
C900   H901    1.081   .     S
C900   C968    1.416   .     S
C902   N904    1.367   .     A
C902   H903    1.082   .     S
N904   C905    1.366   .     A
C905   H906    1.082   .     S
C907   N909    1.366   .     A
C907   H908    1.079   .     S
C907   C971    1.416   .     S
N910   O912    1.300   .     A
N910   O911    1.301   .     A
N913   O914    1.302   .     A
N913   O915    1.301   .     A
N916   O918    1.302   .     A
N916   O917    1.301   .     A
N919   O921    1.302   .     A
O920   N985    1.302   .     S
N922   O923    1.301   .     A
N922   O924    1.301   .     A
O925   Zn931   2.004   .     S
O925   C927    1.281   .     A
O926   C927    1.282   .     A
O926   Zn932   1.997   .     S
C927   C965    1.417   .     S
O928   Zn931   1.958   .     S
O928   C930    1.294   .     A
O929   Zn932   1.900   .     S
O929   C930    1.293   .     A
C930   C954    1.465   .     S
Zn931  N970    2.009   .     S
Zn931  O935    1.900   .     S
Zn931  O933    1.997   .     S
Zn932  O936    1.958   .     S
Zn932  N975    2.009   .     S
Zn932  O934    2.004   .     S
O933   C937    1.287   .     A
O934   C937    1.280   .     A
O935   C938    1.297   .     A
O936   C938    1.286   .     A
C937   C960    1.423   .     S
C938   C942    1.455   .     S
C939   C953    1.390   .     A
H940   C950    1.084   .     S
H941   C345    1.085   1_556 S
C942   C953    1.414   .     A
C942   C952    1.405   .     A
C943   C944    1.402   .     A
C943   H955    1.083   .     S
C943   C954    1.401   .     A
C944   C351    1.405   1_556 S
C944   N391    1.441   1_556 S
C945   H956    1.081   .     S
C946   C947    1.406   .     A
C946   C351    1.414   1_556 S
C946   C354    1.419   1_556 S
C947   C951    1.408   .     A
C947   C954    1.407   .     A
C948   C952    1.408   .     A
C949   C950    1.389   .     A
C949   C345    1.394   1_556 S
C949   C354    1.420   1_556 S
C950   C951    1.381   .     A
C951   H957    1.074   .     S
C952   N982    1.449   .     S
C953   N976    1.433   .     S
C958   N988    1.439   .     S
C958   C965    1.404   .     A
C958   C1157   1.387   .     S
C959   N979    1.432   .     S
C959   C960    1.410   .     A
C960   C961    1.394   .     A
C961   H962    1.084   .     S
C963   H964    1.084   .     S
C963   C965    1.393   .     A
C963   C1159   1.371   .     S
C966   N975    1.366   .     A
C966   H967    1.081   .     S
C966   C836    1.416   1_655 S
C968   N970    1.367   .     A
C968   H969    1.082   .     S
N970   C971    1.366   .     A
C971   H972    1.082   .     S
C973   N975    1.366   .     A
C973   H974    1.079   .     S
C973   C839    1.416   1_655 S
N976   O978    1.300   .     A
N976   O977    1.301   .     A
N979   O980    1.302   .     A
N979   O981    1.301   .     A
N982   O984    1.302   .     A
N982   O983    1.301   .     A
N985   O987    1.302   .     A
O986   N853    1.302   1_655 S
N988   O989    1.301   .     A
N988   O990    1.301   .     A
O991   Zn997   2.004   .     S
O991   C993    1.281   .     A
O992   C993    1.282   .     A
O992   Zn998   1.997   .     S
C993   C1031   1.417   .     S
O994   Zn997   1.958   .     S
O994   C996    1.294   .     A
O995   Zn998   1.900   .     S
O995   C996    1.293   .     A
C996   C1020   1.465   .     S
Zn997  N1036   2.009   .     S
Zn997  O1001   1.900   .     S
Zn997  O999    1.997   .     S
Zn998  O1002   1.958   .     S
Zn998  N1041   2.009   .     S
Zn998  O1000   2.004   .     S
O999   C1003   1.287   .     A
O1000  C1003   1.280   .     A
O1001  C1004   1.297   .     A
O1002  C1004   1.286   .     A
C1003  C1026   1.423   .     S
C1004  C1008   1.455   .     S
C1005  C1019   1.390   .     A
H1006  C1016   1.084   .     S
H1007  C411    1.085   1_556 S
C1008  C1019   1.414   .     A
C1008  C1018   1.405   .     A
C1009  C1010   1.402   .     A
C1009  H1021   1.083   .     S
C1009  C1020   1.401   .     A
C1010  C417    1.405   1_556 S
C1010  N457    1.441   1_556 S
C1011  H1022   1.081   .     S
C1012  C1013   1.406   .     A
C1012  C417    1.414   1_556 S
C1012  C420    1.419   1_556 S
C1013  C1017   1.408   .     A
C1013  C1020   1.407   .     A
C1014  C1018   1.408   .     A
C1015  C1016   1.389   .     A
C1015  C411    1.394   1_556 S
C1015  C420    1.420   1_556 S
C1016  C1017   1.381   .     A
C1017  H1023   1.074   .     S
C1018  N1048   1.449   .     S
C1019  N1042   1.433   .     S
C1024  N1054   1.439   .     S
C1024  C1031   1.404   .     A
C1024  C629    1.387   1_565 S
C1025  N1045   1.432   .     S
C1025  C1026   1.410   .     A
C1026  C1027   1.394   .     A
C1027  H1028   1.084   .     S
C1029  H1030   1.084   .     S
C1029  C1031   1.393   .     A
C1029  C631    1.371   1_565 S
C1032  N1041   1.366   .     A
C1032  H1033   1.081   .     S
C1032  C1100   1.416   .     S
C1034  N1036   1.367   .     A
C1034  H1035   1.082   .     S
C1034  C1164   1.416   1_455 S
N1036  C1037   1.366   .     A
C1037  H1038   1.082   .     S
C1037  C1171   1.416   1_455 S
C1039  N1041   1.366   .     A
C1039  H1040   1.079   .     S
C1039  C1103   1.416   .     S
N1042  O1044   1.300   .     A
N1042  O1043   1.301   .     A
N1045  O1046   1.302   .     A
N1045  O1047   1.301   .     A
N1048  O1050   1.302   .     A
N1048  O1049   1.301   .     A
N1051  O1053   1.302   .     A
N1051  O1184   1.302   1_455 S
O1052  N1117   1.302   .     S
N1054  O1055   1.301   .     A
N1054  O1056   1.301   .     A
O1057  Zn1063  2.004   .     S
O1057  C1059   1.281   .     A
O1058  C1059   1.282   .     A
O1058  Zn1064  1.997   .     S
C1059  C1097   1.417   .     S
O1060  Zn1063  1.958   .     S
O1060  C1062   1.294   .     A
O1061  Zn1064  1.900   .     S
O1061  C1062   1.293   .     A
C1062  C1086   1.465   .     S
Zn1063 N1102   2.009   .     S
Zn1063 O1067   1.900   .     S
Zn1063 O1065   1.997   .     S
Zn1064 O1068   1.958   .     S
Zn1064 N1107   2.009   .     S
Zn1064 O1066   2.004   .     S
O1065  C1069   1.287   .     A
O1066  C1069   1.280   .     A
O1067  C1070   1.297   .     A
O1068  C1070   1.286   .     A
C1069  C1092   1.423   .     S
C1070  C1074   1.455   .     S
C1071  C1085   1.390   .     A
H1072  C1082   1.084   .     S
H1073  C477    1.085   1_556 S
C1074  C1085   1.414   .     A
C1074  C1084   1.405   .     A
C1075  C1076   1.402   .     A
C1075  H1087   1.083   .     S
C1075  C1086   1.401   .     A
C1076  C483    1.405   1_556 S
C1076  N523    1.441   1_556 S
C1077  H1088   1.081   .     S
C1078  C1079   1.406   .     A
C1078  C483    1.414   1_556 S
C1078  C486    1.419   1_556 S
C1079  C1083   1.408   .     A
C1079  C1086   1.407   .     A
C1080  C1084   1.408   .     A
C1081  C1082   1.389   .     A
C1081  C477    1.394   1_556 S
C1081  C486    1.420   1_556 S
C1082  C1083   1.381   .     A
C1083  H1089   1.074   .     S
C1084  N1114   1.449   .     S
C1085  N1108   1.433   .     S
C1090  N1120   1.439   .     S
C1090  C1097   1.404   .     A
C1090  C695    1.387   1_565 S
C1091  N1111   1.432   .     S
C1091  C1092   1.410   .     A
C1092  C1093   1.394   .     A
C1093  H1094   1.084   .     S
C1095  H1096   1.084   .     S
C1095  C1097   1.393   .     A
C1095  C697    1.371   1_565 S
C1098  N1107   1.366   .     A
C1098  H1099   1.081   .     S
C1098  C1166   1.416   .     S
C1100  N1102   1.367   .     A
C1100  H1101   1.082   .     S
N1102  C1103   1.366   .     A
C1103  H1104   1.082   .     S
C1105  N1107   1.366   .     A
C1105  H1106   1.079   .     S
C1105  C1169   1.416   .     S
N1108  O1110   1.300   .     A
N1108  O1109   1.301   .     A
N1111  O1112   1.302   .     A
N1111  O1113   1.301   .     A
N1114  O1116   1.302   .     A
N1114  O1115   1.301   .     A
N1117  O1119   1.302   .     A
O1118  N1183   1.302   .     S
N1120  O1121   1.301   .     A
N1120  O1122   1.301   .     A
O1123  Zn1129  2.004   .     S
O1123  C1125   1.281   .     A
O1124  C1125   1.282   .     A
O1124  Zn1130  1.997   .     S
C1125  C1163   1.417   .     S
O1126  Zn1129  1.958   .     S
O1126  C1128   1.294   .     A
O1127  Zn1130  1.900   .     S
O1127  C1128   1.293   .     A
C1128  C1152   1.465   .     S
Zn1129 N1168   2.009   .     S
Zn1129 O1133   1.900   .     S
Zn1129 O1131   1.997   .     S
Zn1130 O1134   1.958   .     S
Zn1130 N1173   2.009   .     S
Zn1130 O1132   2.004   .     S
O1131  C1135   1.287   .     A
O1132  C1135   1.280   .     A
O1133  C1136   1.297   .     A
O1134  C1136   1.286   .     A
C1135  C1158   1.423   .     S
C1136  C1140   1.455   .     S
C1137  C1151   1.390   .     A
H1138  C1148   1.084   .     S
H1139  C543    1.085   1_556 S
C1140  C1151   1.414   .     A
C1140  C1150   1.405   .     A
C1141  C1142   1.402   .     A
C1141  H1153   1.083   .     S
C1141  C1152   1.401   .     A
C1142  C549    1.405   1_556 S
C1142  N589    1.441   1_556 S
C1143  H1154   1.081   .     S
C1144  C1145   1.406   .     A
C1144  C549    1.414   1_556 S
C1144  C552    1.419   1_556 S
C1145  C1149   1.408   .     A
C1145  C1152   1.407   .     A
C1146  C1150   1.408   .     A
C1147  C1148   1.389   .     A
C1147  C543    1.394   1_556 S
C1147  C552    1.420   1_556 S
C1148  C1149   1.381   .     A
C1149  H1155   1.074   .     S
C1150  N1180   1.449   .     S
C1151  N1174   1.433   .     S
C1156  N1186   1.439   .     S
C1156  C1163   1.404   .     A
C1156  C761    1.387   1_565 S
C1157  N1177   1.432   .     S
C1157  C1158   1.410   .     A
C1158  C1159   1.394   .     A
C1159  H1160   1.084   .     S
C1161  H1162   1.084   .     S
C1161  C1163   1.393   .     A
C1161  C763    1.371   1_565 S
C1164  N1173   1.366   .     A
C1164  H1165   1.081   .     S
C1164  C1034   1.416   1_655 S
C1166  N1168   1.367   .     A
C1166  H1167   1.082   .     S
N1168  C1169   1.366   .     A
C1169  H1170   1.082   .     S
C1171  N1173   1.366   .     A
C1171  H1172   1.079   .     S
C1171  C1037   1.416   1_655 S
N1174  O1176   1.300   .     A
N1174  O1175   1.301   .     A
N1177  O1178   1.302   .     A
N1177  O1179   1.301   .     A
N1180  O1182   1.302   .     A
N1180  O1181   1.301   .     A
N1183  O1185   1.302   .     A
O1184  N1051   1.302   1_655 S
N1186  O1187   1.301   .     A
N1186  O1188   1.301   .     A
