data_str_m3_o10_o17_pcu_sym.93
_audit_creation_date              2020-01-03
_audit_creation_method            'Materials Studio'
_symmetry_space_group_name_H-M    'P1'
_symmetry_Int_Tables_number       1
_symmetry_cell_setting            triclinic
loop_
_symmetry_equiv_pos_as_xyz
  x,y,z
_cell_length_a                    23.3165
_cell_length_b                    25.6631
_cell_length_c                    29.9039
_cell_angle_alpha                 90.9218
_cell_angle_beta                  86.0427
_cell_angle_gamma                 93.7099
loop_
_atom_site_label
_atom_site_type_symbol
_atom_site_fract_x
_atom_site_fract_y
_atom_site_fract_z
_atom_site_U_iso_or_equiv
_atom_site_adp_type
_atom_site_occupancy
C1     C     0.18193   0.26490   0.24890   0.00000  Uiso   1.00
C2     C     0.18708   0.21275   0.40585   0.00000  Uiso   1.00
C3     C     0.16403   0.16687   0.11625   0.00000  Uiso   1.00
C4     C     0.16930   0.16646   0.38375   0.00000  Uiso   1.00
C5     C     0.18013   0.21338   0.09354   0.00000  Uiso   1.00
C6     C     0.15320   0.11995   0.40647   0.00000  Uiso   1.00
C7     C     0.17987   0.21374   0.04690   0.00000  Uiso   1.00
C8     C     0.15346   0.11959   0.45310   0.00000  Uiso   1.00
C9     C     0.16546   0.16677   0.02356   0.00000  Uiso   1.00
C10    C     0.16787   0.16656   0.47644   0.00000  Uiso   1.00
C11    C     0.14896   0.11998   0.04715   0.00000  Uiso   1.00
C12    C     0.15140   0.06843   0.25110   0.00000  Uiso   1.00
C13    C     0.18437   0.21336   0.45285   0.00000  Uiso   1.00
C14    C     0.19404   0.25996   0.02309   0.00000  Uiso   1.00
C15    C     0.13929   0.07337   0.47691   0.00000  Uiso   1.00
C16    C     0.12559   0.07372   0.12108   0.00000  Uiso   1.00
C17    C     0.20775   0.25961   0.37892   0.00000  Uiso   1.00
C18    C     0.19685   0.26048   0.11849   0.00000  Uiso   1.00
C19    C     0.13648   0.07286   0.38151   0.00000  Uiso   1.00
C20    C     0.19569   0.25987   0.47690   0.00000  Uiso   1.00
C21    C     0.13764   0.07346   0.02310   0.00000  Uiso   1.00
C22    C     0.18997   0.31943   0.24845   0.00000  Uiso   1.00
C23    C     0.14336   0.01390   0.25155   0.00000  Uiso   1.00
C24    C     0.16748   0.16656   0.33619   0.00000  Uiso   1.00
C25    C     0.16585   0.16677   0.16381   0.00000  Uiso   1.00
C26    C     0.14626   0.12058   0.09415   0.00000  Uiso   1.00
H27    H     0.20387   0.29682   0.03990   0.00000  Uiso   1.00
H28    H     0.18522   0.26984   0.35006   0.00000  Uiso   1.00
H29    H     0.12946   0.03652   0.46010   0.00000  Uiso   1.00
H30    H     0.20519   0.29699   0.46061   0.00000  Uiso   1.00
H31    H     0.12814   0.03634   0.03939   0.00000  Uiso   1.00
H32    H     0.23398   0.00317   0.24550   0.00000  Uiso   1.00
H33    H     0.09935   0.33016   0.25450   0.00000  Uiso   1.00
H34    H     0.00459   0.12765   0.21612   0.00000  Uiso   1.00
H35    H     0.32875   0.20569   0.28388   0.00000  Uiso   1.00
H36    H     0.14811   0.06349   0.14994   0.00000  Uiso   1.00
N37    N     0.31678   0.15265   0.23783   0.00000  Uiso   1.00
N38    N     0.01656   0.18068   0.26217   0.00000  Uiso   1.00
N39    N     0.21023   0.29795   0.13823   0.00000  Uiso   1.00
N40    N     0.12310   0.03538   0.36177   0.00000  Uiso   1.00
O41    O     0.12975   0.24619   0.25299   0.00000  Uiso   1.00
O42    O     0.25177   0.28525   0.38721   0.00000  Uiso   1.00
O43    O     0.20358   0.08714   0.24702   0.00000  Uiso   1.00
O44    O     0.22613   0.23721   0.24519   0.00000  Uiso   1.00
O45    O     0.10720   0.09613   0.25482   0.00000  Uiso   1.00
O46    O     0.11847   0.17117   0.31998   0.00000  Uiso   1.00
O47    O     0.21486   0.16216   0.18003   0.00000  Uiso   1.00
O48    O     0.21485   0.16219   0.31218   0.00000  Uiso   1.00
O49    O     0.11848   0.17115   0.18783   0.00000  Uiso   1.00
O50    O     0.08156   0.04808   0.11279   0.00000  Uiso   1.00
Zn51   Zn    0.10231   0.17266   0.25521   0.00000  Uiso   1.00
Zn52   Zn    0.23102   0.16067   0.24479   0.00000  Uiso   1.00
C53    C     0.51527   0.26490   0.24890   0.00000  Uiso   1.00
C54    C     0.52041   0.21275   0.40585   0.00000  Uiso   1.00
C55    C     0.49736   0.16687   0.11625   0.00000  Uiso   1.00
C56    C     0.50264   0.16646   0.38375   0.00000  Uiso   1.00
C57    C     0.51347   0.21338   0.09354   0.00000  Uiso   1.00
C58    C     0.48653   0.11995   0.40647   0.00000  Uiso   1.00
C59    C     0.51321   0.21374   0.04690   0.00000  Uiso   1.00
C60    C     0.48679   0.11959   0.45310   0.00000  Uiso   1.00
C61    C     0.49880   0.16677   0.02356   0.00000  Uiso   1.00
C62    C     0.50120   0.16656   0.47644   0.00000  Uiso   1.00
C63    C     0.48229   0.11998   0.04715   0.00000  Uiso   1.00
C64    C     0.48473   0.06843   0.25110   0.00000  Uiso   1.00
C65    C     0.51771   0.21336   0.45285   0.00000  Uiso   1.00
C66    C     0.52737   0.25996   0.02309   0.00000  Uiso   1.00
C67    C     0.47263   0.07337   0.47691   0.00000  Uiso   1.00
C68    C     0.45892   0.07372   0.12108   0.00000  Uiso   1.00
C69    C     0.54108   0.25961   0.37892   0.00000  Uiso   1.00
C70    C     0.53019   0.26048   0.11849   0.00000  Uiso   1.00
C71    C     0.46981   0.07286   0.38151   0.00000  Uiso   1.00
C72    C     0.52902   0.25987   0.47690   0.00000  Uiso   1.00
C73    C     0.47098   0.07346   0.02310   0.00000  Uiso   1.00
C74    C     0.52330   0.31943   0.24845   0.00000  Uiso   1.00
C75    C     0.47670   0.01390   0.25155   0.00000  Uiso   1.00
C76    C     0.50081   0.16656   0.33619   0.00000  Uiso   1.00
C77    C     0.49918   0.16677   0.16381   0.00000  Uiso   1.00
C78    C     0.47959   0.12058   0.09415   0.00000  Uiso   1.00
H79    H     0.53720   0.29682   0.03990   0.00000  Uiso   1.00
H80    H     0.51856   0.26984   0.35006   0.00000  Uiso   1.00
H81    H     0.46280   0.03652   0.46010   0.00000  Uiso   1.00
H82    H     0.53852   0.29699   0.46061   0.00000  Uiso   1.00
H83    H     0.46148   0.03634   0.03939   0.00000  Uiso   1.00
H84    H     0.56731   0.00317   0.24550   0.00000  Uiso   1.00
H85    H     0.43269   0.33016   0.25450   0.00000  Uiso   1.00
H86    H     0.33792   0.12765   0.21612   0.00000  Uiso   1.00
H87    H     0.66208   0.20569   0.28388   0.00000  Uiso   1.00
H88    H     0.48144   0.06349   0.14994   0.00000  Uiso   1.00
N89    N     0.65011   0.15265   0.23783   0.00000  Uiso   1.00
N90    N     0.34989   0.18068   0.26217   0.00000  Uiso   1.00
N91    N     0.54356   0.29795   0.13823   0.00000  Uiso   1.00
N92    N     0.45644   0.03538   0.36177   0.00000  Uiso   1.00
O93    O     0.46308   0.24619   0.25299   0.00000  Uiso   1.00
O94    O     0.58510   0.28525   0.38721   0.00000  Uiso   1.00
O95    O     0.53692   0.08714   0.24702   0.00000  Uiso   1.00
O96    O     0.55946   0.23721   0.24519   0.00000  Uiso   1.00
O97    O     0.44054   0.09613   0.25482   0.00000  Uiso   1.00
O98    O     0.45181   0.17117   0.31998   0.00000  Uiso   1.00
O99    O     0.54819   0.16216   0.18003   0.00000  Uiso   1.00
O100   O     0.54819   0.16219   0.31218   0.00000  Uiso   1.00
O101   O     0.45181   0.17115   0.18783   0.00000  Uiso   1.00
O102   O     0.41490   0.04808   0.11279   0.00000  Uiso   1.00
Zn103  Zn    0.43565   0.17266   0.25521   0.00000  Uiso   1.00
Zn104  Zn    0.56435   0.16067   0.24479   0.00000  Uiso   1.00
C105   C     0.84860   0.26490   0.24890   0.00000  Uiso   1.00
C106   C     0.85374   0.21275   0.40585   0.00000  Uiso   1.00
C107   C     0.83070   0.16687   0.11625   0.00000  Uiso   1.00
C108   C     0.83597   0.16646   0.38375   0.00000  Uiso   1.00
C109   C     0.84680   0.21338   0.09354   0.00000  Uiso   1.00
C110   C     0.81987   0.11995   0.40647   0.00000  Uiso   1.00
C111   C     0.84654   0.21374   0.04690   0.00000  Uiso   1.00
C112   C     0.82013   0.11959   0.45310   0.00000  Uiso   1.00
C113   C     0.83213   0.16677   0.02356   0.00000  Uiso   1.00
C114   C     0.83454   0.16656   0.47644   0.00000  Uiso   1.00
C115   C     0.81563   0.11998   0.04715   0.00000  Uiso   1.00
C116   C     0.81807   0.06843   0.25110   0.00000  Uiso   1.00
C117   C     0.85104   0.21336   0.45285   0.00000  Uiso   1.00
C118   C     0.86071   0.25996   0.02309   0.00000  Uiso   1.00
C119   C     0.80596   0.07337   0.47691   0.00000  Uiso   1.00
C120   C     0.79225   0.07372   0.12108   0.00000  Uiso   1.00
C121   C     0.87441   0.25961   0.37892   0.00000  Uiso   1.00
C122   C     0.86352   0.26048   0.11849   0.00000  Uiso   1.00
C123   C     0.80315   0.07286   0.38151   0.00000  Uiso   1.00
C124   C     0.86236   0.25987   0.47690   0.00000  Uiso   1.00
C125   C     0.80431   0.07346   0.02310   0.00000  Uiso   1.00
C126   C     0.85664   0.31943   0.24845   0.00000  Uiso   1.00
C127   C     0.81003   0.01390   0.25155   0.00000  Uiso   1.00
C128   C     0.83415   0.16656   0.33619   0.00000  Uiso   1.00
C129   C     0.83252   0.16677   0.16381   0.00000  Uiso   1.00
C130   C     0.81292   0.12058   0.09415   0.00000  Uiso   1.00
H131   H     0.87054   0.29682   0.03990   0.00000  Uiso   1.00
H132   H     0.85189   0.26984   0.35006   0.00000  Uiso   1.00
H133   H     0.79613   0.03652   0.46010   0.00000  Uiso   1.00
H134   H     0.87186   0.29699   0.46061   0.00000  Uiso   1.00
H135   H     0.79481   0.03634   0.03939   0.00000  Uiso   1.00
H136   H     0.90065   0.00317   0.24550   0.00000  Uiso   1.00
H137   H     0.76602   0.33016   0.25450   0.00000  Uiso   1.00
H138   H     0.67125   0.12765   0.21612   0.00000  Uiso   1.00
H139   H     0.99541   0.20569   0.28388   0.00000  Uiso   1.00
H140   H     0.81478   0.06349   0.14994   0.00000  Uiso   1.00
N141   N     0.98344   0.15265   0.23783   0.00000  Uiso   1.00
N142   N     0.68322   0.18068   0.26217   0.00000  Uiso   1.00
N143   N     0.87690   0.29795   0.13823   0.00000  Uiso   1.00
N144   N     0.78977   0.03538   0.36177   0.00000  Uiso   1.00
O145   O     0.79642   0.24619   0.25299   0.00000  Uiso   1.00
O146   O     0.91844   0.28525   0.38721   0.00000  Uiso   1.00
O147   O     0.87025   0.08714   0.24702   0.00000  Uiso   1.00
O148   O     0.89280   0.23721   0.24519   0.00000  Uiso   1.00
O149   O     0.77387   0.09613   0.25482   0.00000  Uiso   1.00
O150   O     0.78514   0.17117   0.31998   0.00000  Uiso   1.00
O151   O     0.88153   0.16216   0.18003   0.00000  Uiso   1.00
O152   O     0.88152   0.16219   0.31218   0.00000  Uiso   1.00
O153   O     0.78515   0.17115   0.18783   0.00000  Uiso   1.00
O154   O     0.74823   0.04808   0.11279   0.00000  Uiso   1.00
Zn155  Zn    0.76898   0.17266   0.25521   0.00000  Uiso   1.00
Zn156  Zn    0.89769   0.16067   0.24479   0.00000  Uiso   1.00
C157   C     0.18193   0.59823   0.24890   0.00000  Uiso   1.00
C158   C     0.18708   0.54608   0.40585   0.00000  Uiso   1.00
C159   C     0.16403   0.50021   0.11625   0.00000  Uiso   1.00
C160   C     0.16930   0.49979   0.38375   0.00000  Uiso   1.00
C161   C     0.18013   0.54671   0.09354   0.00000  Uiso   1.00
C162   C     0.15320   0.45329   0.40647   0.00000  Uiso   1.00
C163   C     0.17987   0.54707   0.04690   0.00000  Uiso   1.00
C164   C     0.15346   0.45293   0.45310   0.00000  Uiso   1.00
C165   C     0.16546   0.50010   0.02356   0.00000  Uiso   1.00
C166   C     0.16787   0.49990   0.47644   0.00000  Uiso   1.00
C167   C     0.14896   0.45331   0.04715   0.00000  Uiso   1.00
C168   C     0.15140   0.40177   0.25110   0.00000  Uiso   1.00
C169   C     0.18437   0.54669   0.45285   0.00000  Uiso   1.00
C170   C     0.19404   0.59330   0.02309   0.00000  Uiso   1.00
C171   C     0.13929   0.40670   0.47691   0.00000  Uiso   1.00
C172   C     0.12559   0.40706   0.12108   0.00000  Uiso   1.00
C173   C     0.20775   0.59294   0.37892   0.00000  Uiso   1.00
C174   C     0.19685   0.59381   0.11849   0.00000  Uiso   1.00
C175   C     0.13648   0.40619   0.38151   0.00000  Uiso   1.00
C176   C     0.19569   0.59320   0.47690   0.00000  Uiso   1.00
C177   C     0.13764   0.40680   0.02310   0.00000  Uiso   1.00
C178   C     0.18997   0.65277   0.24845   0.00000  Uiso   1.00
C179   C     0.14336   0.34723   0.25155   0.00000  Uiso   1.00
C180   C     0.16748   0.49989   0.33619   0.00000  Uiso   1.00
C181   C     0.16585   0.50011   0.16381   0.00000  Uiso   1.00
C182   C     0.14626   0.45392   0.09415   0.00000  Uiso   1.00
H183   H     0.20387   0.63015   0.03990   0.00000  Uiso   1.00
H184   H     0.18522   0.60317   0.35006   0.00000  Uiso   1.00
H185   H     0.12946   0.36985   0.46010   0.00000  Uiso   1.00
H186   H     0.20519   0.63033   0.46061   0.00000  Uiso   1.00
H187   H     0.12814   0.36967   0.03939   0.00000  Uiso   1.00
H188   H     0.23398   0.33651   0.24550   0.00000  Uiso   1.00
H189   H     0.09935   0.66349   0.25450   0.00000  Uiso   1.00
H190   H     0.00459   0.46098   0.21612   0.00000  Uiso   1.00
H191   H     0.32875   0.53902   0.28388   0.00000  Uiso   1.00
H192   H     0.14811   0.39683   0.14994   0.00000  Uiso   1.00
N193   N     0.31678   0.48598   0.23783   0.00000  Uiso   1.00
N194   N     0.01656   0.51402   0.26217   0.00000  Uiso   1.00
N195   N     0.21023   0.63129   0.13823   0.00000  Uiso   1.00
N196   N     0.12310   0.36871   0.36177   0.00000  Uiso   1.00
O197   O     0.12975   0.57952   0.25299   0.00000  Uiso   1.00
O198   O     0.25177   0.61859   0.38721   0.00000  Uiso   1.00
O199   O     0.20358   0.42048   0.24702   0.00000  Uiso   1.00
O200   O     0.22613   0.57054   0.24519   0.00000  Uiso   1.00
O201   O     0.10720   0.42946   0.25482   0.00000  Uiso   1.00
O202   O     0.11847   0.50450   0.31998   0.00000  Uiso   1.00
O203   O     0.21486   0.49550   0.18003   0.00000  Uiso   1.00
O204   O     0.21485   0.49552   0.31218   0.00000  Uiso   1.00
O205   O     0.11848   0.50448   0.18783   0.00000  Uiso   1.00
O206   O     0.08156   0.38141   0.11279   0.00000  Uiso   1.00
Zn207  Zn    0.10231   0.50600   0.25521   0.00000  Uiso   1.00
Zn208  Zn    0.23102   0.49400   0.24479   0.00000  Uiso   1.00
C209   C     0.51527   0.59823   0.24890   0.00000  Uiso   1.00
C210   C     0.52041   0.54608   0.40585   0.00000  Uiso   1.00
C211   C     0.49736   0.50021   0.11625   0.00000  Uiso   1.00
C212   C     0.50264   0.49979   0.38375   0.00000  Uiso   1.00
C213   C     0.51347   0.54671   0.09354   0.00000  Uiso   1.00
C214   C     0.48653   0.45329   0.40647   0.00000  Uiso   1.00
C215   C     0.51321   0.54707   0.04690   0.00000  Uiso   1.00
C216   C     0.48679   0.45293   0.45310   0.00000  Uiso   1.00
C217   C     0.49880   0.50010   0.02356   0.00000  Uiso   1.00
C218   C     0.50120   0.49990   0.47644   0.00000  Uiso   1.00
C219   C     0.48229   0.45331   0.04715   0.00000  Uiso   1.00
C220   C     0.48473   0.40177   0.25110   0.00000  Uiso   1.00
C221   C     0.51771   0.54669   0.45285   0.00000  Uiso   1.00
C222   C     0.52737   0.59330   0.02309   0.00000  Uiso   1.00
C223   C     0.47263   0.40670   0.47691   0.00000  Uiso   1.00
C224   C     0.45892   0.40706   0.12108   0.00000  Uiso   1.00
C225   C     0.54108   0.59294   0.37892   0.00000  Uiso   1.00
C226   C     0.53019   0.59381   0.11849   0.00000  Uiso   1.00
C227   C     0.46981   0.40619   0.38151   0.00000  Uiso   1.00
C228   C     0.52902   0.59320   0.47690   0.00000  Uiso   1.00
C229   C     0.47098   0.40680   0.02310   0.00000  Uiso   1.00
C230   C     0.52330   0.65277   0.24845   0.00000  Uiso   1.00
C231   C     0.47670   0.34723   0.25155   0.00000  Uiso   1.00
C232   C     0.50081   0.49989   0.33619   0.00000  Uiso   1.00
C233   C     0.49918   0.50011   0.16381   0.00000  Uiso   1.00
C234   C     0.47959   0.45392   0.09415   0.00000  Uiso   1.00
H235   H     0.53720   0.63015   0.03990   0.00000  Uiso   1.00
H236   H     0.51856   0.60317   0.35006   0.00000  Uiso   1.00
H237   H     0.46280   0.36985   0.46010   0.00000  Uiso   1.00
H238   H     0.53852   0.63033   0.46061   0.00000  Uiso   1.00
H239   H     0.46148   0.36967   0.03939   0.00000  Uiso   1.00
H240   H     0.56731   0.33651   0.24550   0.00000  Uiso   1.00
H241   H     0.43269   0.66349   0.25450   0.00000  Uiso   1.00
H242   H     0.33792   0.46098   0.21612   0.00000  Uiso   1.00
H243   H     0.66208   0.53902   0.28388   0.00000  Uiso   1.00
H244   H     0.48144   0.39683   0.14994   0.00000  Uiso   1.00
N245   N     0.65011   0.48598   0.23783   0.00000  Uiso   1.00
N246   N     0.34989   0.51402   0.26217   0.00000  Uiso   1.00
N247   N     0.54356   0.63129   0.13823   0.00000  Uiso   1.00
N248   N     0.45644   0.36871   0.36177   0.00000  Uiso   1.00
O249   O     0.46308   0.57952   0.25299   0.00000  Uiso   1.00
O250   O     0.58510   0.61859   0.38721   0.00000  Uiso   1.00
O251   O     0.53692   0.42048   0.24702   0.00000  Uiso   1.00
O252   O     0.55946   0.57054   0.24519   0.00000  Uiso   1.00
O253   O     0.44054   0.42946   0.25482   0.00000  Uiso   1.00
O254   O     0.45181   0.50450   0.31998   0.00000  Uiso   1.00
O255   O     0.54819   0.49550   0.18003   0.00000  Uiso   1.00
O256   O     0.54819   0.49552   0.31218   0.00000  Uiso   1.00
O257   O     0.45181   0.50448   0.18783   0.00000  Uiso   1.00
O258   O     0.41490   0.38141   0.11279   0.00000  Uiso   1.00
Zn259  Zn    0.43565   0.50600   0.25521   0.00000  Uiso   1.00
Zn260  Zn    0.56435   0.49400   0.24479   0.00000  Uiso   1.00
C261   C     0.84860   0.59823   0.24890   0.00000  Uiso   1.00
C262   C     0.85374   0.54608   0.40585   0.00000  Uiso   1.00
C263   C     0.83070   0.50021   0.11625   0.00000  Uiso   1.00
C264   C     0.83597   0.49979   0.38375   0.00000  Uiso   1.00
C265   C     0.84680   0.54671   0.09354   0.00000  Uiso   1.00
C266   C     0.81987   0.45329   0.40647   0.00000  Uiso   1.00
C267   C     0.84654   0.54707   0.04690   0.00000  Uiso   1.00
C268   C     0.82013   0.45293   0.45310   0.00000  Uiso   1.00
C269   C     0.83213   0.50010   0.02356   0.00000  Uiso   1.00
C270   C     0.83454   0.49990   0.47644   0.00000  Uiso   1.00
C271   C     0.81563   0.45331   0.04715   0.00000  Uiso   1.00
C272   C     0.81807   0.40177   0.25110   0.00000  Uiso   1.00
C273   C     0.85104   0.54669   0.45285   0.00000  Uiso   1.00
C274   C     0.86071   0.59330   0.02309   0.00000  Uiso   1.00
C275   C     0.80596   0.40670   0.47691   0.00000  Uiso   1.00
C276   C     0.79225   0.40706   0.12108   0.00000  Uiso   1.00
C277   C     0.87441   0.59294   0.37892   0.00000  Uiso   1.00
C278   C     0.86352   0.59381   0.11849   0.00000  Uiso   1.00
C279   C     0.80315   0.40619   0.38151   0.00000  Uiso   1.00
C280   C     0.86236   0.59320   0.47690   0.00000  Uiso   1.00
C281   C     0.80431   0.40680   0.02310   0.00000  Uiso   1.00
C282   C     0.85664   0.65277   0.24845   0.00000  Uiso   1.00
C283   C     0.81003   0.34723   0.25155   0.00000  Uiso   1.00
C284   C     0.83415   0.49989   0.33619   0.00000  Uiso   1.00
C285   C     0.83252   0.50011   0.16381   0.00000  Uiso   1.00
C286   C     0.81292   0.45392   0.09415   0.00000  Uiso   1.00
H287   H     0.87054   0.63015   0.03990   0.00000  Uiso   1.00
H288   H     0.85189   0.60317   0.35006   0.00000  Uiso   1.00
H289   H     0.79613   0.36985   0.46010   0.00000  Uiso   1.00
H290   H     0.87186   0.63033   0.46061   0.00000  Uiso   1.00
H291   H     0.79481   0.36967   0.03939   0.00000  Uiso   1.00
H292   H     0.90065   0.33651   0.24550   0.00000  Uiso   1.00
H293   H     0.76602   0.66349   0.25450   0.00000  Uiso   1.00
H294   H     0.67125   0.46098   0.21612   0.00000  Uiso   1.00
H295   H     0.99541   0.53902   0.28388   0.00000  Uiso   1.00
H296   H     0.81478   0.39683   0.14994   0.00000  Uiso   1.00
N297   N     0.98344   0.48598   0.23783   0.00000  Uiso   1.00
N298   N     0.68322   0.51402   0.26217   0.00000  Uiso   1.00
N299   N     0.87690   0.63129   0.13823   0.00000  Uiso   1.00
N300   N     0.78977   0.36871   0.36177   0.00000  Uiso   1.00
O301   O     0.79642   0.57952   0.25299   0.00000  Uiso   1.00
O302   O     0.91844   0.61859   0.38721   0.00000  Uiso   1.00
O303   O     0.87025   0.42048   0.24702   0.00000  Uiso   1.00
O304   O     0.89280   0.57054   0.24519   0.00000  Uiso   1.00
O305   O     0.77387   0.42946   0.25482   0.00000  Uiso   1.00
O306   O     0.78514   0.50450   0.31998   0.00000  Uiso   1.00
O307   O     0.88153   0.49550   0.18003   0.00000  Uiso   1.00
O308   O     0.88152   0.49552   0.31218   0.00000  Uiso   1.00
O309   O     0.78515   0.50448   0.18783   0.00000  Uiso   1.00
O310   O     0.74823   0.38141   0.11279   0.00000  Uiso   1.00
Zn311  Zn    0.76898   0.50600   0.25521   0.00000  Uiso   1.00
Zn312  Zn    0.89769   0.49400   0.24479   0.00000  Uiso   1.00
C313   C     0.18193   0.93157   0.24890   0.00000  Uiso   1.00
C314   C     0.18708   0.87942   0.40585   0.00000  Uiso   1.00
C315   C     0.16403   0.83354   0.11625   0.00000  Uiso   1.00
C316   C     0.16930   0.83312   0.38375   0.00000  Uiso   1.00
C317   C     0.18013   0.88005   0.09354   0.00000  Uiso   1.00
C318   C     0.15320   0.78662   0.40647   0.00000  Uiso   1.00
C319   C     0.17987   0.88041   0.04690   0.00000  Uiso   1.00
C320   C     0.15346   0.78626   0.45310   0.00000  Uiso   1.00
C321   C     0.16546   0.83344   0.02356   0.00000  Uiso   1.00
C322   C     0.16787   0.83323   0.47644   0.00000  Uiso   1.00
C323   C     0.14896   0.78664   0.04715   0.00000  Uiso   1.00
C324   C     0.15140   0.73510   0.25110   0.00000  Uiso   1.00
C325   C     0.18437   0.88002   0.45285   0.00000  Uiso   1.00
C326   C     0.19404   0.92663   0.02309   0.00000  Uiso   1.00
C327   C     0.13929   0.74004   0.47691   0.00000  Uiso   1.00
C328   C     0.12559   0.74039   0.12108   0.00000  Uiso   1.00
C329   C     0.20775   0.92628   0.37892   0.00000  Uiso   1.00
C330   C     0.19685   0.92714   0.11849   0.00000  Uiso   1.00
C331   C     0.13648   0.73952   0.38151   0.00000  Uiso   1.00
C332   C     0.19569   0.92654   0.47690   0.00000  Uiso   1.00
C333   C     0.13764   0.74013   0.02310   0.00000  Uiso   1.00
C334   C     0.18997   0.98610   0.24845   0.00000  Uiso   1.00
C335   C     0.14336   0.68057   0.25155   0.00000  Uiso   1.00
C336   C     0.16748   0.83323   0.33619   0.00000  Uiso   1.00
C337   C     0.16585   0.83344   0.16381   0.00000  Uiso   1.00
C338   C     0.14626   0.78725   0.09415   0.00000  Uiso   1.00
H339   H     0.20387   0.96348   0.03990   0.00000  Uiso   1.00
H340   H     0.18522   0.93651   0.35006   0.00000  Uiso   1.00
H341   H     0.12946   0.70318   0.46010   0.00000  Uiso   1.00
H342   H     0.20519   0.96366   0.46061   0.00000  Uiso   1.00
H343   H     0.12814   0.70301   0.03939   0.00000  Uiso   1.00
H344   H     0.23398   0.66984   0.24550   0.00000  Uiso   1.00
H345   H     0.09935   0.99683   0.25450   0.00000  Uiso   1.00
H346   H     0.00459   0.79431   0.21612   0.00000  Uiso   1.00
H347   H     0.32875   0.87235   0.28388   0.00000  Uiso   1.00
H348   H     0.14811   0.73016   0.14994   0.00000  Uiso   1.00
N349   N     0.31678   0.81932   0.23783   0.00000  Uiso   1.00
N350   N     0.01656   0.84735   0.26217   0.00000  Uiso   1.00
N351   N     0.21023   0.96462   0.13823   0.00000  Uiso   1.00
N352   N     0.12310   0.70205   0.36177   0.00000  Uiso   1.00
O353   O     0.12975   0.91286   0.25299   0.00000  Uiso   1.00
O354   O     0.25177   0.95192   0.38721   0.00000  Uiso   1.00
O355   O     0.20358   0.75381   0.24702   0.00000  Uiso   1.00
O356   O     0.22613   0.90387   0.24519   0.00000  Uiso   1.00
O357   O     0.10720   0.76279   0.25482   0.00000  Uiso   1.00
O358   O     0.11847   0.83784   0.31998   0.00000  Uiso   1.00
O359   O     0.21486   0.82883   0.18003   0.00000  Uiso   1.00
O360   O     0.21485   0.82885   0.31218   0.00000  Uiso   1.00
O361   O     0.11848   0.83781   0.18783   0.00000  Uiso   1.00
O362   O     0.08156   0.71475   0.11279   0.00000  Uiso   1.00
Zn363  Zn    0.10231   0.83933   0.25521   0.00000  Uiso   1.00
Zn364  Zn    0.23102   0.82734   0.24479   0.00000  Uiso   1.00
C365   C     0.51527   0.93157   0.24890   0.00000  Uiso   1.00
C366   C     0.52041   0.87942   0.40585   0.00000  Uiso   1.00
C367   C     0.49736   0.83354   0.11625   0.00000  Uiso   1.00
C368   C     0.50264   0.83312   0.38375   0.00000  Uiso   1.00
C369   C     0.51347   0.88005   0.09354   0.00000  Uiso   1.00
C370   C     0.48653   0.78662   0.40647   0.00000  Uiso   1.00
C371   C     0.51321   0.88041   0.04690   0.00000  Uiso   1.00
C372   C     0.48679   0.78626   0.45310   0.00000  Uiso   1.00
C373   C     0.49880   0.83344   0.02356   0.00000  Uiso   1.00
C374   C     0.50120   0.83323   0.47644   0.00000  Uiso   1.00
C375   C     0.48229   0.78664   0.04715   0.00000  Uiso   1.00
C376   C     0.48473   0.73510   0.25110   0.00000  Uiso   1.00
C377   C     0.51771   0.88002   0.45285   0.00000  Uiso   1.00
C378   C     0.52737   0.92663   0.02309   0.00000  Uiso   1.00
C379   C     0.47263   0.74004   0.47691   0.00000  Uiso   1.00
C380   C     0.45892   0.74039   0.12108   0.00000  Uiso   1.00
C381   C     0.54108   0.92628   0.37892   0.00000  Uiso   1.00
C382   C     0.53019   0.92714   0.11849   0.00000  Uiso   1.00
C383   C     0.46981   0.73952   0.38151   0.00000  Uiso   1.00
C384   C     0.52902   0.92654   0.47690   0.00000  Uiso   1.00
C385   C     0.47098   0.74013   0.02310   0.00000  Uiso   1.00
C386   C     0.52330   0.98610   0.24845   0.00000  Uiso   1.00
C387   C     0.47670   0.68057   0.25155   0.00000  Uiso   1.00
C388   C     0.50081   0.83323   0.33619   0.00000  Uiso   1.00
C389   C     0.49918   0.83344   0.16381   0.00000  Uiso   1.00
C390   C     0.47959   0.78725   0.09415   0.00000  Uiso   1.00
H391   H     0.53720   0.96348   0.03990   0.00000  Uiso   1.00
H392   H     0.51856   0.93651   0.35006   0.00000  Uiso   1.00
H393   H     0.46280   0.70318   0.46010   0.00000  Uiso   1.00
H394   H     0.53852   0.96366   0.46061   0.00000  Uiso   1.00
H395   H     0.46148   0.70301   0.03939   0.00000  Uiso   1.00
H396   H     0.56731   0.66984   0.24550   0.00000  Uiso   1.00
H397   H     0.43269   0.99683   0.25450   0.00000  Uiso   1.00
H398   H     0.33792   0.79431   0.21612   0.00000  Uiso   1.00
H399   H     0.66208   0.87235   0.28388   0.00000  Uiso   1.00
H400   H     0.48144   0.73016   0.14994   0.00000  Uiso   1.00
N401   N     0.65011   0.81932   0.23783   0.00000  Uiso   1.00
N402   N     0.34989   0.84735   0.26217   0.00000  Uiso   1.00
N403   N     0.54356   0.96462   0.13823   0.00000  Uiso   1.00
N404   N     0.45644   0.70205   0.36177   0.00000  Uiso   1.00
O405   O     0.46308   0.91286   0.25299   0.00000  Uiso   1.00
O406   O     0.58510   0.95192   0.38721   0.00000  Uiso   1.00
O407   O     0.53692   0.75381   0.24702   0.00000  Uiso   1.00
O408   O     0.55946   0.90387   0.24519   0.00000  Uiso   1.00
O409   O     0.44054   0.76279   0.25482   0.00000  Uiso   1.00
O410   O     0.45181   0.83784   0.31998   0.00000  Uiso   1.00
O411   O     0.54819   0.82883   0.18003   0.00000  Uiso   1.00
O412   O     0.54819   0.82885   0.31218   0.00000  Uiso   1.00
O413   O     0.45181   0.83781   0.18783   0.00000  Uiso   1.00
O414   O     0.41490   0.71475   0.11279   0.00000  Uiso   1.00
Zn415  Zn    0.43565   0.83933   0.25521   0.00000  Uiso   1.00
Zn416  Zn    0.56435   0.82734   0.24479   0.00000  Uiso   1.00
C417   C     0.84860   0.93157   0.24890   0.00000  Uiso   1.00
C418   C     0.85374   0.87942   0.40585   0.00000  Uiso   1.00
C419   C     0.83070   0.83354   0.11625   0.00000  Uiso   1.00
C420   C     0.83597   0.83312   0.38375   0.00000  Uiso   1.00
C421   C     0.84680   0.88005   0.09354   0.00000  Uiso   1.00
C422   C     0.81987   0.78662   0.40647   0.00000  Uiso   1.00
C423   C     0.84654   0.88041   0.04690   0.00000  Uiso   1.00
C424   C     0.82013   0.78626   0.45310   0.00000  Uiso   1.00
C425   C     0.83213   0.83344   0.02356   0.00000  Uiso   1.00
C426   C     0.83454   0.83323   0.47644   0.00000  Uiso   1.00
C427   C     0.81563   0.78664   0.04715   0.00000  Uiso   1.00
C428   C     0.81807   0.73510   0.25110   0.00000  Uiso   1.00
C429   C     0.85104   0.88002   0.45285   0.00000  Uiso   1.00
C430   C     0.86071   0.92663   0.02309   0.00000  Uiso   1.00
C431   C     0.80596   0.74004   0.47691   0.00000  Uiso   1.00
C432   C     0.79225   0.74039   0.12108   0.00000  Uiso   1.00
C433   C     0.87441   0.92628   0.37892   0.00000  Uiso   1.00
C434   C     0.86352   0.92714   0.11849   0.00000  Uiso   1.00
C435   C     0.80315   0.73952   0.38151   0.00000  Uiso   1.00
C436   C     0.86236   0.92654   0.47690   0.00000  Uiso   1.00
C437   C     0.80431   0.74013   0.02310   0.00000  Uiso   1.00
C438   C     0.85664   0.98610   0.24845   0.00000  Uiso   1.00
C439   C     0.81003   0.68057   0.25155   0.00000  Uiso   1.00
C440   C     0.83415   0.83323   0.33619   0.00000  Uiso   1.00
C441   C     0.83252   0.83344   0.16381   0.00000  Uiso   1.00
C442   C     0.81292   0.78725   0.09415   0.00000  Uiso   1.00
H443   H     0.87054   0.96348   0.03990   0.00000  Uiso   1.00
H444   H     0.85189   0.93651   0.35006   0.00000  Uiso   1.00
H445   H     0.79613   0.70318   0.46010   0.00000  Uiso   1.00
H446   H     0.87186   0.96366   0.46061   0.00000  Uiso   1.00
H447   H     0.79481   0.70301   0.03939   0.00000  Uiso   1.00
H448   H     0.90065   0.66984   0.24550   0.00000  Uiso   1.00
H449   H     0.76602   0.99683   0.25450   0.00000  Uiso   1.00
H450   H     0.67125   0.79431   0.21612   0.00000  Uiso   1.00
H451   H     0.99541   0.87235   0.28388   0.00000  Uiso   1.00
H452   H     0.81478   0.73016   0.14994   0.00000  Uiso   1.00
N453   N     0.98344   0.81932   0.23783   0.00000  Uiso   1.00
N454   N     0.68322   0.84735   0.26217   0.00000  Uiso   1.00
N455   N     0.87690   0.96462   0.13823   0.00000  Uiso   1.00
N456   N     0.78977   0.70205   0.36177   0.00000  Uiso   1.00
O457   O     0.79642   0.91286   0.25299   0.00000  Uiso   1.00
O458   O     0.91844   0.95192   0.38721   0.00000  Uiso   1.00
O459   O     0.87025   0.75381   0.24702   0.00000  Uiso   1.00
O460   O     0.89280   0.90387   0.24519   0.00000  Uiso   1.00
O461   O     0.77387   0.76279   0.25482   0.00000  Uiso   1.00
O462   O     0.78514   0.83784   0.31998   0.00000  Uiso   1.00
O463   O     0.88153   0.82883   0.18003   0.00000  Uiso   1.00
O464   O     0.88152   0.82885   0.31218   0.00000  Uiso   1.00
O465   O     0.78515   0.83781   0.18783   0.00000  Uiso   1.00
O466   O     0.74823   0.71475   0.11279   0.00000  Uiso   1.00
Zn467  Zn    0.76898   0.83933   0.25521   0.00000  Uiso   1.00
Zn468  Zn    0.89769   0.82734   0.24479   0.00000  Uiso   1.00
C469   C     0.18193   0.26490   0.74890   0.00000  Uiso   1.00
C470   C     0.18708   0.21275   0.90585   0.00000  Uiso   1.00
C471   C     0.16403   0.16687   0.61625   0.00000  Uiso   1.00
C472   C     0.16930   0.16646   0.88375   0.00000  Uiso   1.00
C473   C     0.18013   0.21338   0.59354   0.00000  Uiso   1.00
C474   C     0.15320   0.11995   0.90647   0.00000  Uiso   1.00
C475   C     0.17987   0.21374   0.54690   0.00000  Uiso   1.00
C476   C     0.15346   0.11959   0.95310   0.00000  Uiso   1.00
C477   C     0.16546   0.16677   0.52356   0.00000  Uiso   1.00
C478   C     0.16787   0.16656   0.97644   0.00000  Uiso   1.00
C479   C     0.14896   0.11998   0.54715   0.00000  Uiso   1.00
C480   C     0.15140   0.06843   0.75110   0.00000  Uiso   1.00
C481   C     0.18437   0.21336   0.95285   0.00000  Uiso   1.00
C482   C     0.19404   0.25996   0.52309   0.00000  Uiso   1.00
C483   C     0.13929   0.07337   0.97691   0.00000  Uiso   1.00
C484   C     0.12559   0.07372   0.62108   0.00000  Uiso   1.00
C485   C     0.20775   0.25961   0.87892   0.00000  Uiso   1.00
C486   C     0.19685   0.26048   0.61849   0.00000  Uiso   1.00
C487   C     0.13648   0.07286   0.88151   0.00000  Uiso   1.00
C488   C     0.19569   0.25987   0.97690   0.00000  Uiso   1.00
C489   C     0.13764   0.07346   0.52310   0.00000  Uiso   1.00
C490   C     0.18997   0.31943   0.74845   0.00000  Uiso   1.00
C491   C     0.14336   0.01390   0.75155   0.00000  Uiso   1.00
C492   C     0.16748   0.16656   0.83619   0.00000  Uiso   1.00
C493   C     0.16585   0.16677   0.66381   0.00000  Uiso   1.00
C494   C     0.14626   0.12058   0.59415   0.00000  Uiso   1.00
H495   H     0.20387   0.29682   0.53990   0.00000  Uiso   1.00
H496   H     0.18522   0.26984   0.85006   0.00000  Uiso   1.00
H497   H     0.12946   0.03652   0.96010   0.00000  Uiso   1.00
H498   H     0.20519   0.29699   0.96061   0.00000  Uiso   1.00
H499   H     0.12814   0.03634   0.53939   0.00000  Uiso   1.00
H500   H     0.23398   0.00317   0.74550   0.00000  Uiso   1.00
H501   H     0.09935   0.33016   0.75450   0.00000  Uiso   1.00
H502   H     0.00459   0.12765   0.71612   0.00000  Uiso   1.00
H503   H     0.32875   0.20569   0.78388   0.00000  Uiso   1.00
H504   H     0.14811   0.06349   0.64994   0.00000  Uiso   1.00
N505   N     0.31678   0.15265   0.73783   0.00000  Uiso   1.00
N506   N     0.01656   0.18068   0.76217   0.00000  Uiso   1.00
N507   N     0.21023   0.29795   0.63823   0.00000  Uiso   1.00
N508   N     0.12310   0.03538   0.86177   0.00000  Uiso   1.00
O509   O     0.12975   0.24619   0.75299   0.00000  Uiso   1.00
O510   O     0.25177   0.28525   0.88721   0.00000  Uiso   1.00
O511   O     0.20358   0.08714   0.74702   0.00000  Uiso   1.00
O512   O     0.22613   0.23721   0.74519   0.00000  Uiso   1.00
O513   O     0.10720   0.09613   0.75482   0.00000  Uiso   1.00
O514   O     0.11847   0.17117   0.81998   0.00000  Uiso   1.00
O515   O     0.21486   0.16216   0.68003   0.00000  Uiso   1.00
O516   O     0.21485   0.16219   0.81218   0.00000  Uiso   1.00
O517   O     0.11848   0.17115   0.68783   0.00000  Uiso   1.00
O518   O     0.08156   0.04808   0.61279   0.00000  Uiso   1.00
Zn519  Zn    0.10231   0.17266   0.75521   0.00000  Uiso   1.00
Zn520  Zn    0.23102   0.16067   0.74479   0.00000  Uiso   1.00
C521   C     0.51527   0.26490   0.74890   0.00000  Uiso   1.00
C522   C     0.52041   0.21275   0.90585   0.00000  Uiso   1.00
C523   C     0.49736   0.16687   0.61625   0.00000  Uiso   1.00
C524   C     0.50264   0.16646   0.88375   0.00000  Uiso   1.00
C525   C     0.51347   0.21338   0.59354   0.00000  Uiso   1.00
C526   C     0.48653   0.11995   0.90647   0.00000  Uiso   1.00
C527   C     0.51321   0.21374   0.54690   0.00000  Uiso   1.00
C528   C     0.48679   0.11959   0.95310   0.00000  Uiso   1.00
C529   C     0.49880   0.16677   0.52356   0.00000  Uiso   1.00
C530   C     0.50120   0.16656   0.97644   0.00000  Uiso   1.00
C531   C     0.48229   0.11998   0.54715   0.00000  Uiso   1.00
C532   C     0.48473   0.06843   0.75110   0.00000  Uiso   1.00
C533   C     0.51771   0.21336   0.95285   0.00000  Uiso   1.00
C534   C     0.52737   0.25996   0.52309   0.00000  Uiso   1.00
C535   C     0.47263   0.07337   0.97691   0.00000  Uiso   1.00
C536   C     0.45892   0.07372   0.62108   0.00000  Uiso   1.00
C537   C     0.54108   0.25961   0.87892   0.00000  Uiso   1.00
C538   C     0.53019   0.26048   0.61849   0.00000  Uiso   1.00
C539   C     0.46981   0.07286   0.88151   0.00000  Uiso   1.00
C540   C     0.52902   0.25987   0.97690   0.00000  Uiso   1.00
C541   C     0.47098   0.07346   0.52310   0.00000  Uiso   1.00
C542   C     0.52330   0.31943   0.74845   0.00000  Uiso   1.00
C543   C     0.47670   0.01390   0.75155   0.00000  Uiso   1.00
C544   C     0.50081   0.16656   0.83619   0.00000  Uiso   1.00
C545   C     0.49918   0.16677   0.66381   0.00000  Uiso   1.00
C546   C     0.47959   0.12058   0.59415   0.00000  Uiso   1.00
H547   H     0.53720   0.29682   0.53990   0.00000  Uiso   1.00
H548   H     0.51856   0.26984   0.85006   0.00000  Uiso   1.00
H549   H     0.46280   0.03652   0.96010   0.00000  Uiso   1.00
H550   H     0.53852   0.29699   0.96061   0.00000  Uiso   1.00
H551   H     0.46148   0.03634   0.53939   0.00000  Uiso   1.00
H552   H     0.56731   0.00317   0.74550   0.00000  Uiso   1.00
H553   H     0.43269   0.33016   0.75450   0.00000  Uiso   1.00
H554   H     0.33792   0.12765   0.71612   0.00000  Uiso   1.00
H555   H     0.66208   0.20569   0.78388   0.00000  Uiso   1.00
H556   H     0.48144   0.06349   0.64994   0.00000  Uiso   1.00
N557   N     0.65011   0.15265   0.73783   0.00000  Uiso   1.00
N558   N     0.34989   0.18068   0.76217   0.00000  Uiso   1.00
N559   N     0.54356   0.29795   0.63823   0.00000  Uiso   1.00
N560   N     0.45644   0.03538   0.86177   0.00000  Uiso   1.00
O561   O     0.46308   0.24619   0.75299   0.00000  Uiso   1.00
O562   O     0.58510   0.28525   0.88721   0.00000  Uiso   1.00
O563   O     0.53692   0.08714   0.74702   0.00000  Uiso   1.00
O564   O     0.55946   0.23721   0.74519   0.00000  Uiso   1.00
O565   O     0.44054   0.09613   0.75482   0.00000  Uiso   1.00
O566   O     0.45181   0.17117   0.81998   0.00000  Uiso   1.00
O567   O     0.54819   0.16216   0.68003   0.00000  Uiso   1.00
O568   O     0.54819   0.16219   0.81218   0.00000  Uiso   1.00
O569   O     0.45181   0.17115   0.68783   0.00000  Uiso   1.00
O570   O     0.41490   0.04808   0.61279   0.00000  Uiso   1.00
Zn571  Zn    0.43565   0.17266   0.75521   0.00000  Uiso   1.00
Zn572  Zn    0.56435   0.16067   0.74479   0.00000  Uiso   1.00
C573   C     0.84860   0.26490   0.74890   0.00000  Uiso   1.00
C574   C     0.85374   0.21275   0.90585   0.00000  Uiso   1.00
C575   C     0.83070   0.16687   0.61625   0.00000  Uiso   1.00
C576   C     0.83597   0.16646   0.88375   0.00000  Uiso   1.00
C577   C     0.84680   0.21338   0.59354   0.00000  Uiso   1.00
C578   C     0.81987   0.11995   0.90647   0.00000  Uiso   1.00
C579   C     0.84654   0.21374   0.54690   0.00000  Uiso   1.00
C580   C     0.82013   0.11959   0.95310   0.00000  Uiso   1.00
C581   C     0.83213   0.16677   0.52356   0.00000  Uiso   1.00
C582   C     0.83454   0.16656   0.97644   0.00000  Uiso   1.00
C583   C     0.81563   0.11998   0.54715   0.00000  Uiso   1.00
C584   C     0.81807   0.06843   0.75110   0.00000  Uiso   1.00
C585   C     0.85104   0.21336   0.95285   0.00000  Uiso   1.00
C586   C     0.86071   0.25996   0.52309   0.00000  Uiso   1.00
C587   C     0.80596   0.07337   0.97691   0.00000  Uiso   1.00
C588   C     0.79225   0.07372   0.62108   0.00000  Uiso   1.00
C589   C     0.87441   0.25961   0.87892   0.00000  Uiso   1.00
C590   C     0.86352   0.26048   0.61849   0.00000  Uiso   1.00
C591   C     0.80315   0.07286   0.88151   0.00000  Uiso   1.00
C592   C     0.86236   0.25987   0.97690   0.00000  Uiso   1.00
C593   C     0.80431   0.07346   0.52310   0.00000  Uiso   1.00
C594   C     0.85664   0.31943   0.74845   0.00000  Uiso   1.00
C595   C     0.81003   0.01390   0.75155   0.00000  Uiso   1.00
C596   C     0.83415   0.16656   0.83619   0.00000  Uiso   1.00
C597   C     0.83252   0.16677   0.66381   0.00000  Uiso   1.00
C598   C     0.81292   0.12058   0.59415   0.00000  Uiso   1.00
H599   H     0.87054   0.29682   0.53990   0.00000  Uiso   1.00
H600   H     0.85189   0.26984   0.85006   0.00000  Uiso   1.00
H601   H     0.79613   0.03652   0.96010   0.00000  Uiso   1.00
H602   H     0.87186   0.29699   0.96061   0.00000  Uiso   1.00
H603   H     0.79481   0.03634   0.53939   0.00000  Uiso   1.00
H604   H     0.90065   0.00317   0.74550   0.00000  Uiso   1.00
H605   H     0.76602   0.33016   0.75450   0.00000  Uiso   1.00
H606   H     0.67125   0.12765   0.71612   0.00000  Uiso   1.00
H607   H     0.99541   0.20569   0.78388   0.00000  Uiso   1.00
H608   H     0.81478   0.06349   0.64994   0.00000  Uiso   1.00
N609   N     0.98344   0.15265   0.73783   0.00000  Uiso   1.00
N610   N     0.68322   0.18068   0.76217   0.00000  Uiso   1.00
N611   N     0.87690   0.29795   0.63823   0.00000  Uiso   1.00
N612   N     0.78977   0.03538   0.86177   0.00000  Uiso   1.00
O613   O     0.79642   0.24619   0.75299   0.00000  Uiso   1.00
O614   O     0.91844   0.28525   0.88721   0.00000  Uiso   1.00
O615   O     0.87025   0.08714   0.74702   0.00000  Uiso   1.00
O616   O     0.89280   0.23721   0.74519   0.00000  Uiso   1.00
O617   O     0.77387   0.09613   0.75482   0.00000  Uiso   1.00
O618   O     0.78514   0.17117   0.81998   0.00000  Uiso   1.00
O619   O     0.88153   0.16216   0.68003   0.00000  Uiso   1.00
O620   O     0.88152   0.16219   0.81218   0.00000  Uiso   1.00
O621   O     0.78515   0.17115   0.68783   0.00000  Uiso   1.00
O622   O     0.74823   0.04808   0.61279   0.00000  Uiso   1.00
Zn623  Zn    0.76898   0.17266   0.75521   0.00000  Uiso   1.00
Zn624  Zn    0.89769   0.16067   0.74479   0.00000  Uiso   1.00
C625   C     0.18193   0.59823   0.74890   0.00000  Uiso   1.00
C626   C     0.18708   0.54608   0.90585   0.00000  Uiso   1.00
C627   C     0.16403   0.50021   0.61625   0.00000  Uiso   1.00
C628   C     0.16930   0.49979   0.88375   0.00000  Uiso   1.00
C629   C     0.18013   0.54671   0.59354   0.00000  Uiso   1.00
C630   C     0.15320   0.45329   0.90647   0.00000  Uiso   1.00
C631   C     0.17987   0.54707   0.54690   0.00000  Uiso   1.00
C632   C     0.15346   0.45293   0.95310   0.00000  Uiso   1.00
C633   C     0.16546   0.50010   0.52356   0.00000  Uiso   1.00
C634   C     0.16787   0.49990   0.97644   0.00000  Uiso   1.00
C635   C     0.14896   0.45331   0.54715   0.00000  Uiso   1.00
C636   C     0.15140   0.40177   0.75110   0.00000  Uiso   1.00
C637   C     0.18437   0.54669   0.95285   0.00000  Uiso   1.00
C638   C     0.19404   0.59330   0.52309   0.00000  Uiso   1.00
C639   C     0.13929   0.40670   0.97691   0.00000  Uiso   1.00
C640   C     0.12559   0.40706   0.62108   0.00000  Uiso   1.00
C641   C     0.20775   0.59294   0.87892   0.00000  Uiso   1.00
C642   C     0.19685   0.59381   0.61849   0.00000  Uiso   1.00
C643   C     0.13648   0.40619   0.88151   0.00000  Uiso   1.00
C644   C     0.19569   0.59320   0.97690   0.00000  Uiso   1.00
C645   C     0.13764   0.40680   0.52310   0.00000  Uiso   1.00
C646   C     0.18997   0.65277   0.74845   0.00000  Uiso   1.00
C647   C     0.14336   0.34723   0.75155   0.00000  Uiso   1.00
C648   C     0.16748   0.49989   0.83619   0.00000  Uiso   1.00
C649   C     0.16585   0.50011   0.66381   0.00000  Uiso   1.00
C650   C     0.14626   0.45392   0.59415   0.00000  Uiso   1.00
H651   H     0.20387   0.63015   0.53990   0.00000  Uiso   1.00
H652   H     0.18522   0.60317   0.85006   0.00000  Uiso   1.00
H653   H     0.12946   0.36985   0.96010   0.00000  Uiso   1.00
H654   H     0.20519   0.63033   0.96061   0.00000  Uiso   1.00
H655   H     0.12814   0.36967   0.53939   0.00000  Uiso   1.00
H656   H     0.23398   0.33651   0.74550   0.00000  Uiso   1.00
H657   H     0.09935   0.66349   0.75450   0.00000  Uiso   1.00
H658   H     0.00459   0.46098   0.71612   0.00000  Uiso   1.00
H659   H     0.32875   0.53902   0.78388   0.00000  Uiso   1.00
H660   H     0.14811   0.39683   0.64994   0.00000  Uiso   1.00
N661   N     0.31678   0.48598   0.73783   0.00000  Uiso   1.00
N662   N     0.01656   0.51402   0.76217   0.00000  Uiso   1.00
N663   N     0.21023   0.63129   0.63823   0.00000  Uiso   1.00
N664   N     0.12310   0.36871   0.86177   0.00000  Uiso   1.00
O665   O     0.12975   0.57952   0.75299   0.00000  Uiso   1.00
O666   O     0.25177   0.61859   0.88721   0.00000  Uiso   1.00
O667   O     0.20358   0.42048   0.74702   0.00000  Uiso   1.00
O668   O     0.22613   0.57054   0.74519   0.00000  Uiso   1.00
O669   O     0.10720   0.42946   0.75482   0.00000  Uiso   1.00
O670   O     0.11847   0.50450   0.81998   0.00000  Uiso   1.00
O671   O     0.21486   0.49550   0.68003   0.00000  Uiso   1.00
O672   O     0.21485   0.49552   0.81218   0.00000  Uiso   1.00
O673   O     0.11848   0.50448   0.68783   0.00000  Uiso   1.00
O674   O     0.08156   0.38141   0.61279   0.00000  Uiso   1.00
Zn675  Zn    0.10231   0.50600   0.75521   0.00000  Uiso   1.00
Zn676  Zn    0.23102   0.49400   0.74479   0.00000  Uiso   1.00
C677   C     0.51527   0.59823   0.74890   0.00000  Uiso   1.00
C678   C     0.52041   0.54608   0.90585   0.00000  Uiso   1.00
C679   C     0.49736   0.50021   0.61625   0.00000  Uiso   1.00
C680   C     0.50264   0.49979   0.88375   0.00000  Uiso   1.00
C681   C     0.51347   0.54671   0.59354   0.00000  Uiso   1.00
C682   C     0.48653   0.45329   0.90647   0.00000  Uiso   1.00
C683   C     0.51321   0.54707   0.54690   0.00000  Uiso   1.00
C684   C     0.48679   0.45293   0.95310   0.00000  Uiso   1.00
C685   C     0.49880   0.50010   0.52356   0.00000  Uiso   1.00
C686   C     0.50120   0.49990   0.97644   0.00000  Uiso   1.00
C687   C     0.48229   0.45331   0.54715   0.00000  Uiso   1.00
C688   C     0.48473   0.40177   0.75110   0.00000  Uiso   1.00
C689   C     0.51771   0.54669   0.95285   0.00000  Uiso   1.00
C690   C     0.52737   0.59330   0.52309   0.00000  Uiso   1.00
C691   C     0.47263   0.40670   0.97691   0.00000  Uiso   1.00
C692   C     0.45892   0.40706   0.62108   0.00000  Uiso   1.00
C693   C     0.54108   0.59294   0.87892   0.00000  Uiso   1.00
C694   C     0.53019   0.59381   0.61849   0.00000  Uiso   1.00
C695   C     0.46981   0.40619   0.88151   0.00000  Uiso   1.00
C696   C     0.52902   0.59320   0.97690   0.00000  Uiso   1.00
C697   C     0.47098   0.40680   0.52310   0.00000  Uiso   1.00
C698   C     0.52330   0.65277   0.74845   0.00000  Uiso   1.00
C699   C     0.47670   0.34723   0.75155   0.00000  Uiso   1.00
C700   C     0.50081   0.49989   0.83619   0.00000  Uiso   1.00
C701   C     0.49918   0.50011   0.66381   0.00000  Uiso   1.00
C702   C     0.47959   0.45392   0.59415   0.00000  Uiso   1.00
H703   H     0.53720   0.63015   0.53990   0.00000  Uiso   1.00
H704   H     0.51856   0.60317   0.85006   0.00000  Uiso   1.00
H705   H     0.46280   0.36985   0.96010   0.00000  Uiso   1.00
H706   H     0.53852   0.63033   0.96061   0.00000  Uiso   1.00
H707   H     0.46148   0.36967   0.53939   0.00000  Uiso   1.00
H708   H     0.56731   0.33651   0.74550   0.00000  Uiso   1.00
H709   H     0.43269   0.66349   0.75450   0.00000  Uiso   1.00
H710   H     0.33792   0.46098   0.71612   0.00000  Uiso   1.00
H711   H     0.66208   0.53902   0.78388   0.00000  Uiso   1.00
H712   H     0.48144   0.39683   0.64994   0.00000  Uiso   1.00
N713   N     0.65011   0.48598   0.73783   0.00000  Uiso   1.00
N714   N     0.34989   0.51402   0.76217   0.00000  Uiso   1.00
N715   N     0.54356   0.63129   0.63823   0.00000  Uiso   1.00
N716   N     0.45644   0.36871   0.86177   0.00000  Uiso   1.00
O717   O     0.46308   0.57952   0.75299   0.00000  Uiso   1.00
O718   O     0.58510   0.61859   0.88721   0.00000  Uiso   1.00
O719   O     0.53692   0.42048   0.74702   0.00000  Uiso   1.00
O720   O     0.55946   0.57054   0.74519   0.00000  Uiso   1.00
O721   O     0.44054   0.42946   0.75482   0.00000  Uiso   1.00
O722   O     0.45181   0.50450   0.81998   0.00000  Uiso   1.00
O723   O     0.54819   0.49550   0.68003   0.00000  Uiso   1.00
O724   O     0.54819   0.49552   0.81218   0.00000  Uiso   1.00
O725   O     0.45181   0.50448   0.68783   0.00000  Uiso   1.00
O726   O     0.41490   0.38141   0.61279   0.00000  Uiso   1.00
Zn727  Zn    0.43565   0.50600   0.75521   0.00000  Uiso   1.00
Zn728  Zn    0.56435   0.49400   0.74479   0.00000  Uiso   1.00
C729   C     0.84860   0.59823   0.74890   0.00000  Uiso   1.00
C730   C     0.85374   0.54608   0.90585   0.00000  Uiso   1.00
C731   C     0.83070   0.50021   0.61625   0.00000  Uiso   1.00
C732   C     0.83597   0.49979   0.88375   0.00000  Uiso   1.00
C733   C     0.84680   0.54671   0.59354   0.00000  Uiso   1.00
C734   C     0.81987   0.45329   0.90647   0.00000  Uiso   1.00
C735   C     0.84654   0.54707   0.54690   0.00000  Uiso   1.00
C736   C     0.82013   0.45293   0.95310   0.00000  Uiso   1.00
C737   C     0.83213   0.50010   0.52356   0.00000  Uiso   1.00
C738   C     0.83454   0.49990   0.97644   0.00000  Uiso   1.00
C739   C     0.81563   0.45331   0.54715   0.00000  Uiso   1.00
C740   C     0.81807   0.40177   0.75110   0.00000  Uiso   1.00
C741   C     0.85104   0.54669   0.95285   0.00000  Uiso   1.00
C742   C     0.86071   0.59330   0.52309   0.00000  Uiso   1.00
C743   C     0.80596   0.40670   0.97691   0.00000  Uiso   1.00
C744   C     0.79225   0.40706   0.62108   0.00000  Uiso   1.00
C745   C     0.87441   0.59294   0.87892   0.00000  Uiso   1.00
C746   C     0.86352   0.59381   0.61849   0.00000  Uiso   1.00
C747   C     0.80315   0.40619   0.88151   0.00000  Uiso   1.00
C748   C     0.86236   0.59320   0.97690   0.00000  Uiso   1.00
C749   C     0.80431   0.40680   0.52310   0.00000  Uiso   1.00
C750   C     0.85664   0.65277   0.74845   0.00000  Uiso   1.00
C751   C     0.81003   0.34723   0.75155   0.00000  Uiso   1.00
C752   C     0.83415   0.49989   0.83619   0.00000  Uiso   1.00
C753   C     0.83252   0.50011   0.66381   0.00000  Uiso   1.00
C754   C     0.81292   0.45392   0.59415   0.00000  Uiso   1.00
H755   H     0.87054   0.63015   0.53990   0.00000  Uiso   1.00
H756   H     0.85189   0.60317   0.85006   0.00000  Uiso   1.00
H757   H     0.79613   0.36985   0.96010   0.00000  Uiso   1.00
H758   H     0.87186   0.63033   0.96061   0.00000  Uiso   1.00
H759   H     0.79481   0.36967   0.53939   0.00000  Uiso   1.00
H760   H     0.90065   0.33651   0.74550   0.00000  Uiso   1.00
H761   H     0.76602   0.66349   0.75450   0.00000  Uiso   1.00
H762   H     0.67125   0.46098   0.71612   0.00000  Uiso   1.00
H763   H     0.99541   0.53902   0.78388   0.00000  Uiso   1.00
H764   H     0.81478   0.39683   0.64994   0.00000  Uiso   1.00
N765   N     0.98344   0.48598   0.73783   0.00000  Uiso   1.00
N766   N     0.68322   0.51402   0.76217   0.00000  Uiso   1.00
N767   N     0.87690   0.63129   0.63823   0.00000  Uiso   1.00
N768   N     0.78977   0.36871   0.86177   0.00000  Uiso   1.00
O769   O     0.79642   0.57952   0.75299   0.00000  Uiso   1.00
O770   O     0.91844   0.61859   0.88721   0.00000  Uiso   1.00
O771   O     0.87025   0.42048   0.74702   0.00000  Uiso   1.00
O772   O     0.89280   0.57054   0.74519   0.00000  Uiso   1.00
O773   O     0.77387   0.42946   0.75482   0.00000  Uiso   1.00
O774   O     0.78514   0.50450   0.81998   0.00000  Uiso   1.00
O775   O     0.88153   0.49550   0.68003   0.00000  Uiso   1.00
O776   O     0.88152   0.49552   0.81218   0.00000  Uiso   1.00
O777   O     0.78515   0.50448   0.68783   0.00000  Uiso   1.00
O778   O     0.74823   0.38141   0.61279   0.00000  Uiso   1.00
Zn779  Zn    0.76898   0.50600   0.75521   0.00000  Uiso   1.00
Zn780  Zn    0.89769   0.49400   0.74479   0.00000  Uiso   1.00
C781   C     0.18193   0.93157   0.74890   0.00000  Uiso   1.00
C782   C     0.18708   0.87942   0.90585   0.00000  Uiso   1.00
C783   C     0.16403   0.83354   0.61625   0.00000  Uiso   1.00
C784   C     0.16930   0.83312   0.88375   0.00000  Uiso   1.00
C785   C     0.18013   0.88005   0.59354   0.00000  Uiso   1.00
C786   C     0.15320   0.78662   0.90647   0.00000  Uiso   1.00
C787   C     0.17987   0.88041   0.54690   0.00000  Uiso   1.00
C788   C     0.15346   0.78626   0.95310   0.00000  Uiso   1.00
C789   C     0.16546   0.83344   0.52356   0.00000  Uiso   1.00
C790   C     0.16787   0.83323   0.97644   0.00000  Uiso   1.00
C791   C     0.14896   0.78664   0.54715   0.00000  Uiso   1.00
C792   C     0.15140   0.73510   0.75110   0.00000  Uiso   1.00
C793   C     0.18437   0.88002   0.95285   0.00000  Uiso   1.00
C794   C     0.19404   0.92663   0.52309   0.00000  Uiso   1.00
C795   C     0.13929   0.74004   0.97691   0.00000  Uiso   1.00
C796   C     0.12559   0.74039   0.62108   0.00000  Uiso   1.00
C797   C     0.20775   0.92628   0.87892   0.00000  Uiso   1.00
C798   C     0.19685   0.92714   0.61849   0.00000  Uiso   1.00
C799   C     0.13648   0.73952   0.88151   0.00000  Uiso   1.00
C800   C     0.19569   0.92654   0.97690   0.00000  Uiso   1.00
C801   C     0.13764   0.74013   0.52310   0.00000  Uiso   1.00
C802   C     0.18997   0.98610   0.74845   0.00000  Uiso   1.00
C803   C     0.14336   0.68057   0.75155   0.00000  Uiso   1.00
C804   C     0.16748   0.83323   0.83619   0.00000  Uiso   1.00
C805   C     0.16585   0.83344   0.66381   0.00000  Uiso   1.00
C806   C     0.14626   0.78725   0.59415   0.00000  Uiso   1.00
H807   H     0.20387   0.96348   0.53990   0.00000  Uiso   1.00
H808   H     0.18522   0.93651   0.85006   0.00000  Uiso   1.00
H809   H     0.12946   0.70318   0.96010   0.00000  Uiso   1.00
H810   H     0.20519   0.96366   0.96061   0.00000  Uiso   1.00
H811   H     0.12814   0.70301   0.53939   0.00000  Uiso   1.00
H812   H     0.23398   0.66984   0.74550   0.00000  Uiso   1.00
H813   H     0.09935   0.99683   0.75450   0.00000  Uiso   1.00
H814   H     0.00459   0.79431   0.71612   0.00000  Uiso   1.00
H815   H     0.32875   0.87235   0.78388   0.00000  Uiso   1.00
H816   H     0.14811   0.73016   0.64994   0.00000  Uiso   1.00
N817   N     0.31678   0.81932   0.73783   0.00000  Uiso   1.00
N818   N     0.01656   0.84735   0.76217   0.00000  Uiso   1.00
N819   N     0.21023   0.96462   0.63823   0.00000  Uiso   1.00
N820   N     0.12310   0.70205   0.86177   0.00000  Uiso   1.00
O821   O     0.12975   0.91286   0.75299   0.00000  Uiso   1.00
O822   O     0.25177   0.95192   0.88721   0.00000  Uiso   1.00
O823   O     0.20358   0.75381   0.74702   0.00000  Uiso   1.00
O824   O     0.22613   0.90387   0.74519   0.00000  Uiso   1.00
O825   O     0.10720   0.76279   0.75482   0.00000  Uiso   1.00
O826   O     0.11847   0.83784   0.81998   0.00000  Uiso   1.00
O827   O     0.21486   0.82883   0.68003   0.00000  Uiso   1.00
O828   O     0.21485   0.82885   0.81218   0.00000  Uiso   1.00
O829   O     0.11848   0.83781   0.68783   0.00000  Uiso   1.00
O830   O     0.08156   0.71475   0.61279   0.00000  Uiso   1.00
Zn831  Zn    0.10231   0.83933   0.75521   0.00000  Uiso   1.00
Zn832  Zn    0.23102   0.82734   0.74479   0.00000  Uiso   1.00
C833   C     0.51527   0.93157   0.74890   0.00000  Uiso   1.00
C834   C     0.52041   0.87942   0.90585   0.00000  Uiso   1.00
C835   C     0.49736   0.83354   0.61625   0.00000  Uiso   1.00
C836   C     0.50264   0.83312   0.88375   0.00000  Uiso   1.00
C837   C     0.51347   0.88005   0.59354   0.00000  Uiso   1.00
C838   C     0.48653   0.78662   0.90647   0.00000  Uiso   1.00
C839   C     0.51321   0.88041   0.54690   0.00000  Uiso   1.00
C840   C     0.48679   0.78626   0.95310   0.00000  Uiso   1.00
C841   C     0.49880   0.83344   0.52356   0.00000  Uiso   1.00
C842   C     0.50120   0.83323   0.97644   0.00000  Uiso   1.00
C843   C     0.48229   0.78664   0.54715   0.00000  Uiso   1.00
C844   C     0.48473   0.73510   0.75110   0.00000  Uiso   1.00
C845   C     0.51771   0.88002   0.95285   0.00000  Uiso   1.00
C846   C     0.52737   0.92663   0.52309   0.00000  Uiso   1.00
C847   C     0.47263   0.74004   0.97691   0.00000  Uiso   1.00
C848   C     0.45892   0.74039   0.62108   0.00000  Uiso   1.00
C849   C     0.54108   0.92628   0.87892   0.00000  Uiso   1.00
C850   C     0.53019   0.92714   0.61849   0.00000  Uiso   1.00
C851   C     0.46981   0.73952   0.88151   0.00000  Uiso   1.00
C852   C     0.52902   0.92654   0.97690   0.00000  Uiso   1.00
C853   C     0.47098   0.74013   0.52310   0.00000  Uiso   1.00
C854   C     0.52330   0.98610   0.74845   0.00000  Uiso   1.00
C855   C     0.47670   0.68057   0.75155   0.00000  Uiso   1.00
C856   C     0.50081   0.83323   0.83619   0.00000  Uiso   1.00
C857   C     0.49918   0.83344   0.66381   0.00000  Uiso   1.00
C858   C     0.47959   0.78725   0.59415   0.00000  Uiso   1.00
H859   H     0.53720   0.96348   0.53990   0.00000  Uiso   1.00
H860   H     0.51856   0.93651   0.85006   0.00000  Uiso   1.00
H861   H     0.46280   0.70318   0.96010   0.00000  Uiso   1.00
H862   H     0.53852   0.96366   0.96061   0.00000  Uiso   1.00
H863   H     0.46148   0.70301   0.53939   0.00000  Uiso   1.00
H864   H     0.56731   0.66984   0.74550   0.00000  Uiso   1.00
H865   H     0.43269   0.99683   0.75450   0.00000  Uiso   1.00
H866   H     0.33792   0.79431   0.71612   0.00000  Uiso   1.00
H867   H     0.66208   0.87235   0.78388   0.00000  Uiso   1.00
H868   H     0.48144   0.73016   0.64994   0.00000  Uiso   1.00
N869   N     0.65011   0.81932   0.73783   0.00000  Uiso   1.00
N870   N     0.34989   0.84735   0.76217   0.00000  Uiso   1.00
N871   N     0.54356   0.96462   0.63823   0.00000  Uiso   1.00
N872   N     0.45644   0.70205   0.86177   0.00000  Uiso   1.00
O873   O     0.46308   0.91286   0.75299   0.00000  Uiso   1.00
O874   O     0.58510   0.95192   0.88721   0.00000  Uiso   1.00
O875   O     0.53692   0.75381   0.74702   0.00000  Uiso   1.00
O876   O     0.55946   0.90387   0.74519   0.00000  Uiso   1.00
O877   O     0.44054   0.76279   0.75482   0.00000  Uiso   1.00
O878   O     0.45181   0.83784   0.81998   0.00000  Uiso   1.00
O879   O     0.54819   0.82883   0.68003   0.00000  Uiso   1.00
O880   O     0.54819   0.82885   0.81218   0.00000  Uiso   1.00
O881   O     0.45181   0.83781   0.68783   0.00000  Uiso   1.00
O882   O     0.41490   0.71475   0.61279   0.00000  Uiso   1.00
Zn883  Zn    0.43565   0.83933   0.75521   0.00000  Uiso   1.00
Zn884  Zn    0.56435   0.82734   0.74479   0.00000  Uiso   1.00
C885   C     0.84860   0.93157   0.74890   0.00000  Uiso   1.00
C886   C     0.85374   0.87942   0.90585   0.00000  Uiso   1.00
C887   C     0.83070   0.83354   0.61625   0.00000  Uiso   1.00
C888   C     0.83597   0.83312   0.88375   0.00000  Uiso   1.00
C889   C     0.84680   0.88005   0.59354   0.00000  Uiso   1.00
C890   C     0.81987   0.78662   0.90647   0.00000  Uiso   1.00
C891   C     0.84654   0.88041   0.54690   0.00000  Uiso   1.00
C892   C     0.82013   0.78626   0.95310   0.00000  Uiso   1.00
C893   C     0.83213   0.83344   0.52356   0.00000  Uiso   1.00
C894   C     0.83454   0.83323   0.97644   0.00000  Uiso   1.00
C895   C     0.81563   0.78664   0.54715   0.00000  Uiso   1.00
C896   C     0.81807   0.73510   0.75110   0.00000  Uiso   1.00
C897   C     0.85104   0.88002   0.95285   0.00000  Uiso   1.00
C898   C     0.86071   0.92663   0.52309   0.00000  Uiso   1.00
C899   C     0.80596   0.74004   0.97691   0.00000  Uiso   1.00
C900   C     0.79225   0.74039   0.62108   0.00000  Uiso   1.00
C901   C     0.87441   0.92628   0.87892   0.00000  Uiso   1.00
C902   C     0.86352   0.92714   0.61849   0.00000  Uiso   1.00
C903   C     0.80315   0.73952   0.88151   0.00000  Uiso   1.00
C904   C     0.86236   0.92654   0.97690   0.00000  Uiso   1.00
C905   C     0.80431   0.74013   0.52310   0.00000  Uiso   1.00
C906   C     0.85664   0.98610   0.74845   0.00000  Uiso   1.00
C907   C     0.81003   0.68057   0.75155   0.00000  Uiso   1.00
C908   C     0.83415   0.83323   0.83619   0.00000  Uiso   1.00
C909   C     0.83252   0.83344   0.66381   0.00000  Uiso   1.00
C910   C     0.81292   0.78725   0.59415   0.00000  Uiso   1.00
H911   H     0.87054   0.96348   0.53990   0.00000  Uiso   1.00
H912   H     0.85189   0.93651   0.85006   0.00000  Uiso   1.00
H913   H     0.79613   0.70318   0.96010   0.00000  Uiso   1.00
H914   H     0.87186   0.96366   0.96061   0.00000  Uiso   1.00
H915   H     0.79481   0.70301   0.53939   0.00000  Uiso   1.00
H916   H     0.90065   0.66984   0.74550   0.00000  Uiso   1.00
H917   H     0.76602   0.99683   0.75450   0.00000  Uiso   1.00
H918   H     0.67125   0.79431   0.71612   0.00000  Uiso   1.00
H919   H     0.99541   0.87235   0.78388   0.00000  Uiso   1.00
H920   H     0.81478   0.73016   0.64994   0.00000  Uiso   1.00
N921   N     0.98344   0.81932   0.73783   0.00000  Uiso   1.00
N922   N     0.68322   0.84735   0.76217   0.00000  Uiso   1.00
N923   N     0.87690   0.96462   0.63823   0.00000  Uiso   1.00
N924   N     0.78977   0.70205   0.86177   0.00000  Uiso   1.00
O925   O     0.79642   0.91286   0.75299   0.00000  Uiso   1.00
O926   O     0.91844   0.95192   0.88721   0.00000  Uiso   1.00
O927   O     0.87025   0.75381   0.74702   0.00000  Uiso   1.00
O928   O     0.89280   0.90387   0.74519   0.00000  Uiso   1.00
O929   O     0.77387   0.76279   0.75482   0.00000  Uiso   1.00
O930   O     0.78514   0.83784   0.81998   0.00000  Uiso   1.00
O931   O     0.88153   0.82883   0.68003   0.00000  Uiso   1.00
O932   O     0.88152   0.82885   0.81218   0.00000  Uiso   1.00
O933   O     0.78515   0.83781   0.68783   0.00000  Uiso   1.00
O934   O     0.74823   0.71475   0.61279   0.00000  Uiso   1.00
Zn935  Zn    0.76898   0.83933   0.75521   0.00000  Uiso   1.00
Zn936  Zn    0.89769   0.82734   0.74479   0.00000  Uiso   1.00
loop_
_geom_bond_atom_site_label_1
_geom_bond_atom_site_label_2
_geom_bond_distance
_geom_bond_site_symmetry_2
_ccdc_geom_bond_type
C1     O44     1.287   .     A
C1     C22     1.400   .     S
C1     O41     1.277   .     A
C2     C4      1.403   .     A
C2     C17     1.493   .     S
C2     C13     1.403   .     A
C3     C26     1.403   .     A
C3     C25     1.426   .     S
C3     C5      1.400   .     A
C4     C24     1.426   .     S
C4     C6      1.400   .     A
C5     C7      1.395   .     A
C5     C18     1.456   .     S
C6     C19     1.456   .     S
C6     C8      1.395   .     A
C7     C9      1.416   .     A
C7     C14     1.403   .     A
C8     C15     1.403   .     A
C8     C10     1.416   .     A
C9     C11     1.421   .     A
C9     C478    1.406   1_554 S
C10    C13     1.421   .     A
C10    C477    1.406   .     S
C11    C26     1.403   .     A
C11    C21     1.403   .     A
C12    C23     1.400   .     S
C12    O43     1.277   .     A
C12    O45     1.287   .     A
C13    C20     1.403   .     A
C14    H27     1.083   .     S
C14    C488    1.379   1_554 S
C15    H29     1.083   .     S
C15    C489    1.379   .     S
C16    H36     1.085   .     S
C16    C26     1.493   .     S
C16    O50     1.221   .     D
C17    O42     1.221   .     D
C17    H28     1.085   .     S
C18    N39     1.157   .     T
C19    N40     1.157   .     T
C20    H30     1.080   .     S
C20    C482    1.379   .     S
C21    H31     1.080   .     S
C21    C483    1.379   1_554 S
C22    C179    1.335   .     S
C22    H188    1.088   .     S
C23    C334    1.335   1_545 S
C23    H345    1.088   1_545 S
C24    O46     1.285   .     A
C24    O48     1.285   .     A
C25    O47     1.285   .     A
C25    O49     1.285   .     A
H32    C334    1.088   1_545 S
H33    C179    1.088   .     S
H34    N141    1.029   1_455 S
H35    N90     1.029   .     S
N37    Zn52    2.019   .     S
N37    H86     1.029   .     S
N37    N90     1.278   .     S
N38    Zn51    2.019   .     S
N38    N141    1.278   1_455 S
N38    H139    1.029   1_455 S
O41    Zn51    1.953   .     S
O43    Zn52    1.953   .     S
O44    Zn52    1.975   .     S
O45    Zn51    1.975   .     S
O46    Zn51    2.000   .     S
O47    Zn52    2.000   .     S
O48    Zn52    2.025   .     S
O49    Zn51    2.025   .     S
C53    O96     1.287   .     A
C53    C74     1.400   .     S
C53    O93     1.277   .     A
C54    C56     1.403   .     A
C54    C69     1.493   .     S
C54    C65     1.403   .     A
C55    C78     1.403   .     A
C55    C77     1.426   .     S
C55    C57     1.400   .     A
C56    C76     1.426   .     S
C56    C58     1.400   .     A
C57    C59     1.395   .     A
C57    C70     1.456   .     S
C58    C71     1.456   .     S
C58    C60     1.395   .     A
C59    C61     1.416   .     A
C59    C66     1.403   .     A
C60    C67     1.403   .     A
C60    C62     1.416   .     A
C61    C63     1.421   .     A
C61    C530    1.406   1_554 S
C62    C65     1.421   .     A
C62    C529    1.406   .     S
C63    C78     1.403   .     A
C63    C73     1.403   .     A
C64    C75     1.400   .     S
C64    O95     1.277   .     A
C64    O97     1.287   .     A
C65    C72     1.403   .     A
C66    H79     1.083   .     S
C66    C540    1.379   1_554 S
C67    H81     1.083   .     S
C67    C541    1.379   .     S
C68    H88     1.085   .     S
C68    C78     1.493   .     S
C68    O102    1.221   .     D
C69    O94     1.221   .     D
C69    H80     1.085   .     S
C70    N91     1.157   .     T
C71    N92     1.157   .     T
C72    H82     1.080   .     S
C72    C534    1.379   .     S
C73    H83     1.080   .     S
C73    C535    1.379   1_554 S
C74    C231    1.335   .     S
C74    H240    1.088   .     S
C75    C386    1.335   1_545 S
C75    H397    1.088   1_545 S
C76    O98     1.285   .     A
C76    O100    1.285   .     A
C77    O99     1.285   .     A
C77    O101    1.285   .     A
H84    C386    1.088   1_545 S
H85    C231    1.088   .     S
H87    N142    1.029   .     S
N89    Zn104   2.019   .     S
N89    H138    1.029   .     S
N89    N142    1.278   .     S
N90    Zn103   2.019   .     S
O93    Zn103   1.953   .     S
O95    Zn104   1.953   .     S
O96    Zn104   1.975   .     S
O97    Zn103   1.975   .     S
O98    Zn103   2.000   .     S
O99    Zn104   2.000   .     S
O100   Zn104   2.025   .     S
O101   Zn103   2.025   .     S
C105   O148    1.287   .     A
C105   C126    1.400   .     S
C105   O145    1.277   .     A
C106   C108    1.403   .     A
C106   C121    1.493   .     S
C106   C117    1.403   .     A
C107   C130    1.403   .     A
C107   C129    1.426   .     S
C107   C109    1.400   .     A
C108   C128    1.426   .     S
C108   C110    1.400   .     A
C109   C111    1.395   .     A
C109   C122    1.456   .     S
C110   C123    1.456   .     S
C110   C112    1.395   .     A
C111   C113    1.416   .     A
C111   C118    1.403   .     A
C112   C119    1.403   .     A
C112   C114    1.416   .     A
C113   C115    1.421   .     A
C113   C582    1.406   1_554 S
C114   C117    1.421   .     A
C114   C581    1.406   .     S
C115   C130    1.403   .     A
C115   C125    1.403   .     A
C116   C127    1.400   .     S
C116   O147    1.277   .     A
C116   O149    1.287   .     A
C117   C124    1.403   .     A
C118   H131    1.083   .     S
C118   C592    1.379   1_554 S
C119   H133    1.083   .     S
C119   C593    1.379   .     S
C120   H140    1.085   .     S
C120   C130    1.493   .     S
C120   O154    1.221   .     D
C121   O146    1.221   .     D
C121   H132    1.085   .     S
C122   N143    1.157   .     T
C123   N144    1.157   .     T
C124   H134    1.080   .     S
C124   C586    1.379   .     S
C125   H135    1.080   .     S
C125   C587    1.379   1_554 S
C126   C283    1.335   .     S
C126   H292    1.088   .     S
C127   C438    1.335   1_545 S
C127   H449    1.088   1_545 S
C128   O150    1.285   .     A
C128   O152    1.285   .     A
C129   O151    1.285   .     A
C129   O153    1.285   .     A
H136   C438    1.088   1_545 S
H137   C283    1.088   .     S
H139   N38     1.029   1_655 S
N141   Zn156   2.019   .     S
N141   H34     1.029   1_655 S
N141   N38     1.278   1_655 S
N142   Zn155   2.019   .     S
O145   Zn155   1.953   .     S
O147   Zn156   1.953   .     S
O148   Zn156   1.975   .     S
O149   Zn155   1.975   .     S
O150   Zn155   2.000   .     S
O151   Zn156   2.000   .     S
O152   Zn156   2.025   .     S
O153   Zn155   2.025   .     S
C157   O200    1.287   .     A
C157   C178    1.400   .     S
C157   O197    1.277   .     A
C158   C160    1.403   .     A
C158   C173    1.493   .     S
C158   C169    1.403   .     A
C159   C182    1.403   .     A
C159   C181    1.426   .     S
C159   C161    1.400   .     A
C160   C180    1.426   .     S
C160   C162    1.400   .     A
C161   C163    1.395   .     A
C161   C174    1.456   .     S
C162   C175    1.456   .     S
C162   C164    1.395   .     A
C163   C165    1.416   .     A
C163   C170    1.403   .     A
C164   C171    1.403   .     A
C164   C166    1.416   .     A
C165   C167    1.421   .     A
C165   C634    1.406   1_554 S
C166   C169    1.421   .     A
C166   C633    1.406   .     S
C167   C182    1.403   .     A
C167   C177    1.403   .     A
C168   C179    1.400   .     S
C168   O199    1.277   .     A
C168   O201    1.287   .     A
C169   C176    1.403   .     A
C170   H183    1.083   .     S
C170   C644    1.379   1_554 S
C171   H185    1.083   .     S
C171   C645    1.379   .     S
C172   H192    1.085   .     S
C172   C182    1.493   .     S
C172   O206    1.221   .     D
C173   O198    1.221   .     D
C173   H184    1.085   .     S
C174   N195    1.157   .     T
C175   N196    1.157   .     T
C176   H186    1.080   .     S
C176   C638    1.379   .     S
C177   H187    1.080   .     S
C177   C639    1.379   1_554 S
C178   C335    1.335   .     S
C178   H344    1.088   .     S
C180   O202    1.285   .     A
C180   O204    1.285   .     A
C181   O203    1.285   .     A
C181   O205    1.285   .     A
H189   C335    1.088   .     S
H190   N297    1.029   1_455 S
H191   N246    1.029   .     S
N193   Zn208   2.019   .     S
N193   H242    1.029   .     S
N193   N246    1.278   .     S
N194   Zn207   2.019   .     S
N194   N297    1.278   1_455 S
N194   H295    1.029   1_455 S
O197   Zn207   1.953   .     S
O199   Zn208   1.953   .     S
O200   Zn208   1.975   .     S
O201   Zn207   1.975   .     S
O202   Zn207   2.000   .     S
O203   Zn208   2.000   .     S
O204   Zn208   2.025   .     S
O205   Zn207   2.025   .     S
C209   O252    1.287   .     A
C209   C230    1.400   .     S
C209   O249    1.277   .     A
C210   C212    1.403   .     A
C210   C225    1.493   .     S
C210   C221    1.403   .     A
C211   C234    1.403   .     A
C211   C233    1.426   .     S
C211   C213    1.400   .     A
C212   C232    1.426   .     S
C212   C214    1.400   .     A
C213   C215    1.395   .     A
C213   C226    1.456   .     S
C214   C227    1.456   .     S
C214   C216    1.395   .     A
C215   C217    1.416   .     A
C215   C222    1.403   .     A
C216   C223    1.403   .     A
C216   C218    1.416   .     A
C217   C219    1.421   .     A
C217   C686    1.406   1_554 S
C218   C221    1.421   .     A
C218   C685    1.406   .     S
C219   C234    1.403   .     A
C219   C229    1.403   .     A
C220   C231    1.400   .     S
C220   O251    1.277   .     A
C220   O253    1.287   .     A
C221   C228    1.403   .     A
C222   H235    1.083   .     S
C222   C696    1.379   1_554 S
C223   H237    1.083   .     S
C223   C697    1.379   .     S
C224   H244    1.085   .     S
C224   C234    1.493   .     S
C224   O258    1.221   .     D
C225   O250    1.221   .     D
C225   H236    1.085   .     S
C226   N247    1.157   .     T
C227   N248    1.157   .     T
C228   H238    1.080   .     S
C228   C690    1.379   .     S
C229   H239    1.080   .     S
C229   C691    1.379   1_554 S
C230   C387    1.335   .     S
C230   H396    1.088   .     S
C232   O254    1.285   .     A
C232   O256    1.285   .     A
C233   O255    1.285   .     A
C233   O257    1.285   .     A
H241   C387    1.088   .     S
H243   N298    1.029   .     S
N245   Zn260   2.019   .     S
N245   H294    1.029   .     S
N245   N298    1.278   .     S
N246   Zn259   2.019   .     S
O249   Zn259   1.953   .     S
O251   Zn260   1.953   .     S
O252   Zn260   1.975   .     S
O253   Zn259   1.975   .     S
O254   Zn259   2.000   .     S
O255   Zn260   2.000   .     S
O256   Zn260   2.025   .     S
O257   Zn259   2.025   .     S
C261   O304    1.287   .     A
C261   C282    1.400   .     S
C261   O301    1.277   .     A
C262   C264    1.403   .     A
C262   C277    1.493   .     S
C262   C273    1.403   .     A
C263   C286    1.403   .     A
C263   C285    1.426   .     S
C263   C265    1.400   .     A
C264   C284    1.426   .     S
C264   C266    1.400   .     A
C265   C267    1.395   .     A
C265   C278    1.456   .     S
C266   C279    1.456   .     S
C266   C268    1.395   .     A
C267   C269    1.416   .     A
C267   C274    1.403   .     A
C268   C275    1.403   .     A
C268   C270    1.416   .     A
C269   C271    1.421   .     A
C269   C738    1.406   1_554 S
C270   C273    1.421   .     A
C270   C737    1.406   .     S
C271   C286    1.403   .     A
C271   C281    1.403   .     A
C272   C283    1.400   .     S
C272   O303    1.277   .     A
C272   O305    1.287   .     A
C273   C280    1.403   .     A
C274   H287    1.083   .     S
C274   C748    1.379   1_554 S
C275   H289    1.083   .     S
C275   C749    1.379   .     S
C276   H296    1.085   .     S
C276   C286    1.493   .     S
C276   O310    1.221   .     D
C277   O302    1.221   .     D
C277   H288    1.085   .     S
C278   N299    1.157   .     T
C279   N300    1.157   .     T
C280   H290    1.080   .     S
C280   C742    1.379   .     S
C281   H291    1.080   .     S
C281   C743    1.379   1_554 S
C282   C439    1.335   .     S
C282   H448    1.088   .     S
C284   O306    1.285   .     A
C284   O308    1.285   .     A
C285   O307    1.285   .     A
C285   O309    1.285   .     A
H293   C439    1.088   .     S
H295   N194    1.029   1_655 S
N297   Zn312   2.019   .     S
N297   H190    1.029   1_655 S
N297   N194    1.278   1_655 S
N298   Zn311   2.019   .     S
O301   Zn311   1.953   .     S
O303   Zn312   1.953   .     S
O304   Zn312   1.975   .     S
O305   Zn311   1.975   .     S
O306   Zn311   2.000   .     S
O307   Zn312   2.000   .     S
O308   Zn312   2.025   .     S
O309   Zn311   2.025   .     S
C313   O356    1.287   .     A
C313   C334    1.400   .     S
C313   O353    1.277   .     A
C314   C316    1.403   .     A
C314   C329    1.493   .     S
C314   C325    1.403   .     A
C315   C338    1.403   .     A
C315   C337    1.426   .     S
C315   C317    1.400   .     A
C316   C336    1.426   .     S
C316   C318    1.400   .     A
C317   C319    1.395   .     A
C317   C330    1.456   .     S
C318   C331    1.456   .     S
C318   C320    1.395   .     A
C319   C321    1.416   .     A
C319   C326    1.403   .     A
C320   C327    1.403   .     A
C320   C322    1.416   .     A
C321   C323    1.421   .     A
C321   C790    1.406   1_554 S
C322   C325    1.421   .     A
C322   C789    1.406   .     S
C323   C338    1.403   .     A
C323   C333    1.403   .     A
C324   C335    1.400   .     S
C324   O355    1.277   .     A
C324   O357    1.287   .     A
C325   C332    1.403   .     A
C326   H339    1.083   .     S
C326   C800    1.379   1_554 S
C327   H341    1.083   .     S
C327   C801    1.379   .     S
C328   H348    1.085   .     S
C328   C338    1.493   .     S
C328   O362    1.221   .     D
C329   O354    1.221   .     D
C329   H340    1.085   .     S
C330   N351    1.157   .     T
C331   N352    1.157   .     T
C332   H342    1.080   .     S
C332   C794    1.379   .     S
C333   H343    1.080   .     S
C333   C795    1.379   1_554 S
C334   C23     1.335   1_565 S
C334   H32     1.088   1_565 S
C336   O358    1.285   .     A
C336   O360    1.285   .     A
C337   O359    1.285   .     A
C337   O361    1.285   .     A
H345   C23     1.088   1_565 S
H346   N453    1.029   1_455 S
H347   N402    1.029   .     S
N349   Zn364   2.019   .     S
N349   H398    1.029   .     S
N349   N402    1.278   .     S
N350   Zn363   2.019   .     S
N350   N453    1.278   1_455 S
N350   H451    1.029   1_455 S
O353   Zn363   1.953   .     S
O355   Zn364   1.953   .     S
O356   Zn364   1.975   .     S
O357   Zn363   1.975   .     S
O358   Zn363   2.000   .     S
O359   Zn364   2.000   .     S
O360   Zn364   2.025   .     S
O361   Zn363   2.025   .     S
C365   O408    1.287   .     A
C365   C386    1.400   .     S
C365   O405    1.277   .     A
C366   C368    1.403   .     A
C366   C381    1.493   .     S
C366   C377    1.403   .     A
C367   C390    1.403   .     A
C367   C389    1.426   .     S
C367   C369    1.400   .     A
C368   C388    1.426   .     S
C368   C370    1.400   .     A
C369   C371    1.395   .     A
C369   C382    1.456   .     S
C370   C383    1.456   .     S
C370   C372    1.395   .     A
C371   C373    1.416   .     A
C371   C378    1.403   .     A
C372   C379    1.403   .     A
C372   C374    1.416   .     A
C373   C375    1.421   .     A
C373   C842    1.406   1_554 S
C374   C377    1.421   .     A
C374   C841    1.406   .     S
C375   C390    1.403   .     A
C375   C385    1.403   .     A
C376   C387    1.400   .     S
C376   O407    1.277   .     A
C376   O409    1.287   .     A
C377   C384    1.403   .     A
C378   H391    1.083   .     S
C378   C852    1.379   1_554 S
C379   H393    1.083   .     S
C379   C853    1.379   .     S
C380   H400    1.085   .     S
C380   C390    1.493   .     S
C380   O414    1.221   .     D
C381   O406    1.221   .     D
C381   H392    1.085   .     S
C382   N403    1.157   .     T
C383   N404    1.157   .     T
C384   H394    1.080   .     S
C384   C846    1.379   .     S
C385   H395    1.080   .     S
C385   C847    1.379   1_554 S
C386   C75     1.335   1_565 S
C386   H84     1.088   1_565 S
C388   O410    1.285   .     A
C388   O412    1.285   .     A
C389   O411    1.285   .     A
C389   O413    1.285   .     A
H397   C75     1.088   1_565 S
H399   N454    1.029   .     S
N401   Zn416   2.019   .     S
N401   H450    1.029   .     S
N401   N454    1.278   .     S
N402   Zn415   2.019   .     S
O405   Zn415   1.953   .     S
O407   Zn416   1.953   .     S
O408   Zn416   1.975   .     S
O409   Zn415   1.975   .     S
O410   Zn415   2.000   .     S
O411   Zn416   2.000   .     S
O412   Zn416   2.025   .     S
O413   Zn415   2.025   .     S
C417   O460    1.287   .     A
C417   C438    1.400   .     S
C417   O457    1.277   .     A
C418   C420    1.403   .     A
C418   C433    1.493   .     S
C418   C429    1.403   .     A
C419   C442    1.403   .     A
C419   C441    1.426   .     S
C419   C421    1.400   .     A
C420   C440    1.426   .     S
C420   C422    1.400   .     A
C421   C423    1.395   .     A
C421   C434    1.456   .     S
C422   C435    1.456   .     S
C422   C424    1.395   .     A
C423   C425    1.416   .     A
C423   C430    1.403   .     A
C424   C431    1.403   .     A
C424   C426    1.416   .     A
C425   C427    1.421   .     A
C425   C894    1.406   1_554 S
C426   C429    1.421   .     A
C426   C893    1.406   .     S
C427   C442    1.403   .     A
C427   C437    1.403   .     A
C428   C439    1.400   .     S
C428   O459    1.277   .     A
C428   O461    1.287   .     A
C429   C436    1.403   .     A
C430   H443    1.083   .     S
C430   C904    1.379   1_554 S
C431   H445    1.083   .     S
C431   C905    1.379   .     S
C432   H452    1.085   .     S
C432   C442    1.493   .     S
C432   O466    1.221   .     D
C433   O458    1.221   .     D
C433   H444    1.085   .     S
C434   N455    1.157   .     T
C435   N456    1.157   .     T
C436   H446    1.080   .     S
C436   C898    1.379   .     S
C437   H447    1.080   .     S
C437   C899    1.379   1_554 S
C438   C127    1.335   1_565 S
C438   H136    1.088   1_565 S
C440   O462    1.285   .     A
C440   O464    1.285   .     A
C441   O463    1.285   .     A
C441   O465    1.285   .     A
H449   C127    1.088   1_565 S
H451   N350    1.029   1_655 S
N453   Zn468   2.019   .     S
N453   H346    1.029   1_655 S
N453   N350    1.278   1_655 S
N454   Zn467   2.019   .     S
O457   Zn467   1.953   .     S
O459   Zn468   1.953   .     S
O460   Zn468   1.975   .     S
O461   Zn467   1.975   .     S
O462   Zn467   2.000   .     S
O463   Zn468   2.000   .     S
O464   Zn468   2.025   .     S
O465   Zn467   2.025   .     S
C469   O512    1.287   .     A
C469   C490    1.400   .     S
C469   O509    1.277   .     A
C470   C472    1.403   .     A
C470   C485    1.493   .     S
C470   C481    1.403   .     A
C471   C494    1.403   .     A
C471   C493    1.426   .     S
C471   C473    1.400   .     A
C472   C492    1.426   .     S
C472   C474    1.400   .     A
C473   C475    1.395   .     A
C473   C486    1.456   .     S
C474   C487    1.456   .     S
C474   C476    1.395   .     A
C475   C477    1.416   .     A
C475   C482    1.403   .     A
C476   C483    1.403   .     A
C476   C478    1.416   .     A
C477   C479    1.421   .     A
C478   C481    1.421   .     A
C478   C9      1.406   1_556 S
C479   C494    1.403   .     A
C479   C489    1.403   .     A
C480   C491    1.400   .     S
C480   O511    1.277   .     A
C480   O513    1.287   .     A
C481   C488    1.403   .     A
C482   H495    1.083   .     S
C483   H497    1.083   .     S
C483   C21     1.379   1_556 S
C484   H504    1.085   .     S
C484   C494    1.493   .     S
C484   O518    1.221   .     D
C485   O510    1.221   .     D
C485   H496    1.085   .     S
C486   N507    1.157   .     T
C487   N508    1.157   .     T
C488   H498    1.080   .     S
C488   C14     1.379   1_556 S
C489   H499    1.080   .     S
C490   C647    1.335   .     S
C490   H656    1.088   .     S
C491   C802    1.335   1_545 S
C491   H813    1.088   1_545 S
C492   O514    1.285   .     A
C492   O516    1.285   .     A
C493   O515    1.285   .     A
C493   O517    1.285   .     A
H500   C802    1.088   1_545 S
H501   C647    1.088   .     S
H502   N609    1.029   1_455 S
H503   N558    1.029   .     S
N505   Zn520   2.019   .     S
N505   H554    1.029   .     S
N505   N558    1.278   .     S
N506   Zn519   2.019   .     S
N506   N609    1.278   1_455 S
N506   H607    1.029   1_455 S
O509   Zn519   1.953   .     S
O511   Zn520   1.953   .     S
O512   Zn520   1.975   .     S
O513   Zn519   1.975   .     S
O514   Zn519   2.000   .     S
O515   Zn520   2.000   .     S
O516   Zn520   2.025   .     S
O517   Zn519   2.025   .     S
C521   O564    1.287   .     A
C521   C542    1.400   .     S
C521   O561    1.277   .     A
C522   C524    1.403   .     A
C522   C537    1.493   .     S
C522   C533    1.403   .     A
C523   C546    1.403   .     A
C523   C545    1.426   .     S
C523   C525    1.400   .     A
C524   C544    1.426   .     S
C524   C526    1.400   .     A
C525   C527    1.395   .     A
C525   C538    1.456   .     S
C526   C539    1.456   .     S
C526   C528    1.395   .     A
C527   C529    1.416   .     A
C527   C534    1.403   .     A
C528   C535    1.403   .     A
C528   C530    1.416   .     A
C529   C531    1.421   .     A
C530   C533    1.421   .     A
C530   C61     1.406   1_556 S
C531   C546    1.403   .     A
C531   C541    1.403   .     A
C532   C543    1.400   .     S
C532   O563    1.277   .     A
C532   O565    1.287   .     A
C533   C540    1.403   .     A
C534   H547    1.083   .     S
C535   H549    1.083   .     S
C535   C73     1.379   1_556 S
C536   H556    1.085   .     S
C536   C546    1.493   .     S
C536   O570    1.221   .     D
C537   O562    1.221   .     D
C537   H548    1.085   .     S
C538   N559    1.157   .     T
C539   N560    1.157   .     T
C540   H550    1.080   .     S
C540   C66     1.379   1_556 S
C541   H551    1.080   .     S
C542   C699    1.335   .     S
C542   H708    1.088   .     S
C543   C854    1.335   1_545 S
C543   H865    1.088   1_545 S
C544   O566    1.285   .     A
C544   O568    1.285   .     A
C545   O567    1.285   .     A
C545   O569    1.285   .     A
H552   C854    1.088   1_545 S
H553   C699    1.088   .     S
H555   N610    1.029   .     S
N557   Zn572   2.019   .     S
N557   H606    1.029   .     S
N557   N610    1.278   .     S
N558   Zn571   2.019   .     S
O561   Zn571   1.953   .     S
O563   Zn572   1.953   .     S
O564   Zn572   1.975   .     S
O565   Zn571   1.975   .     S
O566   Zn571   2.000   .     S
O567   Zn572   2.000   .     S
O568   Zn572   2.025   .     S
O569   Zn571   2.025   .     S
C573   O616    1.287   .     A
C573   C594    1.400   .     S
C573   O613    1.277   .     A
C574   C576    1.403   .     A
C574   C589    1.493   .     S
C574   C585    1.403   .     A
C575   C598    1.403   .     A
C575   C597    1.426   .     S
C575   C577    1.400   .     A
C576   C596    1.426   .     S
C576   C578    1.400   .     A
C577   C579    1.395   .     A
C577   C590    1.456   .     S
C578   C591    1.456   .     S
C578   C580    1.395   .     A
C579   C581    1.416   .     A
C579   C586    1.403   .     A
C580   C587    1.403   .     A
C580   C582    1.416   .     A
C581   C583    1.421   .     A
C582   C585    1.421   .     A
C582   C113    1.406   1_556 S
C583   C598    1.403   .     A
C583   C593    1.403   .     A
C584   C595    1.400   .     S
C584   O615    1.277   .     A
C584   O617    1.287   .     A
C585   C592    1.403   .     A
C586   H599    1.083   .     S
C587   H601    1.083   .     S
C587   C125    1.379   1_556 S
C588   H608    1.085   .     S
C588   C598    1.493   .     S
C588   O622    1.221   .     D
C589   O614    1.221   .     D
C589   H600    1.085   .     S
C590   N611    1.157   .     T
C591   N612    1.157   .     T
C592   H602    1.080   .     S
C592   C118    1.379   1_556 S
C593   H603    1.080   .     S
C594   C751    1.335   .     S
C594   H760    1.088   .     S
C595   C906    1.335   1_545 S
C595   H917    1.088   1_545 S
C596   O618    1.285   .     A
C596   O620    1.285   .     A
C597   O619    1.285   .     A
C597   O621    1.285   .     A
H604   C906    1.088   1_545 S
H605   C751    1.088   .     S
H607   N506    1.029   1_655 S
N609   Zn624   2.019   .     S
N609   H502    1.029   1_655 S
N609   N506    1.278   1_655 S
N610   Zn623   2.019   .     S
O613   Zn623   1.953   .     S
O615   Zn624   1.953   .     S
O616   Zn624   1.975   .     S
O617   Zn623   1.975   .     S
O618   Zn623   2.000   .     S
O619   Zn624   2.000   .     S
O620   Zn624   2.025   .     S
O621   Zn623   2.025   .     S
C625   O668    1.287   .     A
C625   C646    1.400   .     S
C625   O665    1.277   .     A
C626   C628    1.403   .     A
C626   C641    1.493   .     S
C626   C637    1.403   .     A
C627   C650    1.403   .     A
C627   C649    1.426   .     S
C627   C629    1.400   .     A
C628   C648    1.426   .     S
C628   C630    1.400   .     A
C629   C631    1.395   .     A
C629   C642    1.456   .     S
C630   C643    1.456   .     S
C630   C632    1.395   .     A
C631   C633    1.416   .     A
C631   C638    1.403   .     A
C632   C639    1.403   .     A
C632   C634    1.416   .     A
C633   C635    1.421   .     A
C634   C637    1.421   .     A
C634   C165    1.406   1_556 S
C635   C650    1.403   .     A
C635   C645    1.403   .     A
C636   C647    1.400   .     S
C636   O667    1.277   .     A
C636   O669    1.287   .     A
C637   C644    1.403   .     A
C638   H651    1.083   .     S
C639   H653    1.083   .     S
C639   C177    1.379   1_556 S
C640   H660    1.085   .     S
C640   C650    1.493   .     S
C640   O674    1.221   .     D
C641   O666    1.221   .     D
C641   H652    1.085   .     S
C642   N663    1.157   .     T
C643   N664    1.157   .     T
C644   H654    1.080   .     S
C644   C170    1.379   1_556 S
C645   H655    1.080   .     S
C646   C803    1.335   .     S
C646   H812    1.088   .     S
C648   O670    1.285   .     A
C648   O672    1.285   .     A
C649   O671    1.285   .     A
C649   O673    1.285   .     A
H657   C803    1.088   .     S
H658   N765    1.029   1_455 S
H659   N714    1.029   .     S
N661   Zn676   2.019   .     S
N661   H710    1.029   .     S
N661   N714    1.278   .     S
N662   Zn675   2.019   .     S
N662   N765    1.278   1_455 S
N662   H763    1.029   1_455 S
O665   Zn675   1.953   .     S
O667   Zn676   1.953   .     S
O668   Zn676   1.975   .     S
O669   Zn675   1.975   .     S
O670   Zn675   2.000   .     S
O671   Zn676   2.000   .     S
O672   Zn676   2.025   .     S
O673   Zn675   2.025   .     S
C677   O720    1.287   .     A
C677   C698    1.400   .     S
C677   O717    1.277   .     A
C678   C680    1.403   .     A
C678   C693    1.493   .     S
C678   C689    1.403   .     A
C679   C702    1.403   .     A
C679   C701    1.426   .     S
C679   C681    1.400   .     A
C680   C700    1.426   .     S
C680   C682    1.400   .     A
C681   C683    1.395   .     A
C681   C694    1.456   .     S
C682   C695    1.456   .     S
C682   C684    1.395   .     A
C683   C685    1.416   .     A
C683   C690    1.403   .     A
C684   C691    1.403   .     A
C684   C686    1.416   .     A
C685   C687    1.421   .     A
C686   C689    1.421   .     A
C686   C217    1.406   1_556 S
C687   C702    1.403   .     A
C687   C697    1.403   .     A
C688   C699    1.400   .     S
C688   O719    1.277   .     A
C688   O721    1.287   .     A
C689   C696    1.403   .     A
C690   H703    1.083   .     S
C691   H705    1.083   .     S
C691   C229    1.379   1_556 S
C692   H712    1.085   .     S
C692   C702    1.493   .     S
C692   O726    1.221   .     D
C693   O718    1.221   .     D
C693   H704    1.085   .     S
C694   N715    1.157   .     T
C695   N716    1.157   .     T
C696   H706    1.080   .     S
C696   C222    1.379   1_556 S
C697   H707    1.080   .     S
C698   C855    1.335   .     S
C698   H864    1.088   .     S
C700   O722    1.285   .     A
C700   O724    1.285   .     A
C701   O723    1.285   .     A
C701   O725    1.285   .     A
H709   C855    1.088   .     S
H711   N766    1.029   .     S
N713   Zn728   2.019   .     S
N713   H762    1.029   .     S
N713   N766    1.278   .     S
N714   Zn727   2.019   .     S
O717   Zn727   1.953   .     S
O719   Zn728   1.953   .     S
O720   Zn728   1.975   .     S
O721   Zn727   1.975   .     S
O722   Zn727   2.000   .     S
O723   Zn728   2.000   .     S
O724   Zn728   2.025   .     S
O725   Zn727   2.025   .     S
C729   O772    1.287   .     A
C729   C750    1.400   .     S
C729   O769    1.277   .     A
C730   C732    1.403   .     A
C730   C745    1.493   .     S
C730   C741    1.403   .     A
C731   C754    1.403   .     A
C731   C753    1.426   .     S
C731   C733    1.400   .     A
C732   C752    1.426   .     S
C732   C734    1.400   .     A
C733   C735    1.395   .     A
C733   C746    1.456   .     S
C734   C747    1.456   .     S
C734   C736    1.395   .     A
C735   C737    1.416   .     A
C735   C742    1.403   .     A
C736   C743    1.403   .     A
C736   C738    1.416   .     A
C737   C739    1.421   .     A
C738   C741    1.421   .     A
C738   C269    1.406   1_556 S
C739   C754    1.403   .     A
C739   C749    1.403   .     A
C740   C751    1.400   .     S
C740   O771    1.277   .     A
C740   O773    1.287   .     A
C741   C748    1.403   .     A
C742   H755    1.083   .     S
C743   H757    1.083   .     S
C743   C281    1.379   1_556 S
C744   H764    1.085   .     S
C744   C754    1.493   .     S
C744   O778    1.221   .     D
C745   O770    1.221   .     D
C745   H756    1.085   .     S
C746   N767    1.157   .     T
C747   N768    1.157   .     T
C748   H758    1.080   .     S
C748   C274    1.379   1_556 S
C749   H759    1.080   .     S
C750   C907    1.335   .     S
C750   H916    1.088   .     S
C752   O774    1.285   .     A
C752   O776    1.285   .     A
C753   O775    1.285   .     A
C753   O777    1.285   .     A
H761   C907    1.088   .     S
H763   N662    1.029   1_655 S
N765   Zn780   2.019   .     S
N765   H658    1.029   1_655 S
N765   N662    1.278   1_655 S
N766   Zn779   2.019   .     S
O769   Zn779   1.953   .     S
O771   Zn780   1.953   .     S
O772   Zn780   1.975   .     S
O773   Zn779   1.975   .     S
O774   Zn779   2.000   .     S
O775   Zn780   2.000   .     S
O776   Zn780   2.025   .     S
O777   Zn779   2.025   .     S
C781   O824    1.287   .     A
C781   C802    1.400   .     S
C781   O821    1.277   .     A
C782   C784    1.403   .     A
C782   C797    1.493   .     S
C782   C793    1.403   .     A
C783   C806    1.403   .     A
C783   C805    1.426   .     S
C783   C785    1.400   .     A
C784   C804    1.426   .     S
C784   C786    1.400   .     A
C785   C787    1.395   .     A
C785   C798    1.456   .     S
C786   C799    1.456   .     S
C786   C788    1.395   .     A
C787   C789    1.416   .     A
C787   C794    1.403   .     A
C788   C795    1.403   .     A
C788   C790    1.416   .     A
C789   C791    1.421   .     A
C790   C793    1.421   .     A
C790   C321    1.406   1_556 S
C791   C806    1.403   .     A
C791   C801    1.403   .     A
C792   C803    1.400   .     S
C792   O823    1.277   .     A
C792   O825    1.287   .     A
C793   C800    1.403   .     A
C794   H807    1.083   .     S
C795   H809    1.083   .     S
C795   C333    1.379   1_556 S
C796   H816    1.085   .     S
C796   C806    1.493   .     S
C796   O830    1.221   .     D
C797   O822    1.221   .     D
C797   H808    1.085   .     S
C798   N819    1.157   .     T
C799   N820    1.157   .     T
C800   H810    1.080   .     S
C800   C326    1.379   1_556 S
C801   H811    1.080   .     S
C802   C491    1.335   1_565 S
C802   H500    1.088   1_565 S
C804   O826    1.285   .     A
C804   O828    1.285   .     A
C805   O827    1.285   .     A
C805   O829    1.285   .     A
H813   C491    1.088   1_565 S
H814   N921    1.029   1_455 S
H815   N870    1.029   .     S
N817   Zn832   2.019   .     S
N817   H866    1.029   .     S
N817   N870    1.278   .     S
N818   Zn831   2.019   .     S
N818   N921    1.278   1_455 S
N818   H919    1.029   1_455 S
O821   Zn831   1.953   .     S
O823   Zn832   1.953   .     S
O824   Zn832   1.975   .     S
O825   Zn831   1.975   .     S
O826   Zn831   2.000   .     S
O827   Zn832   2.000   .     S
O828   Zn832   2.025   .     S
O829   Zn831   2.025   .     S
C833   O876    1.287   .     A
C833   C854    1.400   .     S
C833   O873    1.277   .     A
C834   C836    1.403   .     A
C834   C849    1.493   .     S
C834   C845    1.403   .     A
C835   C858    1.403   .     A
C835   C857    1.426   .     S
C835   C837    1.400   .     A
C836   C856    1.426   .     S
C836   C838    1.400   .     A
C837   C839    1.395   .     A
C837   C850    1.456   .     S
C838   C851    1.456   .     S
C838   C840    1.395   .     A
C839   C841    1.416   .     A
C839   C846    1.403   .     A
C840   C847    1.403   .     A
C840   C842    1.416   .     A
C841   C843    1.421   .     A
C842   C845    1.421   .     A
C842   C373    1.406   1_556 S
C843   C858    1.403   .     A
C843   C853    1.403   .     A
C844   C855    1.400   .     S
C844   O875    1.277   .     A
C844   O877    1.287   .     A
C845   C852    1.403   .     A
C846   H859    1.083   .     S
C847   H861    1.083   .     S
C847   C385    1.379   1_556 S
C848   H868    1.085   .     S
C848   C858    1.493   .     S
C848   O882    1.221   .     D
C849   O874    1.221   .     D
C849   H860    1.085   .     S
C850   N871    1.157   .     T
C851   N872    1.157   .     T
C852   H862    1.080   .     S
C852   C378    1.379   1_556 S
C853   H863    1.080   .     S
C854   C543    1.335   1_565 S
C854   H552    1.088   1_565 S
C856   O878    1.285   .     A
C856   O880    1.285   .     A
C857   O879    1.285   .     A
C857   O881    1.285   .     A
H865   C543    1.088   1_565 S
H867   N922    1.029   .     S
N869   Zn884   2.019   .     S
N869   H918    1.029   .     S
N869   N922    1.278   .     S
N870   Zn883   2.019   .     S
O873   Zn883   1.953   .     S
O875   Zn884   1.953   .     S
O876   Zn884   1.975   .     S
O877   Zn883   1.975   .     S
O878   Zn883   2.000   .     S
O879   Zn884   2.000   .     S
O880   Zn884   2.025   .     S
O881   Zn883   2.025   .     S
C885   O928    1.287   .     A
C885   C906    1.400   .     S
C885   O925    1.277   .     A
C886   C888    1.403   .     A
C886   C901    1.493   .     S
C886   C897    1.403   .     A
C887   C910    1.403   .     A
C887   C909    1.426   .     S
C887   C889    1.400   .     A
C888   C908    1.426   .     S
C888   C890    1.400   .     A
C889   C891    1.395   .     A
C889   C902    1.456   .     S
C890   C903    1.456   .     S
C890   C892    1.395   .     A
C891   C893    1.416   .     A
C891   C898    1.403   .     A
C892   C899    1.403   .     A
C892   C894    1.416   .     A
C893   C895    1.421   .     A
C894   C897    1.421   .     A
C894   C425    1.406   1_556 S
C895   C910    1.403   .     A
C895   C905    1.403   .     A
C896   C907    1.400   .     S
C896   O927    1.277   .     A
C896   O929    1.287   .     A
C897   C904    1.403   .     A
C898   H911    1.083   .     S
C899   H913    1.083   .     S
C899   C437    1.379   1_556 S
C900   H920    1.085   .     S
C900   C910    1.493   .     S
C900   O934    1.221   .     D
C901   O926    1.221   .     D
C901   H912    1.085   .     S
C902   N923    1.157   .     T
C903   N924    1.157   .     T
C904   H914    1.080   .     S
C904   C430    1.379   1_556 S
C905   H915    1.080   .     S
C906   C595    1.335   1_565 S
C906   H604    1.088   1_565 S
C908   O930    1.285   .     A
C908   O932    1.285   .     A
C909   O931    1.285   .     A
C909   O933    1.285   .     A
H917   C595    1.088   1_565 S
H919   N818    1.029   1_655 S
N921   Zn936   2.019   .     S
N921   H814    1.029   1_655 S
N921   N818    1.278   1_655 S
N922   Zn935   2.019   .     S
O925   Zn935   1.953   .     S
O927   Zn936   1.953   .     S
O928   Zn936   1.975   .     S
O929   Zn935   1.975   .     S
O930   Zn935   2.000   .     S
O931   Zn936   2.000   .     S
O932   Zn936   2.025   .     S
O933   Zn935   2.025   .     S
