data_str_m3_o1_o10_pcu_sym.153
_audit_creation_date              2020-01-03
_audit_creation_method            'Materials Studio'
_symmetry_space_group_name_H-M    'P1'
_symmetry_Int_Tables_number       1
_symmetry_cell_setting            triclinic
loop_
_symmetry_equiv_pos_as_xyz
  x,y,z
_cell_length_a                    25.5079
_cell_length_b                    32.1208
_cell_length_c                    29.4894
_cell_angle_alpha                 89.6666
_cell_angle_beta                  98.7498
_cell_angle_gamma                 90.1432
loop_
_atom_site_label
_atom_site_type_symbol
_atom_site_fract_x
_atom_site_fract_y
_atom_site_fract_z
_atom_site_U_iso_or_equiv
_atom_site_adp_type
_atom_site_occupancy
C1     C     0.16791   0.08668   0.16698   0.00000  Uiso   1.00
C2     C     0.16552   0.24662   0.16635   0.00000  Uiso   1.00
C3     C     0.06758   0.16009   0.15509   0.00000  Uiso   1.00
C4     C     0.26605   0.16119   0.17873   0.00000  Uiso   1.00
C5     C     0.01370   0.14495   0.15014   0.00000  Uiso   1.00
C6     C     0.32074   0.14876   0.18657   0.00000  Uiso   1.00
C7     C     0.14111   0.02239   0.12904   0.00000  Uiso   1.00
C8     C     0.19331   0.31081   0.20395   0.00000  Uiso   1.00
C9     C     0.13847   0.31305   0.12824   0.00000  Uiso   1.00
C10    C     0.19521   0.02019   0.20506   0.00000  Uiso   1.00
C11    C     0.16520   0.29075   0.16593   0.00000  Uiso   1.00
C12    C     0.16862   0.04251   0.16731   0.00000  Uiso   1.00
C13    C     0.18226   0.20116   0.02580   0.00000  Uiso   1.00
C14    C     0.15165   0.13202   0.30761   0.00000  Uiso   1.00
C15    C     0.18229   0.20114   0.31120   0.00000  Uiso   1.00
C16    C     0.15172   0.13201   0.02222   0.00000  Uiso   1.00
H17    H     0.12074   0.03998   0.10016   0.00000  Uiso   1.00
H18    H     0.21441   0.29309   0.23247   0.00000  Uiso   1.00
H19    H     0.19482   0.22875   0.04536   0.00000  Uiso   1.00
H20    H     0.13934   0.10435   0.28811   0.00000  Uiso   1.00
H21    H     0.19495   0.22870   0.29462   0.00000  Uiso   1.00
H22    H     0.13947   0.10433   0.03882   0.00000  Uiso   1.00
N23    N     0.16665   0.16666   0.28573   0.00000  Uiso   1.00
N24    N     0.16668   0.16668   0.04760   0.00000  Uiso   1.00
O25    O     0.16666   0.10558   0.20487   0.00000  Uiso   1.00
O26    O     0.16667   0.22775   0.12846   0.00000  Uiso   1.00
O27    O     0.16666   0.10559   0.12843   0.00000  Uiso   1.00
O28    O     0.16667   0.22774   0.20490   0.00000  Uiso   1.00
O29    O     0.09058   0.16666   0.19595   0.00000  Uiso   1.00
O30    O     0.24275   0.16667   0.13739   0.00000  Uiso   1.00
O31    O     0.09058   0.16667   0.11950   0.00000  Uiso   1.00
O32    O     0.24275   0.16666   0.21383   0.00000  Uiso   1.00
Zn33   Zn    0.16667   0.16666   0.21771   0.00000  Uiso   1.00
Zn34   Zn    0.16667   0.16667   0.11563   0.00000  Uiso   1.00
C35    C     0.32268   0.12482   0.10486   0.00000  Uiso   1.00
C36    C     0.02298   0.08817   0.09244   0.00000  Uiso   1.00
C37    C     0.32722   0.06317   0.05243   0.00000  Uiso   1.00
H38    H     0.29058   0.04901   0.06191   0.00000  Uiso   1.00
H39    H     0.31652   0.08355   0.02194   0.00000  Uiso   1.00
H40    H     0.01997   0.03784   0.04347   0.00000  Uiso   1.00
H41    H     0.06060   0.09977   0.08248   0.00000  Uiso   1.00
H42    H     0.03253   0.06709   0.12261   0.00000  Uiso   1.00
H43    H     0.28301   0.11150   0.10729   0.00000  Uiso   1.00
H44    H     0.31846   0.14855   0.07700   0.00000  Uiso   1.00
C45    C     0.01086   0.13801   0.23629   0.00000  Uiso   1.00
C46    C     0.01993   0.17682   0.26733   0.00000  Uiso   1.00
C47    C     0.01460   0.16640   0.31699   0.00000  Uiso   1.00
H48    H     0.30632   0.15760   0.31949   0.00000  Uiso   1.00
H49    H     0.04122   0.14027   0.32982   0.00000  Uiso   1.00
H50    H     0.02547   0.19400   0.00564   0.00000  Uiso   1.00
H51    H     0.06010   0.18979   0.26661   0.00000  Uiso   1.00
H52    H     0.32452   0.20191   0.25529   0.00000  Uiso   1.00
H53    H     0.31582   0.11657   0.24969   0.00000  Uiso   1.00
H54    H     0.04771   0.11928   0.23864   0.00000  Uiso   1.00
C55    C     0.10663   0.29333   0.08939   0.00000  Uiso   1.00
N56    N     0.08115   0.27760   0.05832   0.00000  Uiso   1.00
C57    C     0.22575   0.03989   0.24453   0.00000  Uiso   1.00
N58    N     0.25007   0.05554   0.27622   0.00000  Uiso   1.00
C59    C     0.50125   0.08668   0.16698   0.00000  Uiso   1.00
C60    C     0.49885   0.24662   0.16635   0.00000  Uiso   1.00
C61    C     0.40092   0.16009   0.15509   0.00000  Uiso   1.00
C62    C     0.59938   0.16119   0.17873   0.00000  Uiso   1.00
C63    C     0.34703   0.14495   0.15014   0.00000  Uiso   1.00
C64    C     0.65407   0.14876   0.18657   0.00000  Uiso   1.00
C65    C     0.47444   0.02239   0.12904   0.00000  Uiso   1.00
C66    C     0.52665   0.31081   0.20395   0.00000  Uiso   1.00
C67    C     0.47180   0.31305   0.12824   0.00000  Uiso   1.00
C68    C     0.52854   0.02019   0.20506   0.00000  Uiso   1.00
C69    C     0.49853   0.29075   0.16593   0.00000  Uiso   1.00
C70    C     0.50195   0.04251   0.16731   0.00000  Uiso   1.00
C71    C     0.51559   0.20116   0.02580   0.00000  Uiso   1.00
C72    C     0.48498   0.13202   0.30761   0.00000  Uiso   1.00
C73    C     0.51563   0.20114   0.31120   0.00000  Uiso   1.00
C74    C     0.48505   0.13201   0.02222   0.00000  Uiso   1.00
H75    H     0.45408   0.03998   0.10016   0.00000  Uiso   1.00
H76    H     0.54775   0.29309   0.23247   0.00000  Uiso   1.00
H77    H     0.52816   0.22875   0.04536   0.00000  Uiso   1.00
H78    H     0.47267   0.10435   0.28811   0.00000  Uiso   1.00
H79    H     0.52828   0.22870   0.29462   0.00000  Uiso   1.00
H80    H     0.47280   0.10433   0.03882   0.00000  Uiso   1.00
N81    N     0.49999   0.16666   0.28573   0.00000  Uiso   1.00
N82    N     0.50001   0.16668   0.04760   0.00000  Uiso   1.00
O83    O     0.50000   0.10558   0.20487   0.00000  Uiso   1.00
O84    O     0.50000   0.22775   0.12846   0.00000  Uiso   1.00
O85    O     0.50000   0.10559   0.12843   0.00000  Uiso   1.00
O86    O     0.50000   0.22774   0.20490   0.00000  Uiso   1.00
O87    O     0.42392   0.16666   0.19595   0.00000  Uiso   1.00
O88    O     0.57608   0.16667   0.13739   0.00000  Uiso   1.00
O89    O     0.42392   0.16667   0.11950   0.00000  Uiso   1.00
O90    O     0.57608   0.16666   0.21383   0.00000  Uiso   1.00
Zn91   Zn    0.50000   0.16666   0.21771   0.00000  Uiso   1.00
Zn92   Zn    0.50000   0.16667   0.11563   0.00000  Uiso   1.00
C93    C     0.65601   0.12482   0.10486   0.00000  Uiso   1.00
C94    C     0.35631   0.08817   0.09244   0.00000  Uiso   1.00
C95    C     0.66055   0.06317   0.05243   0.00000  Uiso   1.00
H96    H     0.62392   0.04901   0.06191   0.00000  Uiso   1.00
H97    H     0.64985   0.08355   0.02194   0.00000  Uiso   1.00
H98    H     0.35331   0.03784   0.04347   0.00000  Uiso   1.00
H99    H     0.39393   0.09977   0.08248   0.00000  Uiso   1.00
H100   H     0.36586   0.06709   0.12261   0.00000  Uiso   1.00
H101   H     0.61635   0.11150   0.10729   0.00000  Uiso   1.00
H102   H     0.65179   0.14855   0.07700   0.00000  Uiso   1.00
C103   C     0.34419   0.13801   0.23629   0.00000  Uiso   1.00
C104   C     0.35326   0.17682   0.26733   0.00000  Uiso   1.00
C105   C     0.34794   0.16640   0.31699   0.00000  Uiso   1.00
H106   H     0.63965   0.15760   0.31949   0.00000  Uiso   1.00
H107   H     0.37455   0.14027   0.32982   0.00000  Uiso   1.00
H108   H     0.35880   0.19400   0.00564   0.00000  Uiso   1.00
H109   H     0.39343   0.18979   0.26661   0.00000  Uiso   1.00
H110   H     0.65785   0.20191   0.25529   0.00000  Uiso   1.00
H111   H     0.64916   0.11657   0.24969   0.00000  Uiso   1.00
H112   H     0.38104   0.11928   0.23864   0.00000  Uiso   1.00
C113   C     0.43996   0.29333   0.08939   0.00000  Uiso   1.00
N114   N     0.41448   0.27760   0.05832   0.00000  Uiso   1.00
C115   C     0.55908   0.03989   0.24453   0.00000  Uiso   1.00
N116   N     0.58340   0.05554   0.27622   0.00000  Uiso   1.00
C117   C     0.83458   0.08668   0.16698   0.00000  Uiso   1.00
C118   C     0.83218   0.24662   0.16635   0.00000  Uiso   1.00
C119   C     0.73425   0.16009   0.15509   0.00000  Uiso   1.00
C120   C     0.93271   0.16119   0.17873   0.00000  Uiso   1.00
C121   C     0.68037   0.14495   0.15014   0.00000  Uiso   1.00
C122   C     0.98741   0.14876   0.18657   0.00000  Uiso   1.00
C123   C     0.80777   0.02239   0.12904   0.00000  Uiso   1.00
C124   C     0.85998   0.31081   0.20395   0.00000  Uiso   1.00
C125   C     0.80513   0.31305   0.12824   0.00000  Uiso   1.00
C126   C     0.86188   0.02019   0.20506   0.00000  Uiso   1.00
C127   C     0.83187   0.29075   0.16593   0.00000  Uiso   1.00
C128   C     0.83529   0.04251   0.16731   0.00000  Uiso   1.00
C129   C     0.84892   0.20116   0.02580   0.00000  Uiso   1.00
C130   C     0.81832   0.13202   0.30761   0.00000  Uiso   1.00
C131   C     0.84896   0.20114   0.31120   0.00000  Uiso   1.00
C132   C     0.81839   0.13201   0.02222   0.00000  Uiso   1.00
H133   H     0.78741   0.03998   0.10016   0.00000  Uiso   1.00
H134   H     0.88108   0.29309   0.23247   0.00000  Uiso   1.00
H135   H     0.86149   0.22875   0.04536   0.00000  Uiso   1.00
H136   H     0.80601   0.10435   0.28811   0.00000  Uiso   1.00
H137   H     0.86161   0.22870   0.29462   0.00000  Uiso   1.00
H138   H     0.80614   0.10433   0.03882   0.00000  Uiso   1.00
N139   N     0.83332   0.16666   0.28573   0.00000  Uiso   1.00
N140   N     0.83335   0.16668   0.04760   0.00000  Uiso   1.00
O141   O     0.83333   0.10558   0.20487   0.00000  Uiso   1.00
O142   O     0.83334   0.22775   0.12846   0.00000  Uiso   1.00
O143   O     0.83333   0.10559   0.12843   0.00000  Uiso   1.00
O144   O     0.83334   0.22774   0.20490   0.00000  Uiso   1.00
O145   O     0.75725   0.16666   0.19595   0.00000  Uiso   1.00
O146   O     0.90942   0.16667   0.13739   0.00000  Uiso   1.00
O147   O     0.75725   0.16667   0.11950   0.00000  Uiso   1.00
O148   O     0.90942   0.16666   0.21383   0.00000  Uiso   1.00
Zn149  Zn    0.83333   0.16666   0.21771   0.00000  Uiso   1.00
Zn150  Zn    0.83333   0.16667   0.11563   0.00000  Uiso   1.00
C151   C     0.98934   0.12482   0.10486   0.00000  Uiso   1.00
C152   C     0.68964   0.08817   0.09244   0.00000  Uiso   1.00
C153   C     0.99389   0.06317   0.05243   0.00000  Uiso   1.00
H154   H     0.95725   0.04901   0.06191   0.00000  Uiso   1.00
H155   H     0.98319   0.08355   0.02194   0.00000  Uiso   1.00
H156   H     0.68664   0.03784   0.04347   0.00000  Uiso   1.00
H157   H     0.72726   0.09977   0.08248   0.00000  Uiso   1.00
H158   H     0.69919   0.06709   0.12261   0.00000  Uiso   1.00
H159   H     0.94968   0.11150   0.10729   0.00000  Uiso   1.00
H160   H     0.98512   0.14855   0.07700   0.00000  Uiso   1.00
C161   C     0.67753   0.13801   0.23629   0.00000  Uiso   1.00
C162   C     0.68659   0.17682   0.26733   0.00000  Uiso   1.00
C163   C     0.68127   0.16640   0.31699   0.00000  Uiso   1.00
H164   H     0.97298   0.15760   0.31949   0.00000  Uiso   1.00
H165   H     0.70788   0.14027   0.32982   0.00000  Uiso   1.00
H166   H     0.69213   0.19400   0.00564   0.00000  Uiso   1.00
H167   H     0.72676   0.18979   0.26661   0.00000  Uiso   1.00
H168   H     0.99118   0.20191   0.25529   0.00000  Uiso   1.00
H169   H     0.98249   0.11657   0.24969   0.00000  Uiso   1.00
H170   H     0.71438   0.11928   0.23864   0.00000  Uiso   1.00
C171   C     0.77330   0.29333   0.08939   0.00000  Uiso   1.00
N172   N     0.74781   0.27760   0.05832   0.00000  Uiso   1.00
C173   C     0.89241   0.03989   0.24453   0.00000  Uiso   1.00
N174   N     0.91674   0.05554   0.27622   0.00000  Uiso   1.00
C175   C     0.16791   0.42001   0.16698   0.00000  Uiso   1.00
C176   C     0.16552   0.57995   0.16635   0.00000  Uiso   1.00
C177   C     0.06758   0.49342   0.15509   0.00000  Uiso   1.00
C178   C     0.26605   0.49453   0.17873   0.00000  Uiso   1.00
C179   C     0.01370   0.47829   0.15014   0.00000  Uiso   1.00
C180   C     0.32074   0.48209   0.18657   0.00000  Uiso   1.00
C181   C     0.14111   0.35572   0.12904   0.00000  Uiso   1.00
C182   C     0.19331   0.64414   0.20395   0.00000  Uiso   1.00
C183   C     0.13847   0.64638   0.12824   0.00000  Uiso   1.00
C184   C     0.19521   0.35352   0.20506   0.00000  Uiso   1.00
C185   C     0.16520   0.62408   0.16593   0.00000  Uiso   1.00
C186   C     0.16862   0.37584   0.16731   0.00000  Uiso   1.00
C187   C     0.18226   0.53450   0.02580   0.00000  Uiso   1.00
C188   C     0.15165   0.46535   0.30761   0.00000  Uiso   1.00
C189   C     0.18229   0.53447   0.31120   0.00000  Uiso   1.00
C190   C     0.15172   0.46535   0.02222   0.00000  Uiso   1.00
H191   H     0.12074   0.37331   0.10016   0.00000  Uiso   1.00
H192   H     0.21441   0.62642   0.23247   0.00000  Uiso   1.00
H193   H     0.19482   0.56208   0.04536   0.00000  Uiso   1.00
H194   H     0.13934   0.43769   0.28811   0.00000  Uiso   1.00
H195   H     0.19495   0.56204   0.29462   0.00000  Uiso   1.00
H196   H     0.13947   0.43766   0.03882   0.00000  Uiso   1.00
N197   N     0.16665   0.49999   0.28573   0.00000  Uiso   1.00
N198   N     0.16668   0.50001   0.04760   0.00000  Uiso   1.00
O199   O     0.16666   0.43892   0.20487   0.00000  Uiso   1.00
O200   O     0.16667   0.56108   0.12846   0.00000  Uiso   1.00
O201   O     0.16666   0.43893   0.12843   0.00000  Uiso   1.00
O202   O     0.16667   0.56107   0.20490   0.00000  Uiso   1.00
O203   O     0.09058   0.50000   0.19595   0.00000  Uiso   1.00
O204   O     0.24275   0.50000   0.13739   0.00000  Uiso   1.00
O205   O     0.09058   0.50000   0.11950   0.00000  Uiso   1.00
O206   O     0.24275   0.50000   0.21383   0.00000  Uiso   1.00
Zn207  Zn    0.16667   0.49999   0.21771   0.00000  Uiso   1.00
Zn208  Zn    0.16667   0.50001   0.11563   0.00000  Uiso   1.00
C209   C     0.32268   0.45815   0.10486   0.00000  Uiso   1.00
C210   C     0.02298   0.42151   0.09244   0.00000  Uiso   1.00
C211   C     0.32722   0.39650   0.05243   0.00000  Uiso   1.00
H212   H     0.29058   0.38235   0.06191   0.00000  Uiso   1.00
H213   H     0.31652   0.41688   0.02194   0.00000  Uiso   1.00
H214   H     0.01997   0.37117   0.04347   0.00000  Uiso   1.00
H215   H     0.06060   0.43310   0.08248   0.00000  Uiso   1.00
H216   H     0.03253   0.40043   0.12261   0.00000  Uiso   1.00
H217   H     0.28301   0.44483   0.10729   0.00000  Uiso   1.00
H218   H     0.31846   0.48189   0.07700   0.00000  Uiso   1.00
C219   C     0.01086   0.47134   0.23629   0.00000  Uiso   1.00
C220   C     0.01993   0.51016   0.26733   0.00000  Uiso   1.00
C221   C     0.01460   0.49974   0.31699   0.00000  Uiso   1.00
H222   H     0.30632   0.49093   0.31949   0.00000  Uiso   1.00
H223   H     0.04122   0.47360   0.32982   0.00000  Uiso   1.00
H224   H     0.02547   0.52733   0.00564   0.00000  Uiso   1.00
H225   H     0.06010   0.52312   0.26661   0.00000  Uiso   1.00
H226   H     0.32452   0.53524   0.25529   0.00000  Uiso   1.00
H227   H     0.31582   0.44990   0.24969   0.00000  Uiso   1.00
H228   H     0.04771   0.45262   0.23864   0.00000  Uiso   1.00
C229   C     0.10663   0.62666   0.08939   0.00000  Uiso   1.00
N230   N     0.08115   0.61093   0.05832   0.00000  Uiso   1.00
C231   C     0.22575   0.37322   0.24453   0.00000  Uiso   1.00
N232   N     0.25007   0.38888   0.27622   0.00000  Uiso   1.00
C233   C     0.50125   0.42001   0.16698   0.00000  Uiso   1.00
C234   C     0.49885   0.57995   0.16635   0.00000  Uiso   1.00
C235   C     0.40092   0.49342   0.15509   0.00000  Uiso   1.00
C236   C     0.59938   0.49453   0.17873   0.00000  Uiso   1.00
C237   C     0.34703   0.47829   0.15014   0.00000  Uiso   1.00
C238   C     0.65407   0.48209   0.18657   0.00000  Uiso   1.00
C239   C     0.47444   0.35572   0.12904   0.00000  Uiso   1.00
C240   C     0.52665   0.64414   0.20395   0.00000  Uiso   1.00
C241   C     0.47180   0.64638   0.12824   0.00000  Uiso   1.00
C242   C     0.52854   0.35352   0.20506   0.00000  Uiso   1.00
C243   C     0.49853   0.62408   0.16593   0.00000  Uiso   1.00
C244   C     0.50195   0.37584   0.16731   0.00000  Uiso   1.00
C245   C     0.51559   0.53450   0.02580   0.00000  Uiso   1.00
C246   C     0.48498   0.46535   0.30761   0.00000  Uiso   1.00
C247   C     0.51563   0.53447   0.31120   0.00000  Uiso   1.00
C248   C     0.48505   0.46535   0.02222   0.00000  Uiso   1.00
H249   H     0.45408   0.37331   0.10016   0.00000  Uiso   1.00
H250   H     0.54775   0.62642   0.23247   0.00000  Uiso   1.00
H251   H     0.52816   0.56208   0.04536   0.00000  Uiso   1.00
H252   H     0.47267   0.43769   0.28811   0.00000  Uiso   1.00
H253   H     0.52828   0.56204   0.29462   0.00000  Uiso   1.00
H254   H     0.47280   0.43766   0.03882   0.00000  Uiso   1.00
N255   N     0.49999   0.49999   0.28573   0.00000  Uiso   1.00
N256   N     0.50001   0.50001   0.04760   0.00000  Uiso   1.00
O257   O     0.50000   0.43892   0.20487   0.00000  Uiso   1.00
O258   O     0.50000   0.56108   0.12846   0.00000  Uiso   1.00
O259   O     0.50000   0.43893   0.12843   0.00000  Uiso   1.00
O260   O     0.50000   0.56107   0.20490   0.00000  Uiso   1.00
O261   O     0.42392   0.50000   0.19595   0.00000  Uiso   1.00
O262   O     0.57608   0.50000   0.13739   0.00000  Uiso   1.00
O263   O     0.42392   0.50000   0.11950   0.00000  Uiso   1.00
O264   O     0.57608   0.50000   0.21383   0.00000  Uiso   1.00
Zn265  Zn    0.50000   0.49999   0.21771   0.00000  Uiso   1.00
Zn266  Zn    0.50000   0.50001   0.11563   0.00000  Uiso   1.00
C267   C     0.65601   0.45815   0.10486   0.00000  Uiso   1.00
C268   C     0.35631   0.42151   0.09244   0.00000  Uiso   1.00
C269   C     0.66055   0.39650   0.05243   0.00000  Uiso   1.00
H270   H     0.62392   0.38235   0.06191   0.00000  Uiso   1.00
H271   H     0.64985   0.41688   0.02194   0.00000  Uiso   1.00
H272   H     0.35331   0.37117   0.04347   0.00000  Uiso   1.00
H273   H     0.39393   0.43310   0.08248   0.00000  Uiso   1.00
H274   H     0.36586   0.40043   0.12261   0.00000  Uiso   1.00
H275   H     0.61635   0.44483   0.10729   0.00000  Uiso   1.00
H276   H     0.65179   0.48189   0.07700   0.00000  Uiso   1.00
C277   C     0.34419   0.47134   0.23629   0.00000  Uiso   1.00
C278   C     0.35326   0.51016   0.26733   0.00000  Uiso   1.00
C279   C     0.34794   0.49974   0.31699   0.00000  Uiso   1.00
H280   H     0.63965   0.49093   0.31949   0.00000  Uiso   1.00
H281   H     0.37455   0.47360   0.32982   0.00000  Uiso   1.00
H282   H     0.35880   0.52733   0.00564   0.00000  Uiso   1.00
H283   H     0.39343   0.52312   0.26661   0.00000  Uiso   1.00
H284   H     0.65785   0.53524   0.25529   0.00000  Uiso   1.00
H285   H     0.64916   0.44990   0.24969   0.00000  Uiso   1.00
H286   H     0.38104   0.45262   0.23864   0.00000  Uiso   1.00
C287   C     0.43996   0.62666   0.08939   0.00000  Uiso   1.00
N288   N     0.41448   0.61093   0.05832   0.00000  Uiso   1.00
C289   C     0.55908   0.37322   0.24453   0.00000  Uiso   1.00
N290   N     0.58340   0.38888   0.27622   0.00000  Uiso   1.00
C291   C     0.83458   0.42001   0.16698   0.00000  Uiso   1.00
C292   C     0.83218   0.57995   0.16635   0.00000  Uiso   1.00
C293   C     0.73425   0.49342   0.15509   0.00000  Uiso   1.00
C294   C     0.93271   0.49453   0.17873   0.00000  Uiso   1.00
C295   C     0.68037   0.47829   0.15014   0.00000  Uiso   1.00
C296   C     0.98741   0.48209   0.18657   0.00000  Uiso   1.00
C297   C     0.80777   0.35572   0.12904   0.00000  Uiso   1.00
C298   C     0.85998   0.64414   0.20395   0.00000  Uiso   1.00
C299   C     0.80513   0.64638   0.12824   0.00000  Uiso   1.00
C300   C     0.86188   0.35352   0.20506   0.00000  Uiso   1.00
C301   C     0.83187   0.62408   0.16593   0.00000  Uiso   1.00
C302   C     0.83529   0.37584   0.16731   0.00000  Uiso   1.00
C303   C     0.84892   0.53450   0.02580   0.00000  Uiso   1.00
C304   C     0.81832   0.46535   0.30761   0.00000  Uiso   1.00
C305   C     0.84896   0.53447   0.31120   0.00000  Uiso   1.00
C306   C     0.81839   0.46535   0.02222   0.00000  Uiso   1.00
H307   H     0.78741   0.37331   0.10016   0.00000  Uiso   1.00
H308   H     0.88108   0.62642   0.23247   0.00000  Uiso   1.00
H309   H     0.86149   0.56208   0.04536   0.00000  Uiso   1.00
H310   H     0.80601   0.43769   0.28811   0.00000  Uiso   1.00
H311   H     0.86161   0.56204   0.29462   0.00000  Uiso   1.00
H312   H     0.80614   0.43766   0.03882   0.00000  Uiso   1.00
N313   N     0.83332   0.49999   0.28573   0.00000  Uiso   1.00
N314   N     0.83335   0.50001   0.04760   0.00000  Uiso   1.00
O315   O     0.83333   0.43892   0.20487   0.00000  Uiso   1.00
O316   O     0.83334   0.56108   0.12846   0.00000  Uiso   1.00
O317   O     0.83333   0.43893   0.12843   0.00000  Uiso   1.00
O318   O     0.83334   0.56107   0.20490   0.00000  Uiso   1.00
O319   O     0.75725   0.50000   0.19595   0.00000  Uiso   1.00
O320   O     0.90942   0.50000   0.13739   0.00000  Uiso   1.00
O321   O     0.75725   0.50000   0.11950   0.00000  Uiso   1.00
O322   O     0.90942   0.50000   0.21383   0.00000  Uiso   1.00
Zn323  Zn    0.83333   0.49999   0.21771   0.00000  Uiso   1.00
Zn324  Zn    0.83333   0.50001   0.11563   0.00000  Uiso   1.00
C325   C     0.98934   0.45815   0.10486   0.00000  Uiso   1.00
C326   C     0.68964   0.42151   0.09244   0.00000  Uiso   1.00
C327   C     0.99389   0.39650   0.05243   0.00000  Uiso   1.00
H328   H     0.95725   0.38235   0.06191   0.00000  Uiso   1.00
H329   H     0.98319   0.41688   0.02194   0.00000  Uiso   1.00
H330   H     0.68664   0.37117   0.04347   0.00000  Uiso   1.00
H331   H     0.72726   0.43310   0.08248   0.00000  Uiso   1.00
H332   H     0.69919   0.40043   0.12261   0.00000  Uiso   1.00
H333   H     0.94968   0.44483   0.10729   0.00000  Uiso   1.00
H334   H     0.98512   0.48189   0.07700   0.00000  Uiso   1.00
C335   C     0.67753   0.47134   0.23629   0.00000  Uiso   1.00
C336   C     0.68659   0.51016   0.26733   0.00000  Uiso   1.00
C337   C     0.68127   0.49974   0.31699   0.00000  Uiso   1.00
H338   H     0.97298   0.49093   0.31949   0.00000  Uiso   1.00
H339   H     0.70788   0.47360   0.32982   0.00000  Uiso   1.00
H340   H     0.69213   0.52733   0.00564   0.00000  Uiso   1.00
H341   H     0.72676   0.52312   0.26661   0.00000  Uiso   1.00
H342   H     0.99118   0.53524   0.25529   0.00000  Uiso   1.00
H343   H     0.98249   0.44990   0.24969   0.00000  Uiso   1.00
H344   H     0.71438   0.45262   0.23864   0.00000  Uiso   1.00
C345   C     0.77330   0.62666   0.08939   0.00000  Uiso   1.00
N346   N     0.74781   0.61093   0.05832   0.00000  Uiso   1.00
C347   C     0.89241   0.37322   0.24453   0.00000  Uiso   1.00
N348   N     0.91674   0.38888   0.27622   0.00000  Uiso   1.00
C349   C     0.16791   0.75335   0.16698   0.00000  Uiso   1.00
C350   C     0.16552   0.91329   0.16635   0.00000  Uiso   1.00
C351   C     0.06758   0.82675   0.15509   0.00000  Uiso   1.00
C352   C     0.26605   0.82786   0.17873   0.00000  Uiso   1.00
C353   C     0.01370   0.81162   0.15014   0.00000  Uiso   1.00
C354   C     0.32074   0.81543   0.18657   0.00000  Uiso   1.00
C355   C     0.14111   0.68906   0.12904   0.00000  Uiso   1.00
C356   C     0.19331   0.97748   0.20395   0.00000  Uiso   1.00
C357   C     0.13847   0.97971   0.12824   0.00000  Uiso   1.00
C358   C     0.19521   0.68686   0.20506   0.00000  Uiso   1.00
C359   C     0.16520   0.95742   0.16593   0.00000  Uiso   1.00
C360   C     0.16862   0.70918   0.16731   0.00000  Uiso   1.00
C361   C     0.18226   0.86783   0.02580   0.00000  Uiso   1.00
C362   C     0.15165   0.79868   0.30761   0.00000  Uiso   1.00
C363   C     0.18229   0.86781   0.31120   0.00000  Uiso   1.00
C364   C     0.15172   0.79868   0.02222   0.00000  Uiso   1.00
H365   H     0.12074   0.70665   0.10016   0.00000  Uiso   1.00
H366   H     0.21441   0.95976   0.23247   0.00000  Uiso   1.00
H367   H     0.19482   0.89542   0.04536   0.00000  Uiso   1.00
H368   H     0.13934   0.77102   0.28811   0.00000  Uiso   1.00
H369   H     0.19495   0.89537   0.29462   0.00000  Uiso   1.00
H370   H     0.13947   0.77099   0.03882   0.00000  Uiso   1.00
N371   N     0.16665   0.83332   0.28573   0.00000  Uiso   1.00
N372   N     0.16668   0.83334   0.04760   0.00000  Uiso   1.00
O373   O     0.16666   0.77225   0.20487   0.00000  Uiso   1.00
O374   O     0.16667   0.89442   0.12846   0.00000  Uiso   1.00
O375   O     0.16666   0.77226   0.12843   0.00000  Uiso   1.00
O376   O     0.16667   0.89441   0.20490   0.00000  Uiso   1.00
O377   O     0.09058   0.83333   0.19595   0.00000  Uiso   1.00
O378   O     0.24275   0.83334   0.13739   0.00000  Uiso   1.00
O379   O     0.09058   0.83334   0.11950   0.00000  Uiso   1.00
O380   O     0.24275   0.83333   0.21383   0.00000  Uiso   1.00
Zn381  Zn    0.16667   0.83333   0.21771   0.00000  Uiso   1.00
Zn382  Zn    0.16667   0.83334   0.11563   0.00000  Uiso   1.00
C383   C     0.32268   0.79149   0.10486   0.00000  Uiso   1.00
C384   C     0.02298   0.75484   0.09244   0.00000  Uiso   1.00
C385   C     0.32722   0.72984   0.05243   0.00000  Uiso   1.00
H386   H     0.29058   0.71568   0.06191   0.00000  Uiso   1.00
H387   H     0.31652   0.75022   0.02194   0.00000  Uiso   1.00
H388   H     0.01997   0.70451   0.04347   0.00000  Uiso   1.00
H389   H     0.06060   0.76644   0.08248   0.00000  Uiso   1.00
H390   H     0.03253   0.73376   0.12261   0.00000  Uiso   1.00
H391   H     0.28301   0.77817   0.10729   0.00000  Uiso   1.00
H392   H     0.31846   0.81522   0.07700   0.00000  Uiso   1.00
C393   C     0.01086   0.80468   0.23629   0.00000  Uiso   1.00
C394   C     0.01993   0.84349   0.26733   0.00000  Uiso   1.00
C395   C     0.01460   0.83307   0.31699   0.00000  Uiso   1.00
H396   H     0.30632   0.82427   0.31949   0.00000  Uiso   1.00
H397   H     0.04122   0.80693   0.32982   0.00000  Uiso   1.00
H398   H     0.02547   0.86066   0.00564   0.00000  Uiso   1.00
H399   H     0.06010   0.85646   0.26661   0.00000  Uiso   1.00
H400   H     0.32452   0.86857   0.25529   0.00000  Uiso   1.00
H401   H     0.31582   0.78323   0.24969   0.00000  Uiso   1.00
H402   H     0.04771   0.78595   0.23864   0.00000  Uiso   1.00
C403   C     0.10663   0.96000   0.08939   0.00000  Uiso   1.00
N404   N     0.08115   0.94426   0.05832   0.00000  Uiso   1.00
C405   C     0.22575   0.70655   0.24453   0.00000  Uiso   1.00
N406   N     0.25007   0.72221   0.27622   0.00000  Uiso   1.00
C407   C     0.50125   0.75335   0.16698   0.00000  Uiso   1.00
C408   C     0.49885   0.91329   0.16635   0.00000  Uiso   1.00
C409   C     0.40092   0.82675   0.15509   0.00000  Uiso   1.00
C410   C     0.59938   0.82786   0.17873   0.00000  Uiso   1.00
C411   C     0.34703   0.81162   0.15014   0.00000  Uiso   1.00
C412   C     0.65407   0.81543   0.18657   0.00000  Uiso   1.00
C413   C     0.47444   0.68906   0.12904   0.00000  Uiso   1.00
C414   C     0.52665   0.97748   0.20395   0.00000  Uiso   1.00
C415   C     0.47180   0.97971   0.12824   0.00000  Uiso   1.00
C416   C     0.52854   0.68686   0.20506   0.00000  Uiso   1.00
C417   C     0.49853   0.95742   0.16593   0.00000  Uiso   1.00
C418   C     0.50195   0.70918   0.16731   0.00000  Uiso   1.00
C419   C     0.51559   0.86783   0.02580   0.00000  Uiso   1.00
C420   C     0.48498   0.79868   0.30761   0.00000  Uiso   1.00
C421   C     0.51563   0.86781   0.31120   0.00000  Uiso   1.00
C422   C     0.48505   0.79868   0.02222   0.00000  Uiso   1.00
H423   H     0.45408   0.70665   0.10016   0.00000  Uiso   1.00
H424   H     0.54775   0.95976   0.23247   0.00000  Uiso   1.00
H425   H     0.52816   0.89542   0.04536   0.00000  Uiso   1.00
H426   H     0.47267   0.77102   0.28811   0.00000  Uiso   1.00
H427   H     0.52828   0.89537   0.29462   0.00000  Uiso   1.00
H428   H     0.47280   0.77099   0.03882   0.00000  Uiso   1.00
N429   N     0.49999   0.83332   0.28573   0.00000  Uiso   1.00
N430   N     0.50001   0.83334   0.04760   0.00000  Uiso   1.00
O431   O     0.50000   0.77225   0.20487   0.00000  Uiso   1.00
O432   O     0.50000   0.89442   0.12846   0.00000  Uiso   1.00
O433   O     0.50000   0.77226   0.12843   0.00000  Uiso   1.00
O434   O     0.50000   0.89441   0.20490   0.00000  Uiso   1.00
O435   O     0.42392   0.83333   0.19595   0.00000  Uiso   1.00
O436   O     0.57608   0.83334   0.13739   0.00000  Uiso   1.00
O437   O     0.42392   0.83334   0.11950   0.00000  Uiso   1.00
O438   O     0.57608   0.83333   0.21383   0.00000  Uiso   1.00
Zn439  Zn    0.50000   0.83333   0.21771   0.00000  Uiso   1.00
Zn440  Zn    0.50000   0.83334   0.11563   0.00000  Uiso   1.00
C441   C     0.65601   0.79149   0.10486   0.00000  Uiso   1.00
C442   C     0.35631   0.75484   0.09244   0.00000  Uiso   1.00
C443   C     0.66055   0.72984   0.05243   0.00000  Uiso   1.00
H444   H     0.62392   0.71568   0.06191   0.00000  Uiso   1.00
H445   H     0.64985   0.75022   0.02194   0.00000  Uiso   1.00
H446   H     0.35331   0.70451   0.04347   0.00000  Uiso   1.00
H447   H     0.39393   0.76644   0.08248   0.00000  Uiso   1.00
H448   H     0.36586   0.73376   0.12261   0.00000  Uiso   1.00
H449   H     0.61635   0.77817   0.10729   0.00000  Uiso   1.00
H450   H     0.65179   0.81522   0.07700   0.00000  Uiso   1.00
C451   C     0.34419   0.80468   0.23629   0.00000  Uiso   1.00
C452   C     0.35326   0.84349   0.26733   0.00000  Uiso   1.00
C453   C     0.34794   0.83307   0.31699   0.00000  Uiso   1.00
H454   H     0.63965   0.82427   0.31949   0.00000  Uiso   1.00
H455   H     0.37455   0.80693   0.32982   0.00000  Uiso   1.00
H456   H     0.35880   0.86066   0.00564   0.00000  Uiso   1.00
H457   H     0.39343   0.85646   0.26661   0.00000  Uiso   1.00
H458   H     0.65785   0.86857   0.25529   0.00000  Uiso   1.00
H459   H     0.64916   0.78323   0.24969   0.00000  Uiso   1.00
H460   H     0.38104   0.78595   0.23864   0.00000  Uiso   1.00
C461   C     0.43996   0.96000   0.08939   0.00000  Uiso   1.00
N462   N     0.41448   0.94426   0.05832   0.00000  Uiso   1.00
C463   C     0.55908   0.70655   0.24453   0.00000  Uiso   1.00
N464   N     0.58340   0.72221   0.27622   0.00000  Uiso   1.00
C465   C     0.83458   0.75335   0.16698   0.00000  Uiso   1.00
C466   C     0.83218   0.91329   0.16635   0.00000  Uiso   1.00
C467   C     0.73425   0.82675   0.15509   0.00000  Uiso   1.00
C468   C     0.93271   0.82786   0.17873   0.00000  Uiso   1.00
C469   C     0.68037   0.81162   0.15014   0.00000  Uiso   1.00
C470   C     0.98741   0.81543   0.18657   0.00000  Uiso   1.00
C471   C     0.80777   0.68906   0.12904   0.00000  Uiso   1.00
C472   C     0.85998   0.97748   0.20395   0.00000  Uiso   1.00
C473   C     0.80513   0.97971   0.12824   0.00000  Uiso   1.00
C474   C     0.86188   0.68686   0.20506   0.00000  Uiso   1.00
C475   C     0.83187   0.95742   0.16593   0.00000  Uiso   1.00
C476   C     0.83529   0.70918   0.16731   0.00000  Uiso   1.00
C477   C     0.84892   0.86783   0.02580   0.00000  Uiso   1.00
C478   C     0.81832   0.79868   0.30761   0.00000  Uiso   1.00
C479   C     0.84896   0.86781   0.31120   0.00000  Uiso   1.00
C480   C     0.81839   0.79868   0.02222   0.00000  Uiso   1.00
H481   H     0.78741   0.70665   0.10016   0.00000  Uiso   1.00
H482   H     0.88108   0.95976   0.23247   0.00000  Uiso   1.00
H483   H     0.86149   0.89542   0.04536   0.00000  Uiso   1.00
H484   H     0.80601   0.77102   0.28811   0.00000  Uiso   1.00
H485   H     0.86161   0.89537   0.29462   0.00000  Uiso   1.00
H486   H     0.80614   0.77099   0.03882   0.00000  Uiso   1.00
N487   N     0.83332   0.83332   0.28573   0.00000  Uiso   1.00
N488   N     0.83335   0.83334   0.04760   0.00000  Uiso   1.00
O489   O     0.83333   0.77225   0.20487   0.00000  Uiso   1.00
O490   O     0.83334   0.89442   0.12846   0.00000  Uiso   1.00
O491   O     0.83333   0.77226   0.12843   0.00000  Uiso   1.00
O492   O     0.83334   0.89441   0.20490   0.00000  Uiso   1.00
O493   O     0.75725   0.83333   0.19595   0.00000  Uiso   1.00
O494   O     0.90942   0.83334   0.13739   0.00000  Uiso   1.00
O495   O     0.75725   0.83334   0.11950   0.00000  Uiso   1.00
O496   O     0.90942   0.83333   0.21383   0.00000  Uiso   1.00
Zn497  Zn    0.83333   0.83333   0.21771   0.00000  Uiso   1.00
Zn498  Zn    0.83333   0.83334   0.11563   0.00000  Uiso   1.00
C499   C     0.98934   0.79149   0.10486   0.00000  Uiso   1.00
C500   C     0.68964   0.75484   0.09244   0.00000  Uiso   1.00
C501   C     0.99389   0.72984   0.05243   0.00000  Uiso   1.00
H502   H     0.95725   0.71568   0.06191   0.00000  Uiso   1.00
H503   H     0.98319   0.75022   0.02194   0.00000  Uiso   1.00
H504   H     0.68664   0.70451   0.04347   0.00000  Uiso   1.00
H505   H     0.72726   0.76644   0.08248   0.00000  Uiso   1.00
H506   H     0.69919   0.73376   0.12261   0.00000  Uiso   1.00
H507   H     0.94968   0.77817   0.10729   0.00000  Uiso   1.00
H508   H     0.98512   0.81522   0.07700   0.00000  Uiso   1.00
C509   C     0.67753   0.80468   0.23629   0.00000  Uiso   1.00
C510   C     0.68659   0.84349   0.26733   0.00000  Uiso   1.00
C511   C     0.68127   0.83307   0.31699   0.00000  Uiso   1.00
H512   H     0.97298   0.82427   0.31949   0.00000  Uiso   1.00
H513   H     0.70788   0.80693   0.32982   0.00000  Uiso   1.00
H514   H     0.69213   0.86066   0.00564   0.00000  Uiso   1.00
H515   H     0.72676   0.85646   0.26661   0.00000  Uiso   1.00
H516   H     0.99118   0.86857   0.25529   0.00000  Uiso   1.00
H517   H     0.98249   0.78323   0.24969   0.00000  Uiso   1.00
H518   H     0.71438   0.78595   0.23864   0.00000  Uiso   1.00
C519   C     0.77330   0.96000   0.08939   0.00000  Uiso   1.00
N520   N     0.74781   0.94426   0.05832   0.00000  Uiso   1.00
C521   C     0.89241   0.70655   0.24453   0.00000  Uiso   1.00
N522   N     0.91674   0.72221   0.27622   0.00000  Uiso   1.00
C523   C     0.16791   0.08668   0.50031   0.00000  Uiso   1.00
C524   C     0.16552   0.24662   0.49968   0.00000  Uiso   1.00
C525   C     0.06758   0.16009   0.48842   0.00000  Uiso   1.00
C526   C     0.26605   0.16119   0.51206   0.00000  Uiso   1.00
C527   C     0.01370   0.14495   0.48347   0.00000  Uiso   1.00
C528   C     0.32074   0.14876   0.51990   0.00000  Uiso   1.00
C529   C     0.14111   0.02239   0.46237   0.00000  Uiso   1.00
C530   C     0.19331   0.31081   0.53728   0.00000  Uiso   1.00
C531   C     0.13847   0.31305   0.46157   0.00000  Uiso   1.00
C532   C     0.19521   0.02019   0.53840   0.00000  Uiso   1.00
C533   C     0.16520   0.29075   0.49926   0.00000  Uiso   1.00
C534   C     0.16862   0.04251   0.50064   0.00000  Uiso   1.00
C535   C     0.18226   0.20116   0.35914   0.00000  Uiso   1.00
C536   C     0.15165   0.13202   0.64094   0.00000  Uiso   1.00
C537   C     0.18229   0.20114   0.64453   0.00000  Uiso   1.00
C538   C     0.15172   0.13201   0.35556   0.00000  Uiso   1.00
H539   H     0.12074   0.03998   0.43349   0.00000  Uiso   1.00
H540   H     0.21441   0.29309   0.56580   0.00000  Uiso   1.00
H541   H     0.19482   0.22875   0.37869   0.00000  Uiso   1.00
H542   H     0.13934   0.10435   0.62144   0.00000  Uiso   1.00
H543   H     0.19495   0.22870   0.62795   0.00000  Uiso   1.00
H544   H     0.13947   0.10433   0.37215   0.00000  Uiso   1.00
N545   N     0.16665   0.16666   0.61907   0.00000  Uiso   1.00
N546   N     0.16668   0.16668   0.38093   0.00000  Uiso   1.00
O547   O     0.16666   0.10558   0.53821   0.00000  Uiso   1.00
O548   O     0.16667   0.22775   0.46179   0.00000  Uiso   1.00
O549   O     0.16666   0.10559   0.46176   0.00000  Uiso   1.00
O550   O     0.16667   0.22774   0.53824   0.00000  Uiso   1.00
O551   O     0.09058   0.16666   0.52928   0.00000  Uiso   1.00
O552   O     0.24275   0.16667   0.47072   0.00000  Uiso   1.00
O553   O     0.09058   0.16667   0.45284   0.00000  Uiso   1.00
O554   O     0.24275   0.16666   0.54716   0.00000  Uiso   1.00
Zn555  Zn    0.16667   0.16666   0.55104   0.00000  Uiso   1.00
Zn556  Zn    0.16667   0.16667   0.44896   0.00000  Uiso   1.00
C557   C     0.32268   0.12482   0.43820   0.00000  Uiso   1.00
C558   C     0.02298   0.08817   0.42577   0.00000  Uiso   1.00
C559   C     0.32722   0.06317   0.38576   0.00000  Uiso   1.00
H560   H     0.29058   0.04901   0.39524   0.00000  Uiso   1.00
H561   H     0.31652   0.08355   0.35528   0.00000  Uiso   1.00
H562   H     0.01997   0.03784   0.37680   0.00000  Uiso   1.00
H563   H     0.06060   0.09977   0.41582   0.00000  Uiso   1.00
H564   H     0.03253   0.06709   0.45594   0.00000  Uiso   1.00
H565   H     0.28301   0.11150   0.44062   0.00000  Uiso   1.00
H566   H     0.31846   0.14855   0.41033   0.00000  Uiso   1.00
C567   C     0.01086   0.13801   0.56963   0.00000  Uiso   1.00
C568   C     0.01993   0.17682   0.60066   0.00000  Uiso   1.00
C569   C     0.01460   0.16640   0.65032   0.00000  Uiso   1.00
H570   H     0.30632   0.15760   0.65282   0.00000  Uiso   1.00
H571   H     0.04122   0.14027   0.66315   0.00000  Uiso   1.00
H572   H     0.02547   0.19400   0.33897   0.00000  Uiso   1.00
H573   H     0.06010   0.18979   0.59995   0.00000  Uiso   1.00
H574   H     0.32452   0.20191   0.58863   0.00000  Uiso   1.00
H575   H     0.31582   0.11657   0.58303   0.00000  Uiso   1.00
H576   H     0.04771   0.11928   0.57197   0.00000  Uiso   1.00
C577   C     0.10663   0.29333   0.42272   0.00000  Uiso   1.00
N578   N     0.08115   0.27760   0.39166   0.00000  Uiso   1.00
C579   C     0.22575   0.03989   0.57786   0.00000  Uiso   1.00
N580   N     0.25007   0.05554   0.60955   0.00000  Uiso   1.00
C581   C     0.50125   0.08668   0.50031   0.00000  Uiso   1.00
C582   C     0.49885   0.24662   0.49968   0.00000  Uiso   1.00
C583   C     0.40092   0.16009   0.48842   0.00000  Uiso   1.00
C584   C     0.59938   0.16119   0.51206   0.00000  Uiso   1.00
C585   C     0.34703   0.14495   0.48347   0.00000  Uiso   1.00
C586   C     0.65407   0.14876   0.51990   0.00000  Uiso   1.00
C587   C     0.47444   0.02239   0.46237   0.00000  Uiso   1.00
C588   C     0.52665   0.31081   0.53728   0.00000  Uiso   1.00
C589   C     0.47180   0.31305   0.46157   0.00000  Uiso   1.00
C590   C     0.52854   0.02019   0.53840   0.00000  Uiso   1.00
C591   C     0.49853   0.29075   0.49926   0.00000  Uiso   1.00
C592   C     0.50195   0.04251   0.50064   0.00000  Uiso   1.00
C593   C     0.51559   0.20116   0.35914   0.00000  Uiso   1.00
C594   C     0.48498   0.13202   0.64094   0.00000  Uiso   1.00
C595   C     0.51563   0.20114   0.64453   0.00000  Uiso   1.00
C596   C     0.48505   0.13201   0.35556   0.00000  Uiso   1.00
H597   H     0.45408   0.03998   0.43349   0.00000  Uiso   1.00
H598   H     0.54775   0.29309   0.56580   0.00000  Uiso   1.00
H599   H     0.52816   0.22875   0.37869   0.00000  Uiso   1.00
H600   H     0.47267   0.10435   0.62144   0.00000  Uiso   1.00
H601   H     0.52828   0.22870   0.62795   0.00000  Uiso   1.00
H602   H     0.47280   0.10433   0.37215   0.00000  Uiso   1.00
N603   N     0.49999   0.16666   0.61907   0.00000  Uiso   1.00
N604   N     0.50001   0.16668   0.38093   0.00000  Uiso   1.00
O605   O     0.50000   0.10558   0.53821   0.00000  Uiso   1.00
O606   O     0.50000   0.22775   0.46179   0.00000  Uiso   1.00
O607   O     0.50000   0.10559   0.46176   0.00000  Uiso   1.00
O608   O     0.50000   0.22774   0.53824   0.00000  Uiso   1.00
O609   O     0.42392   0.16666   0.52928   0.00000  Uiso   1.00
O610   O     0.57608   0.16667   0.47072   0.00000  Uiso   1.00
O611   O     0.42392   0.16667   0.45284   0.00000  Uiso   1.00
O612   O     0.57608   0.16666   0.54716   0.00000  Uiso   1.00
Zn613  Zn    0.50000   0.16666   0.55104   0.00000  Uiso   1.00
Zn614  Zn    0.50000   0.16667   0.44896   0.00000  Uiso   1.00
C615   C     0.65601   0.12482   0.43820   0.00000  Uiso   1.00
C616   C     0.35631   0.08817   0.42577   0.00000  Uiso   1.00
C617   C     0.66055   0.06317   0.38576   0.00000  Uiso   1.00
H618   H     0.62392   0.04901   0.39524   0.00000  Uiso   1.00
H619   H     0.64985   0.08355   0.35528   0.00000  Uiso   1.00
H620   H     0.35331   0.03784   0.37680   0.00000  Uiso   1.00
H621   H     0.39393   0.09977   0.41582   0.00000  Uiso   1.00
H622   H     0.36586   0.06709   0.45594   0.00000  Uiso   1.00
H623   H     0.61635   0.11150   0.44062   0.00000  Uiso   1.00
H624   H     0.65179   0.14855   0.41033   0.00000  Uiso   1.00
C625   C     0.34419   0.13801   0.56963   0.00000  Uiso   1.00
C626   C     0.35326   0.17682   0.60066   0.00000  Uiso   1.00
C627   C     0.34794   0.16640   0.65032   0.00000  Uiso   1.00
H628   H     0.63965   0.15760   0.65282   0.00000  Uiso   1.00
H629   H     0.37455   0.14027   0.66315   0.00000  Uiso   1.00
H630   H     0.35880   0.19400   0.33897   0.00000  Uiso   1.00
H631   H     0.39343   0.18979   0.59995   0.00000  Uiso   1.00
H632   H     0.65785   0.20191   0.58863   0.00000  Uiso   1.00
H633   H     0.64916   0.11657   0.58303   0.00000  Uiso   1.00
H634   H     0.38104   0.11928   0.57197   0.00000  Uiso   1.00
C635   C     0.43996   0.29333   0.42272   0.00000  Uiso   1.00
N636   N     0.41448   0.27760   0.39166   0.00000  Uiso   1.00
C637   C     0.55908   0.03989   0.57786   0.00000  Uiso   1.00
N638   N     0.58340   0.05554   0.60955   0.00000  Uiso   1.00
C639   C     0.83458   0.08668   0.50031   0.00000  Uiso   1.00
C640   C     0.83218   0.24662   0.49968   0.00000  Uiso   1.00
C641   C     0.73425   0.16009   0.48842   0.00000  Uiso   1.00
C642   C     0.93271   0.16119   0.51206   0.00000  Uiso   1.00
C643   C     0.68037   0.14495   0.48347   0.00000  Uiso   1.00
C644   C     0.98741   0.14876   0.51990   0.00000  Uiso   1.00
C645   C     0.80777   0.02239   0.46237   0.00000  Uiso   1.00
C646   C     0.85998   0.31081   0.53728   0.00000  Uiso   1.00
C647   C     0.80513   0.31305   0.46157   0.00000  Uiso   1.00
C648   C     0.86188   0.02019   0.53840   0.00000  Uiso   1.00
C649   C     0.83187   0.29075   0.49926   0.00000  Uiso   1.00
C650   C     0.83529   0.04251   0.50064   0.00000  Uiso   1.00
C651   C     0.84892   0.20116   0.35914   0.00000  Uiso   1.00
C652   C     0.81832   0.13202   0.64094   0.00000  Uiso   1.00
C653   C     0.84896   0.20114   0.64453   0.00000  Uiso   1.00
C654   C     0.81839   0.13201   0.35556   0.00000  Uiso   1.00
H655   H     0.78741   0.03998   0.43349   0.00000  Uiso   1.00
H656   H     0.88108   0.29309   0.56580   0.00000  Uiso   1.00
H657   H     0.86149   0.22875   0.37869   0.00000  Uiso   1.00
H658   H     0.80601   0.10435   0.62144   0.00000  Uiso   1.00
H659   H     0.86161   0.22870   0.62795   0.00000  Uiso   1.00
H660   H     0.80614   0.10433   0.37215   0.00000  Uiso   1.00
N661   N     0.83332   0.16666   0.61907   0.00000  Uiso   1.00
N662   N     0.83335   0.16668   0.38093   0.00000  Uiso   1.00
O663   O     0.83333   0.10558   0.53821   0.00000  Uiso   1.00
O664   O     0.83334   0.22775   0.46179   0.00000  Uiso   1.00
O665   O     0.83333   0.10559   0.46176   0.00000  Uiso   1.00
O666   O     0.83334   0.22774   0.53824   0.00000  Uiso   1.00
O667   O     0.75725   0.16666   0.52928   0.00000  Uiso   1.00
O668   O     0.90942   0.16667   0.47072   0.00000  Uiso   1.00
O669   O     0.75725   0.16667   0.45284   0.00000  Uiso   1.00
O670   O     0.90942   0.16666   0.54716   0.00000  Uiso   1.00
Zn671  Zn    0.83333   0.16666   0.55104   0.00000  Uiso   1.00
Zn672  Zn    0.83333   0.16667   0.44896   0.00000  Uiso   1.00
C673   C     0.98934   0.12482   0.43820   0.00000  Uiso   1.00
C674   C     0.68964   0.08817   0.42577   0.00000  Uiso   1.00
C675   C     0.99389   0.06317   0.38576   0.00000  Uiso   1.00
H676   H     0.95725   0.04901   0.39524   0.00000  Uiso   1.00
H677   H     0.98319   0.08355   0.35528   0.00000  Uiso   1.00
H678   H     0.68664   0.03784   0.37680   0.00000  Uiso   1.00
H679   H     0.72726   0.09977   0.41582   0.00000  Uiso   1.00
H680   H     0.69919   0.06709   0.45594   0.00000  Uiso   1.00
H681   H     0.94968   0.11150   0.44062   0.00000  Uiso   1.00
H682   H     0.98512   0.14855   0.41033   0.00000  Uiso   1.00
C683   C     0.67753   0.13801   0.56963   0.00000  Uiso   1.00
C684   C     0.68659   0.17682   0.60066   0.00000  Uiso   1.00
C685   C     0.68127   0.16640   0.65032   0.00000  Uiso   1.00
H686   H     0.97298   0.15760   0.65282   0.00000  Uiso   1.00
H687   H     0.70788   0.14027   0.66315   0.00000  Uiso   1.00
H688   H     0.69213   0.19400   0.33897   0.00000  Uiso   1.00
H689   H     0.72676   0.18979   0.59995   0.00000  Uiso   1.00
H690   H     0.99118   0.20191   0.58863   0.00000  Uiso   1.00
H691   H     0.98249   0.11657   0.58303   0.00000  Uiso   1.00
H692   H     0.71438   0.11928   0.57197   0.00000  Uiso   1.00
C693   C     0.77330   0.29333   0.42272   0.00000  Uiso   1.00
N694   N     0.74781   0.27760   0.39166   0.00000  Uiso   1.00
C695   C     0.89241   0.03989   0.57786   0.00000  Uiso   1.00
N696   N     0.91674   0.05554   0.60955   0.00000  Uiso   1.00
C697   C     0.16791   0.42001   0.50031   0.00000  Uiso   1.00
C698   C     0.16552   0.57995   0.49968   0.00000  Uiso   1.00
C699   C     0.06758   0.49342   0.48842   0.00000  Uiso   1.00
C700   C     0.26605   0.49453   0.51206   0.00000  Uiso   1.00
C701   C     0.01370   0.47829   0.48347   0.00000  Uiso   1.00
C702   C     0.32074   0.48209   0.51990   0.00000  Uiso   1.00
C703   C     0.14111   0.35572   0.46237   0.00000  Uiso   1.00
C704   C     0.19331   0.64414   0.53728   0.00000  Uiso   1.00
C705   C     0.13847   0.64638   0.46157   0.00000  Uiso   1.00
C706   C     0.19521   0.35352   0.53840   0.00000  Uiso   1.00
C707   C     0.16520   0.62408   0.49926   0.00000  Uiso   1.00
C708   C     0.16862   0.37584   0.50064   0.00000  Uiso   1.00
C709   C     0.18226   0.53450   0.35914   0.00000  Uiso   1.00
C710   C     0.15165   0.46535   0.64094   0.00000  Uiso   1.00
C711   C     0.18229   0.53447   0.64453   0.00000  Uiso   1.00
C712   C     0.15172   0.46535   0.35556   0.00000  Uiso   1.00
H713   H     0.12074   0.37331   0.43349   0.00000  Uiso   1.00
H714   H     0.21441   0.62642   0.56580   0.00000  Uiso   1.00
H715   H     0.19482   0.56208   0.37869   0.00000  Uiso   1.00
H716   H     0.13934   0.43769   0.62144   0.00000  Uiso   1.00
H717   H     0.19495   0.56204   0.62795   0.00000  Uiso   1.00
H718   H     0.13947   0.43766   0.37215   0.00000  Uiso   1.00
N719   N     0.16665   0.49999   0.61907   0.00000  Uiso   1.00
N720   N     0.16668   0.50001   0.38093   0.00000  Uiso   1.00
O721   O     0.16666   0.43892   0.53821   0.00000  Uiso   1.00
O722   O     0.16667   0.56108   0.46179   0.00000  Uiso   1.00
O723   O     0.16666   0.43893   0.46176   0.00000  Uiso   1.00
O724   O     0.16667   0.56107   0.53824   0.00000  Uiso   1.00
O725   O     0.09058   0.50000   0.52928   0.00000  Uiso   1.00
O726   O     0.24275   0.50000   0.47072   0.00000  Uiso   1.00
O727   O     0.09058   0.50000   0.45284   0.00000  Uiso   1.00
O728   O     0.24275   0.50000   0.54716   0.00000  Uiso   1.00
Zn729  Zn    0.16667   0.49999   0.55104   0.00000  Uiso   1.00
Zn730  Zn    0.16667   0.50001   0.44896   0.00000  Uiso   1.00
C731   C     0.32268   0.45815   0.43820   0.00000  Uiso   1.00
C732   C     0.02298   0.42151   0.42577   0.00000  Uiso   1.00
C733   C     0.32722   0.39650   0.38576   0.00000  Uiso   1.00
H734   H     0.29058   0.38235   0.39524   0.00000  Uiso   1.00
H735   H     0.31652   0.41688   0.35528   0.00000  Uiso   1.00
H736   H     0.01997   0.37117   0.37680   0.00000  Uiso   1.00
H737   H     0.06060   0.43310   0.41582   0.00000  Uiso   1.00
H738   H     0.03253   0.40043   0.45594   0.00000  Uiso   1.00
H739   H     0.28301   0.44483   0.44062   0.00000  Uiso   1.00
H740   H     0.31846   0.48189   0.41033   0.00000  Uiso   1.00
C741   C     0.01086   0.47134   0.56963   0.00000  Uiso   1.00
C742   C     0.01993   0.51016   0.60066   0.00000  Uiso   1.00
C743   C     0.01460   0.49974   0.65032   0.00000  Uiso   1.00
H744   H     0.30632   0.49093   0.65282   0.00000  Uiso   1.00
H745   H     0.04122   0.47360   0.66315   0.00000  Uiso   1.00
H746   H     0.02547   0.52733   0.33897   0.00000  Uiso   1.00
H747   H     0.06010   0.52312   0.59995   0.00000  Uiso   1.00
H748   H     0.32452   0.53524   0.58863   0.00000  Uiso   1.00
H749   H     0.31582   0.44990   0.58303   0.00000  Uiso   1.00
H750   H     0.04771   0.45262   0.57197   0.00000  Uiso   1.00
C751   C     0.10663   0.62666   0.42272   0.00000  Uiso   1.00
N752   N     0.08115   0.61093   0.39166   0.00000  Uiso   1.00
C753   C     0.22575   0.37322   0.57786   0.00000  Uiso   1.00
N754   N     0.25007   0.38888   0.60955   0.00000  Uiso   1.00
C755   C     0.50125   0.42001   0.50031   0.00000  Uiso   1.00
C756   C     0.49885   0.57995   0.49968   0.00000  Uiso   1.00
C757   C     0.40092   0.49342   0.48842   0.00000  Uiso   1.00
C758   C     0.59938   0.49453   0.51206   0.00000  Uiso   1.00
C759   C     0.34703   0.47829   0.48347   0.00000  Uiso   1.00
C760   C     0.65407   0.48209   0.51990   0.00000  Uiso   1.00
C761   C     0.47444   0.35572   0.46237   0.00000  Uiso   1.00
C762   C     0.52665   0.64414   0.53728   0.00000  Uiso   1.00
C763   C     0.47180   0.64638   0.46157   0.00000  Uiso   1.00
C764   C     0.52854   0.35352   0.53840   0.00000  Uiso   1.00
C765   C     0.49853   0.62408   0.49926   0.00000  Uiso   1.00
C766   C     0.50195   0.37584   0.50064   0.00000  Uiso   1.00
C767   C     0.51559   0.53450   0.35914   0.00000  Uiso   1.00
C768   C     0.48498   0.46535   0.64094   0.00000  Uiso   1.00
C769   C     0.51563   0.53447   0.64453   0.00000  Uiso   1.00
C770   C     0.48505   0.46535   0.35556   0.00000  Uiso   1.00
H771   H     0.45408   0.37331   0.43349   0.00000  Uiso   1.00
H772   H     0.54775   0.62642   0.56580   0.00000  Uiso   1.00
H773   H     0.52816   0.56208   0.37869   0.00000  Uiso   1.00
H774   H     0.47267   0.43769   0.62144   0.00000  Uiso   1.00
H775   H     0.52828   0.56204   0.62795   0.00000  Uiso   1.00
H776   H     0.47280   0.43766   0.37215   0.00000  Uiso   1.00
N777   N     0.49999   0.49999   0.61907   0.00000  Uiso   1.00
N778   N     0.50001   0.50001   0.38093   0.00000  Uiso   1.00
O779   O     0.50000   0.43892   0.53821   0.00000  Uiso   1.00
O780   O     0.50000   0.56108   0.46179   0.00000  Uiso   1.00
O781   O     0.50000   0.43893   0.46176   0.00000  Uiso   1.00
O782   O     0.50000   0.56107   0.53824   0.00000  Uiso   1.00
O783   O     0.42392   0.50000   0.52928   0.00000  Uiso   1.00
O784   O     0.57608   0.50000   0.47072   0.00000  Uiso   1.00
O785   O     0.42392   0.50000   0.45284   0.00000  Uiso   1.00
O786   O     0.57608   0.50000   0.54716   0.00000  Uiso   1.00
Zn787  Zn    0.50000   0.49999   0.55104   0.00000  Uiso   1.00
Zn788  Zn    0.50000   0.50001   0.44896   0.00000  Uiso   1.00
C789   C     0.65601   0.45815   0.43820   0.00000  Uiso   1.00
C790   C     0.35631   0.42151   0.42577   0.00000  Uiso   1.00
C791   C     0.66055   0.39650   0.38576   0.00000  Uiso   1.00
H792   H     0.62392   0.38235   0.39524   0.00000  Uiso   1.00
H793   H     0.64985   0.41688   0.35528   0.00000  Uiso   1.00
H794   H     0.35331   0.37117   0.37680   0.00000  Uiso   1.00
H795   H     0.39393   0.43310   0.41582   0.00000  Uiso   1.00
H796   H     0.36586   0.40043   0.45594   0.00000  Uiso   1.00
H797   H     0.61635   0.44483   0.44062   0.00000  Uiso   1.00
H798   H     0.65179   0.48189   0.41033   0.00000  Uiso   1.00
C799   C     0.34419   0.47134   0.56963   0.00000  Uiso   1.00
C800   C     0.35326   0.51016   0.60066   0.00000  Uiso   1.00
C801   C     0.34794   0.49974   0.65032   0.00000  Uiso   1.00
H802   H     0.63965   0.49093   0.65282   0.00000  Uiso   1.00
H803   H     0.37455   0.47360   0.66315   0.00000  Uiso   1.00
H804   H     0.35880   0.52733   0.33897   0.00000  Uiso   1.00
H805   H     0.39343   0.52312   0.59995   0.00000  Uiso   1.00
H806   H     0.65785   0.53524   0.58863   0.00000  Uiso   1.00
H807   H     0.64916   0.44990   0.58303   0.00000  Uiso   1.00
H808   H     0.38104   0.45262   0.57197   0.00000  Uiso   1.00
C809   C     0.43996   0.62666   0.42272   0.00000  Uiso   1.00
N810   N     0.41448   0.61093   0.39166   0.00000  Uiso   1.00
C811   C     0.55908   0.37322   0.57786   0.00000  Uiso   1.00
N812   N     0.58340   0.38888   0.60955   0.00000  Uiso   1.00
C813   C     0.83458   0.42001   0.50031   0.00000  Uiso   1.00
C814   C     0.83218   0.57995   0.49968   0.00000  Uiso   1.00
C815   C     0.73425   0.49342   0.48842   0.00000  Uiso   1.00
C816   C     0.93271   0.49453   0.51206   0.00000  Uiso   1.00
C817   C     0.68037   0.47829   0.48347   0.00000  Uiso   1.00
C818   C     0.98741   0.48209   0.51990   0.00000  Uiso   1.00
C819   C     0.80777   0.35572   0.46237   0.00000  Uiso   1.00
C820   C     0.85998   0.64414   0.53728   0.00000  Uiso   1.00
C821   C     0.80513   0.64638   0.46157   0.00000  Uiso   1.00
C822   C     0.86188   0.35352   0.53840   0.00000  Uiso   1.00
C823   C     0.83187   0.62408   0.49926   0.00000  Uiso   1.00
C824   C     0.83529   0.37584   0.50064   0.00000  Uiso   1.00
C825   C     0.84892   0.53450   0.35914   0.00000  Uiso   1.00
C826   C     0.81832   0.46535   0.64094   0.00000  Uiso   1.00
C827   C     0.84896   0.53447   0.64453   0.00000  Uiso   1.00
C828   C     0.81839   0.46535   0.35556   0.00000  Uiso   1.00
H829   H     0.78741   0.37331   0.43349   0.00000  Uiso   1.00
H830   H     0.88108   0.62642   0.56580   0.00000  Uiso   1.00
H831   H     0.86149   0.56208   0.37869   0.00000  Uiso   1.00
H832   H     0.80601   0.43769   0.62144   0.00000  Uiso   1.00
H833   H     0.86161   0.56204   0.62795   0.00000  Uiso   1.00
H834   H     0.80614   0.43766   0.37215   0.00000  Uiso   1.00
N835   N     0.83332   0.49999   0.61907   0.00000  Uiso   1.00
N836   N     0.83335   0.50001   0.38093   0.00000  Uiso   1.00
O837   O     0.83333   0.43892   0.53821   0.00000  Uiso   1.00
O838   O     0.83334   0.56108   0.46179   0.00000  Uiso   1.00
O839   O     0.83333   0.43893   0.46176   0.00000  Uiso   1.00
O840   O     0.83334   0.56107   0.53824   0.00000  Uiso   1.00
O841   O     0.75725   0.50000   0.52928   0.00000  Uiso   1.00
O842   O     0.90942   0.50000   0.47072   0.00000  Uiso   1.00
O843   O     0.75725   0.50000   0.45284   0.00000  Uiso   1.00
O844   O     0.90942   0.50000   0.54716   0.00000  Uiso   1.00
Zn845  Zn    0.83333   0.49999   0.55104   0.00000  Uiso   1.00
Zn846  Zn    0.83333   0.50001   0.44896   0.00000  Uiso   1.00
C847   C     0.98934   0.45815   0.43820   0.00000  Uiso   1.00
C848   C     0.68964   0.42151   0.42577   0.00000  Uiso   1.00
C849   C     0.99389   0.39650   0.38576   0.00000  Uiso   1.00
H850   H     0.95725   0.38235   0.39524   0.00000  Uiso   1.00
H851   H     0.98319   0.41688   0.35528   0.00000  Uiso   1.00
H852   H     0.68664   0.37117   0.37680   0.00000  Uiso   1.00
H853   H     0.72726   0.43310   0.41582   0.00000  Uiso   1.00
H854   H     0.69919   0.40043   0.45594   0.00000  Uiso   1.00
H855   H     0.94968   0.44483   0.44062   0.00000  Uiso   1.00
H856   H     0.98512   0.48189   0.41033   0.00000  Uiso   1.00
C857   C     0.67753   0.47134   0.56963   0.00000  Uiso   1.00
C858   C     0.68659   0.51016   0.60066   0.00000  Uiso   1.00
C859   C     0.68127   0.49974   0.65032   0.00000  Uiso   1.00
H860   H     0.97298   0.49093   0.65282   0.00000  Uiso   1.00
H861   H     0.70788   0.47360   0.66315   0.00000  Uiso   1.00
H862   H     0.69213   0.52733   0.33897   0.00000  Uiso   1.00
H863   H     0.72676   0.52312   0.59995   0.00000  Uiso   1.00
H864   H     0.99118   0.53524   0.58863   0.00000  Uiso   1.00
H865   H     0.98249   0.44990   0.58303   0.00000  Uiso   1.00
H866   H     0.71438   0.45262   0.57197   0.00000  Uiso   1.00
C867   C     0.77330   0.62666   0.42272   0.00000  Uiso   1.00
N868   N     0.74781   0.61093   0.39166   0.00000  Uiso   1.00
C869   C     0.89241   0.37322   0.57786   0.00000  Uiso   1.00
N870   N     0.91674   0.38888   0.60955   0.00000  Uiso   1.00
C871   C     0.16791   0.75335   0.50031   0.00000  Uiso   1.00
C872   C     0.16552   0.91329   0.49968   0.00000  Uiso   1.00
C873   C     0.06758   0.82675   0.48842   0.00000  Uiso   1.00
C874   C     0.26605   0.82786   0.51206   0.00000  Uiso   1.00
C875   C     0.01370   0.81162   0.48347   0.00000  Uiso   1.00
C876   C     0.32074   0.81543   0.51990   0.00000  Uiso   1.00
C877   C     0.14111   0.68906   0.46237   0.00000  Uiso   1.00
C878   C     0.19331   0.97748   0.53728   0.00000  Uiso   1.00
C879   C     0.13847   0.97971   0.46157   0.00000  Uiso   1.00
C880   C     0.19521   0.68686   0.53840   0.00000  Uiso   1.00
C881   C     0.16520   0.95742   0.49926   0.00000  Uiso   1.00
C882   C     0.16862   0.70918   0.50064   0.00000  Uiso   1.00
C883   C     0.18226   0.86783   0.35914   0.00000  Uiso   1.00
C884   C     0.15165   0.79868   0.64094   0.00000  Uiso   1.00
C885   C     0.18229   0.86781   0.64453   0.00000  Uiso   1.00
C886   C     0.15172   0.79868   0.35556   0.00000  Uiso   1.00
H887   H     0.12074   0.70665   0.43349   0.00000  Uiso   1.00
H888   H     0.21441   0.95976   0.56580   0.00000  Uiso   1.00
H889   H     0.19482   0.89542   0.37869   0.00000  Uiso   1.00
H890   H     0.13934   0.77102   0.62144   0.00000  Uiso   1.00
H891   H     0.19495   0.89537   0.62795   0.00000  Uiso   1.00
H892   H     0.13947   0.77099   0.37215   0.00000  Uiso   1.00
N893   N     0.16665   0.83332   0.61907   0.00000  Uiso   1.00
N894   N     0.16668   0.83334   0.38093   0.00000  Uiso   1.00
O895   O     0.16666   0.77225   0.53821   0.00000  Uiso   1.00
O896   O     0.16667   0.89442   0.46179   0.00000  Uiso   1.00
O897   O     0.16666   0.77226   0.46176   0.00000  Uiso   1.00
O898   O     0.16667   0.89441   0.53824   0.00000  Uiso   1.00
O899   O     0.09058   0.83333   0.52928   0.00000  Uiso   1.00
O900   O     0.24275   0.83334   0.47072   0.00000  Uiso   1.00
O901   O     0.09058   0.83334   0.45284   0.00000  Uiso   1.00
O902   O     0.24275   0.83333   0.54716   0.00000  Uiso   1.00
Zn903  Zn    0.16667   0.83333   0.55104   0.00000  Uiso   1.00
Zn904  Zn    0.16667   0.83334   0.44896   0.00000  Uiso   1.00
C905   C     0.32268   0.79149   0.43820   0.00000  Uiso   1.00
C906   C     0.02298   0.75484   0.42577   0.00000  Uiso   1.00
C907   C     0.32722   0.72984   0.38576   0.00000  Uiso   1.00
H908   H     0.29058   0.71568   0.39524   0.00000  Uiso   1.00
H909   H     0.31652   0.75022   0.35528   0.00000  Uiso   1.00
H910   H     0.01997   0.70451   0.37680   0.00000  Uiso   1.00
H911   H     0.06060   0.76644   0.41582   0.00000  Uiso   1.00
H912   H     0.03253   0.73376   0.45594   0.00000  Uiso   1.00
H913   H     0.28301   0.77817   0.44062   0.00000  Uiso   1.00
H914   H     0.31846   0.81522   0.41033   0.00000  Uiso   1.00
C915   C     0.01086   0.80468   0.56963   0.00000  Uiso   1.00
C916   C     0.01993   0.84349   0.60066   0.00000  Uiso   1.00
C917   C     0.01460   0.83307   0.65032   0.00000  Uiso   1.00
H918   H     0.30632   0.82427   0.65282   0.00000  Uiso   1.00
H919   H     0.04122   0.80693   0.66315   0.00000  Uiso   1.00
H920   H     0.02547   0.86066   0.33897   0.00000  Uiso   1.00
H921   H     0.06010   0.85646   0.59995   0.00000  Uiso   1.00
H922   H     0.32452   0.86857   0.58863   0.00000  Uiso   1.00
H923   H     0.31582   0.78323   0.58303   0.00000  Uiso   1.00
H924   H     0.04771   0.78595   0.57197   0.00000  Uiso   1.00
C925   C     0.10663   0.96000   0.42272   0.00000  Uiso   1.00
N926   N     0.08115   0.94426   0.39166   0.00000  Uiso   1.00
C927   C     0.22575   0.70655   0.57786   0.00000  Uiso   1.00
N928   N     0.25007   0.72221   0.60955   0.00000  Uiso   1.00
C929   C     0.50125   0.75335   0.50031   0.00000  Uiso   1.00
C930   C     0.49885   0.91329   0.49968   0.00000  Uiso   1.00
C931   C     0.40092   0.82675   0.48842   0.00000  Uiso   1.00
C932   C     0.59938   0.82786   0.51206   0.00000  Uiso   1.00
C933   C     0.34703   0.81162   0.48347   0.00000  Uiso   1.00
C934   C     0.65407   0.81543   0.51990   0.00000  Uiso   1.00
C935   C     0.47444   0.68906   0.46237   0.00000  Uiso   1.00
C936   C     0.52665   0.97748   0.53728   0.00000  Uiso   1.00
C937   C     0.47180   0.97971   0.46157   0.00000  Uiso   1.00
C938   C     0.52854   0.68686   0.53840   0.00000  Uiso   1.00
C939   C     0.49853   0.95742   0.49926   0.00000  Uiso   1.00
C940   C     0.50195   0.70918   0.50064   0.00000  Uiso   1.00
C941   C     0.51559   0.86783   0.35914   0.00000  Uiso   1.00
C942   C     0.48498   0.79868   0.64094   0.00000  Uiso   1.00
C943   C     0.51563   0.86781   0.64453   0.00000  Uiso   1.00
C944   C     0.48505   0.79868   0.35556   0.00000  Uiso   1.00
H945   H     0.45408   0.70665   0.43349   0.00000  Uiso   1.00
H946   H     0.54775   0.95976   0.56580   0.00000  Uiso   1.00
H947   H     0.52816   0.89542   0.37869   0.00000  Uiso   1.00
H948   H     0.47267   0.77102   0.62144   0.00000  Uiso   1.00
H949   H     0.52828   0.89537   0.62795   0.00000  Uiso   1.00
H950   H     0.47280   0.77099   0.37215   0.00000  Uiso   1.00
N951   N     0.49999   0.83332   0.61907   0.00000  Uiso   1.00
N952   N     0.50001   0.83334   0.38093   0.00000  Uiso   1.00
O953   O     0.50000   0.77225   0.53821   0.00000  Uiso   1.00
O954   O     0.50000   0.89442   0.46179   0.00000  Uiso   1.00
O955   O     0.50000   0.77226   0.46176   0.00000  Uiso   1.00
O956   O     0.50000   0.89441   0.53824   0.00000  Uiso   1.00
O957   O     0.42392   0.83333   0.52928   0.00000  Uiso   1.00
O958   O     0.57608   0.83334   0.47072   0.00000  Uiso   1.00
O959   O     0.42392   0.83334   0.45284   0.00000  Uiso   1.00
O960   O     0.57608   0.83333   0.54716   0.00000  Uiso   1.00
Zn961  Zn    0.50000   0.83333   0.55104   0.00000  Uiso   1.00
Zn962  Zn    0.50000   0.83334   0.44896   0.00000  Uiso   1.00
C963   C     0.65601   0.79149   0.43820   0.00000  Uiso   1.00
C964   C     0.35631   0.75484   0.42577   0.00000  Uiso   1.00
C965   C     0.66055   0.72984   0.38576   0.00000  Uiso   1.00
H966   H     0.62392   0.71568   0.39524   0.00000  Uiso   1.00
H967   H     0.64985   0.75022   0.35528   0.00000  Uiso   1.00
H968   H     0.35331   0.70451   0.37680   0.00000  Uiso   1.00
H969   H     0.39393   0.76644   0.41582   0.00000  Uiso   1.00
H970   H     0.36586   0.73376   0.45594   0.00000  Uiso   1.00
H971   H     0.61635   0.77817   0.44062   0.00000  Uiso   1.00
H972   H     0.65179   0.81522   0.41033   0.00000  Uiso   1.00
C973   C     0.34419   0.80468   0.56963   0.00000  Uiso   1.00
C974   C     0.35326   0.84349   0.60066   0.00000  Uiso   1.00
C975   C     0.34794   0.83307   0.65032   0.00000  Uiso   1.00
H976   H     0.63965   0.82427   0.65282   0.00000  Uiso   1.00
H977   H     0.37455   0.80693   0.66315   0.00000  Uiso   1.00
H978   H     0.35880   0.86066   0.33897   0.00000  Uiso   1.00
H979   H     0.39343   0.85646   0.59995   0.00000  Uiso   1.00
H980   H     0.65785   0.86857   0.58863   0.00000  Uiso   1.00
H981   H     0.64916   0.78323   0.58303   0.00000  Uiso   1.00
H982   H     0.38104   0.78595   0.57197   0.00000  Uiso   1.00
C983   C     0.43996   0.96000   0.42272   0.00000  Uiso   1.00
N984   N     0.41448   0.94426   0.39166   0.00000  Uiso   1.00
C985   C     0.55908   0.70655   0.57786   0.00000  Uiso   1.00
N986   N     0.58340   0.72221   0.60955   0.00000  Uiso   1.00
C987   C     0.83458   0.75335   0.50031   0.00000  Uiso   1.00
C988   C     0.83218   0.91329   0.49968   0.00000  Uiso   1.00
C989   C     0.73425   0.82675   0.48842   0.00000  Uiso   1.00
C990   C     0.93271   0.82786   0.51206   0.00000  Uiso   1.00
C991   C     0.68037   0.81162   0.48347   0.00000  Uiso   1.00
C992   C     0.98741   0.81543   0.51990   0.00000  Uiso   1.00
C993   C     0.80777   0.68906   0.46237   0.00000  Uiso   1.00
C994   C     0.85998   0.97748   0.53728   0.00000  Uiso   1.00
C995   C     0.80513   0.97971   0.46157   0.00000  Uiso   1.00
C996   C     0.86188   0.68686   0.53840   0.00000  Uiso   1.00
C997   C     0.83187   0.95742   0.49926   0.00000  Uiso   1.00
C998   C     0.83529   0.70918   0.50064   0.00000  Uiso   1.00
C999   C     0.84892   0.86783   0.35914   0.00000  Uiso   1.00
C1000  C     0.81832   0.79868   0.64094   0.00000  Uiso   1.00
C1001  C     0.84896   0.86781   0.64453   0.00000  Uiso   1.00
C1002  C     0.81839   0.79868   0.35556   0.00000  Uiso   1.00
H1003  H     0.78741   0.70665   0.43349   0.00000  Uiso   1.00
H1004  H     0.88108   0.95976   0.56580   0.00000  Uiso   1.00
H1005  H     0.86149   0.89542   0.37869   0.00000  Uiso   1.00
H1006  H     0.80601   0.77102   0.62144   0.00000  Uiso   1.00
H1007  H     0.86161   0.89537   0.62795   0.00000  Uiso   1.00
H1008  H     0.80614   0.77099   0.37215   0.00000  Uiso   1.00
N1009  N     0.83332   0.83332   0.61907   0.00000  Uiso   1.00
N1010  N     0.83335   0.83334   0.38093   0.00000  Uiso   1.00
O1011  O     0.83333   0.77225   0.53821   0.00000  Uiso   1.00
O1012  O     0.83334   0.89442   0.46179   0.00000  Uiso   1.00
O1013  O     0.83333   0.77226   0.46176   0.00000  Uiso   1.00
O1014  O     0.83334   0.89441   0.53824   0.00000  Uiso   1.00
O1015  O     0.75725   0.83333   0.52928   0.00000  Uiso   1.00
O1016  O     0.90942   0.83334   0.47072   0.00000  Uiso   1.00
O1017  O     0.75725   0.83334   0.45284   0.00000  Uiso   1.00
O1018  O     0.90942   0.83333   0.54716   0.00000  Uiso   1.00
Zn1019 Zn    0.83333   0.83333   0.55104   0.00000  Uiso   1.00
Zn1020 Zn    0.83333   0.83334   0.44896   0.00000  Uiso   1.00
C1021  C     0.98934   0.79149   0.43820   0.00000  Uiso   1.00
C1022  C     0.68964   0.75484   0.42577   0.00000  Uiso   1.00
C1023  C     0.99389   0.72984   0.38576   0.00000  Uiso   1.00
H1024  H     0.95725   0.71568   0.39524   0.00000  Uiso   1.00
H1025  H     0.98319   0.75022   0.35528   0.00000  Uiso   1.00
H1026  H     0.68664   0.70451   0.37680   0.00000  Uiso   1.00
H1027  H     0.72726   0.76644   0.41582   0.00000  Uiso   1.00
H1028  H     0.69919   0.73376   0.45594   0.00000  Uiso   1.00
H1029  H     0.94968   0.77817   0.44062   0.00000  Uiso   1.00
H1030  H     0.98512   0.81522   0.41033   0.00000  Uiso   1.00
C1031  C     0.67753   0.80468   0.56963   0.00000  Uiso   1.00
C1032  C     0.68659   0.84349   0.60066   0.00000  Uiso   1.00
C1033  C     0.68127   0.83307   0.65032   0.00000  Uiso   1.00
H1034  H     0.97298   0.82427   0.65282   0.00000  Uiso   1.00
H1035  H     0.70788   0.80693   0.66315   0.00000  Uiso   1.00
H1036  H     0.69213   0.86066   0.33897   0.00000  Uiso   1.00
H1037  H     0.72676   0.85646   0.59995   0.00000  Uiso   1.00
H1038  H     0.99118   0.86857   0.58863   0.00000  Uiso   1.00
H1039  H     0.98249   0.78323   0.58303   0.00000  Uiso   1.00
H1040  H     0.71438   0.78595   0.57197   0.00000  Uiso   1.00
C1041  C     0.77330   0.96000   0.42272   0.00000  Uiso   1.00
N1042  N     0.74781   0.94426   0.39166   0.00000  Uiso   1.00
C1043  C     0.89241   0.70655   0.57786   0.00000  Uiso   1.00
N1044  N     0.91674   0.72221   0.60955   0.00000  Uiso   1.00
C1045  C     0.16791   0.08668   0.83364   0.00000  Uiso   1.00
C1046  C     0.16552   0.24662   0.83302   0.00000  Uiso   1.00
C1047  C     0.06758   0.16009   0.82176   0.00000  Uiso   1.00
C1048  C     0.26605   0.16119   0.84539   0.00000  Uiso   1.00
C1049  C     0.01370   0.14495   0.81681   0.00000  Uiso   1.00
C1050  C     0.32074   0.14876   0.85324   0.00000  Uiso   1.00
C1051  C     0.14111   0.02239   0.79570   0.00000  Uiso   1.00
C1052  C     0.19331   0.31081   0.87061   0.00000  Uiso   1.00
C1053  C     0.13847   0.31305   0.79490   0.00000  Uiso   1.00
C1054  C     0.19521   0.02019   0.87173   0.00000  Uiso   1.00
C1055  C     0.16520   0.29075   0.83260   0.00000  Uiso   1.00
C1056  C     0.16862   0.04251   0.83397   0.00000  Uiso   1.00
C1057  C     0.18226   0.20116   0.69247   0.00000  Uiso   1.00
C1058  C     0.15165   0.13202   0.97428   0.00000  Uiso   1.00
C1059  C     0.18229   0.20114   0.97786   0.00000  Uiso   1.00
C1060  C     0.15172   0.13201   0.68889   0.00000  Uiso   1.00
H1061  H     0.12074   0.03998   0.76683   0.00000  Uiso   1.00
H1062  H     0.21441   0.29309   0.89914   0.00000  Uiso   1.00
H1063  H     0.19482   0.22875   0.71203   0.00000  Uiso   1.00
H1064  H     0.13934   0.10435   0.95478   0.00000  Uiso   1.00
H1065  H     0.19495   0.22870   0.96128   0.00000  Uiso   1.00
H1066  H     0.13947   0.10433   0.70548   0.00000  Uiso   1.00
N1067  N     0.16665   0.16666   0.95240   0.00000  Uiso   1.00
N1068  N     0.16668   0.16668   0.71427   0.00000  Uiso   1.00
O1069  O     0.16666   0.10558   0.87154   0.00000  Uiso   1.00
O1070  O     0.16667   0.22775   0.79513   0.00000  Uiso   1.00
O1071  O     0.16666   0.10559   0.79510   0.00000  Uiso   1.00
O1072  O     0.16667   0.22774   0.87157   0.00000  Uiso   1.00
O1073  O     0.09058   0.16666   0.86261   0.00000  Uiso   1.00
O1074  O     0.24275   0.16667   0.80405   0.00000  Uiso   1.00
O1075  O     0.09058   0.16667   0.78617   0.00000  Uiso   1.00
O1076  O     0.24275   0.16666   0.88050   0.00000  Uiso   1.00
Zn1077 Zn    0.16667   0.16666   0.88437   0.00000  Uiso   1.00
Zn1078 Zn    0.16667   0.16667   0.78229   0.00000  Uiso   1.00
C1079  C     0.32268   0.12482   0.77153   0.00000  Uiso   1.00
C1080  C     0.02298   0.08817   0.75911   0.00000  Uiso   1.00
C1081  C     0.32722   0.06317   0.71909   0.00000  Uiso   1.00
H1082  H     0.29058   0.04901   0.72857   0.00000  Uiso   1.00
H1083  H     0.31652   0.08355   0.68861   0.00000  Uiso   1.00
H1084  H     0.01997   0.03784   0.71014   0.00000  Uiso   1.00
H1085  H     0.06060   0.09977   0.74915   0.00000  Uiso   1.00
H1086  H     0.03253   0.06709   0.78927   0.00000  Uiso   1.00
H1087  H     0.28301   0.11150   0.77395   0.00000  Uiso   1.00
H1088  H     0.31846   0.14855   0.74366   0.00000  Uiso   1.00
C1089  C     0.01086   0.13801   0.90296   0.00000  Uiso   1.00
C1090  C     0.01993   0.17682   0.93400   0.00000  Uiso   1.00
C1091  C     0.01460   0.16640   0.98365   0.00000  Uiso   1.00
H1092  H     0.30632   0.15760   0.98615   0.00000  Uiso   1.00
H1093  H     0.04122   0.14027   0.99649   0.00000  Uiso   1.00
H1094  H     0.02547   0.19400   0.67230   0.00000  Uiso   1.00
H1095  H     0.06010   0.18979   0.93328   0.00000  Uiso   1.00
H1096  H     0.32452   0.20191   0.92196   0.00000  Uiso   1.00
H1097  H     0.31582   0.11657   0.91636   0.00000  Uiso   1.00
H1098  H     0.04771   0.11928   0.90530   0.00000  Uiso   1.00
C1099  C     0.10663   0.29333   0.75606   0.00000  Uiso   1.00
N1100  N     0.08115   0.27760   0.72499   0.00000  Uiso   1.00
C1101  C     0.22575   0.03989   0.91120   0.00000  Uiso   1.00
N1102  N     0.25007   0.05554   0.94288   0.00000  Uiso   1.00
C1103  C     0.50125   0.08668   0.83364   0.00000  Uiso   1.00
C1104  C     0.49885   0.24662   0.83302   0.00000  Uiso   1.00
C1105  C     0.40092   0.16009   0.82176   0.00000  Uiso   1.00
C1106  C     0.59938   0.16119   0.84539   0.00000  Uiso   1.00
C1107  C     0.34703   0.14495   0.81681   0.00000  Uiso   1.00
C1108  C     0.65407   0.14876   0.85324   0.00000  Uiso   1.00
C1109  C     0.47444   0.02239   0.79570   0.00000  Uiso   1.00
C1110  C     0.52665   0.31081   0.87061   0.00000  Uiso   1.00
C1111  C     0.47180   0.31305   0.79490   0.00000  Uiso   1.00
C1112  C     0.52854   0.02019   0.87173   0.00000  Uiso   1.00
C1113  C     0.49853   0.29075   0.83260   0.00000  Uiso   1.00
C1114  C     0.50195   0.04251   0.83397   0.00000  Uiso   1.00
C1115  C     0.51559   0.20116   0.69247   0.00000  Uiso   1.00
C1116  C     0.48498   0.13202   0.97428   0.00000  Uiso   1.00
C1117  C     0.51563   0.20114   0.97786   0.00000  Uiso   1.00
C1118  C     0.48505   0.13201   0.68889   0.00000  Uiso   1.00
H1119  H     0.45408   0.03998   0.76683   0.00000  Uiso   1.00
H1120  H     0.54775   0.29309   0.89914   0.00000  Uiso   1.00
H1121  H     0.52816   0.22875   0.71203   0.00000  Uiso   1.00
H1122  H     0.47267   0.10435   0.95478   0.00000  Uiso   1.00
H1123  H     0.52828   0.22870   0.96128   0.00000  Uiso   1.00
H1124  H     0.47280   0.10433   0.70548   0.00000  Uiso   1.00
N1125  N     0.49999   0.16666   0.95240   0.00000  Uiso   1.00
N1126  N     0.50001   0.16668   0.71427   0.00000  Uiso   1.00
O1127  O     0.50000   0.10558   0.87154   0.00000  Uiso   1.00
O1128  O     0.50000   0.22775   0.79513   0.00000  Uiso   1.00
O1129  O     0.50000   0.10559   0.79510   0.00000  Uiso   1.00
O1130  O     0.50000   0.22774   0.87157   0.00000  Uiso   1.00
O1131  O     0.42392   0.16666   0.86261   0.00000  Uiso   1.00
O1132  O     0.57608   0.16667   0.80405   0.00000  Uiso   1.00
O1133  O     0.42392   0.16667   0.78617   0.00000  Uiso   1.00
O1134  O     0.57608   0.16666   0.88050   0.00000  Uiso   1.00
Zn1135 Zn    0.50000   0.16666   0.88437   0.00000  Uiso   1.00
Zn1136 Zn    0.50000   0.16667   0.78229   0.00000  Uiso   1.00
C1137  C     0.65601   0.12482   0.77153   0.00000  Uiso   1.00
C1138  C     0.35631   0.08817   0.75911   0.00000  Uiso   1.00
C1139  C     0.66055   0.06317   0.71909   0.00000  Uiso   1.00
H1140  H     0.62392   0.04901   0.72857   0.00000  Uiso   1.00
H1141  H     0.64985   0.08355   0.68861   0.00000  Uiso   1.00
H1142  H     0.35331   0.03784   0.71014   0.00000  Uiso   1.00
H1143  H     0.39393   0.09977   0.74915   0.00000  Uiso   1.00
H1144  H     0.36586   0.06709   0.78927   0.00000  Uiso   1.00
H1145  H     0.61635   0.11150   0.77395   0.00000  Uiso   1.00
H1146  H     0.65179   0.14855   0.74366   0.00000  Uiso   1.00
C1147  C     0.34419   0.13801   0.90296   0.00000  Uiso   1.00
C1148  C     0.35326   0.17682   0.93400   0.00000  Uiso   1.00
C1149  C     0.34794   0.16640   0.98365   0.00000  Uiso   1.00
H1150  H     0.63965   0.15760   0.98615   0.00000  Uiso   1.00
H1151  H     0.37455   0.14027   0.99649   0.00000  Uiso   1.00
H1152  H     0.35880   0.19400   0.67230   0.00000  Uiso   1.00
H1153  H     0.39343   0.18979   0.93328   0.00000  Uiso   1.00
H1154  H     0.65785   0.20191   0.92196   0.00000  Uiso   1.00
H1155  H     0.64916   0.11657   0.91636   0.00000  Uiso   1.00
H1156  H     0.38104   0.11928   0.90530   0.00000  Uiso   1.00
C1157  C     0.43996   0.29333   0.75606   0.00000  Uiso   1.00
N1158  N     0.41448   0.27760   0.72499   0.00000  Uiso   1.00
C1159  C     0.55908   0.03989   0.91120   0.00000  Uiso   1.00
N1160  N     0.58340   0.05554   0.94288   0.00000  Uiso   1.00
C1161  C     0.83458   0.08668   0.83364   0.00000  Uiso   1.00
C1162  C     0.83218   0.24662   0.83302   0.00000  Uiso   1.00
C1163  C     0.73425   0.16009   0.82176   0.00000  Uiso   1.00
C1164  C     0.93271   0.16119   0.84539   0.00000  Uiso   1.00
C1165  C     0.68037   0.14495   0.81681   0.00000  Uiso   1.00
C1166  C     0.98741   0.14876   0.85324   0.00000  Uiso   1.00
C1167  C     0.80777   0.02239   0.79570   0.00000  Uiso   1.00
C1168  C     0.85998   0.31081   0.87061   0.00000  Uiso   1.00
C1169  C     0.80513   0.31305   0.79490   0.00000  Uiso   1.00
C1170  C     0.86188   0.02019   0.87173   0.00000  Uiso   1.00
C1171  C     0.83187   0.29075   0.83260   0.00000  Uiso   1.00
C1172  C     0.83529   0.04251   0.83397   0.00000  Uiso   1.00
C1173  C     0.84892   0.20116   0.69247   0.00000  Uiso   1.00
C1174  C     0.81832   0.13202   0.97428   0.00000  Uiso   1.00
C1175  C     0.84896   0.20114   0.97786   0.00000  Uiso   1.00
C1176  C     0.81839   0.13201   0.68889   0.00000  Uiso   1.00
H1177  H     0.78741   0.03998   0.76683   0.00000  Uiso   1.00
H1178  H     0.88108   0.29309   0.89914   0.00000  Uiso   1.00
H1179  H     0.86149   0.22875   0.71203   0.00000  Uiso   1.00
H1180  H     0.80601   0.10435   0.95478   0.00000  Uiso   1.00
H1181  H     0.86161   0.22870   0.96128   0.00000  Uiso   1.00
H1182  H     0.80614   0.10433   0.70548   0.00000  Uiso   1.00
N1183  N     0.83332   0.16666   0.95240   0.00000  Uiso   1.00
N1184  N     0.83335   0.16668   0.71427   0.00000  Uiso   1.00
O1185  O     0.83333   0.10558   0.87154   0.00000  Uiso   1.00
O1186  O     0.83334   0.22775   0.79513   0.00000  Uiso   1.00
O1187  O     0.83333   0.10559   0.79510   0.00000  Uiso   1.00
O1188  O     0.83334   0.22774   0.87157   0.00000  Uiso   1.00
O1189  O     0.75725   0.16666   0.86261   0.00000  Uiso   1.00
O1190  O     0.90942   0.16667   0.80405   0.00000  Uiso   1.00
O1191  O     0.75725   0.16667   0.78617   0.00000  Uiso   1.00
O1192  O     0.90942   0.16666   0.88050   0.00000  Uiso   1.00
Zn1193 Zn    0.83333   0.16666   0.88437   0.00000  Uiso   1.00
Zn1194 Zn    0.83333   0.16667   0.78229   0.00000  Uiso   1.00
C1195  C     0.98934   0.12482   0.77153   0.00000  Uiso   1.00
C1196  C     0.68964   0.08817   0.75911   0.00000  Uiso   1.00
C1197  C     0.99389   0.06317   0.71909   0.00000  Uiso   1.00
H1198  H     0.95725   0.04901   0.72857   0.00000  Uiso   1.00
H1199  H     0.98319   0.08355   0.68861   0.00000  Uiso   1.00
H1200  H     0.68664   0.03784   0.71014   0.00000  Uiso   1.00
H1201  H     0.72726   0.09977   0.74915   0.00000  Uiso   1.00
H1202  H     0.69919   0.06709   0.78927   0.00000  Uiso   1.00
H1203  H     0.94968   0.11150   0.77395   0.00000  Uiso   1.00
H1204  H     0.98512   0.14855   0.74366   0.00000  Uiso   1.00
C1205  C     0.67753   0.13801   0.90296   0.00000  Uiso   1.00
C1206  C     0.68659   0.17682   0.93400   0.00000  Uiso   1.00
C1207  C     0.68127   0.16640   0.98365   0.00000  Uiso   1.00
H1208  H     0.97298   0.15760   0.98615   0.00000  Uiso   1.00
H1209  H     0.70788   0.14027   0.99649   0.00000  Uiso   1.00
H1210  H     0.69213   0.19400   0.67230   0.00000  Uiso   1.00
H1211  H     0.72676   0.18979   0.93328   0.00000  Uiso   1.00
H1212  H     0.99118   0.20191   0.92196   0.00000  Uiso   1.00
H1213  H     0.98249   0.11657   0.91636   0.00000  Uiso   1.00
H1214  H     0.71438   0.11928   0.90530   0.00000  Uiso   1.00
C1215  C     0.77330   0.29333   0.75606   0.00000  Uiso   1.00
N1216  N     0.74781   0.27760   0.72499   0.00000  Uiso   1.00
C1217  C     0.89241   0.03989   0.91120   0.00000  Uiso   1.00
N1218  N     0.91674   0.05554   0.94288   0.00000  Uiso   1.00
C1219  C     0.16791   0.42001   0.83364   0.00000  Uiso   1.00
C1220  C     0.16552   0.57995   0.83302   0.00000  Uiso   1.00
C1221  C     0.06758   0.49342   0.82176   0.00000  Uiso   1.00
C1222  C     0.26605   0.49453   0.84539   0.00000  Uiso   1.00
C1223  C     0.01370   0.47829   0.81681   0.00000  Uiso   1.00
C1224  C     0.32074   0.48209   0.85324   0.00000  Uiso   1.00
C1225  C     0.14111   0.35572   0.79570   0.00000  Uiso   1.00
C1226  C     0.19331   0.64414   0.87061   0.00000  Uiso   1.00
C1227  C     0.13847   0.64638   0.79490   0.00000  Uiso   1.00
C1228  C     0.19521   0.35352   0.87173   0.00000  Uiso   1.00
C1229  C     0.16520   0.62408   0.83260   0.00000  Uiso   1.00
C1230  C     0.16862   0.37584   0.83397   0.00000  Uiso   1.00
C1231  C     0.18226   0.53450   0.69247   0.00000  Uiso   1.00
C1232  C     0.15165   0.46535   0.97428   0.00000  Uiso   1.00
C1233  C     0.18229   0.53447   0.97786   0.00000  Uiso   1.00
C1234  C     0.15172   0.46535   0.68889   0.00000  Uiso   1.00
H1235  H     0.12074   0.37331   0.76683   0.00000  Uiso   1.00
H1236  H     0.21441   0.62642   0.89914   0.00000  Uiso   1.00
H1237  H     0.19482   0.56208   0.71203   0.00000  Uiso   1.00
H1238  H     0.13934   0.43769   0.95478   0.00000  Uiso   1.00
H1239  H     0.19495   0.56204   0.96128   0.00000  Uiso   1.00
H1240  H     0.13947   0.43766   0.70548   0.00000  Uiso   1.00
N1241  N     0.16665   0.49999   0.95240   0.00000  Uiso   1.00
N1242  N     0.16668   0.50001   0.71427   0.00000  Uiso   1.00
O1243  O     0.16666   0.43892   0.87154   0.00000  Uiso   1.00
O1244  O     0.16667   0.56108   0.79513   0.00000  Uiso   1.00
O1245  O     0.16666   0.43893   0.79510   0.00000  Uiso   1.00
O1246  O     0.16667   0.56107   0.87157   0.00000  Uiso   1.00
O1247  O     0.09058   0.50000   0.86261   0.00000  Uiso   1.00
O1248  O     0.24275   0.50000   0.80405   0.00000  Uiso   1.00
O1249  O     0.09058   0.50000   0.78617   0.00000  Uiso   1.00
O1250  O     0.24275   0.50000   0.88050   0.00000  Uiso   1.00
Zn1251 Zn    0.16667   0.49999   0.88437   0.00000  Uiso   1.00
Zn1252 Zn    0.16667   0.50001   0.78229   0.00000  Uiso   1.00
C1253  C     0.32268   0.45815   0.77153   0.00000  Uiso   1.00
C1254  C     0.02298   0.42151   0.75911   0.00000  Uiso   1.00
C1255  C     0.32722   0.39650   0.71909   0.00000  Uiso   1.00
H1256  H     0.29058   0.38235   0.72857   0.00000  Uiso   1.00
H1257  H     0.31652   0.41688   0.68861   0.00000  Uiso   1.00
H1258  H     0.01997   0.37117   0.71014   0.00000  Uiso   1.00
H1259  H     0.06060   0.43310   0.74915   0.00000  Uiso   1.00
H1260  H     0.03253   0.40043   0.78927   0.00000  Uiso   1.00
H1261  H     0.28301   0.44483   0.77395   0.00000  Uiso   1.00
H1262  H     0.31846   0.48189   0.74366   0.00000  Uiso   1.00
C1263  C     0.01086   0.47134   0.90296   0.00000  Uiso   1.00
C1264  C     0.01993   0.51016   0.93400   0.00000  Uiso   1.00
C1265  C     0.01460   0.49974   0.98365   0.00000  Uiso   1.00
H1266  H     0.30632   0.49093   0.98615   0.00000  Uiso   1.00
H1267  H     0.04122   0.47360   0.99649   0.00000  Uiso   1.00
H1268  H     0.02547   0.52733   0.67230   0.00000  Uiso   1.00
H1269  H     0.06010   0.52312   0.93328   0.00000  Uiso   1.00
H1270  H     0.32452   0.53524   0.92196   0.00000  Uiso   1.00
H1271  H     0.31582   0.44990   0.91636   0.00000  Uiso   1.00
H1272  H     0.04771   0.45262   0.90530   0.00000  Uiso   1.00
C1273  C     0.10663   0.62666   0.75606   0.00000  Uiso   1.00
N1274  N     0.08115   0.61093   0.72499   0.00000  Uiso   1.00
C1275  C     0.22575   0.37322   0.91120   0.00000  Uiso   1.00
N1276  N     0.25007   0.38888   0.94288   0.00000  Uiso   1.00
C1277  C     0.50125   0.42001   0.83364   0.00000  Uiso   1.00
C1278  C     0.49885   0.57995   0.83302   0.00000  Uiso   1.00
C1279  C     0.40092   0.49342   0.82176   0.00000  Uiso   1.00
C1280  C     0.59938   0.49453   0.84539   0.00000  Uiso   1.00
C1281  C     0.34703   0.47829   0.81681   0.00000  Uiso   1.00
C1282  C     0.65407   0.48209   0.85324   0.00000  Uiso   1.00
C1283  C     0.47444   0.35572   0.79570   0.00000  Uiso   1.00
C1284  C     0.52665   0.64414   0.87061   0.00000  Uiso   1.00
C1285  C     0.47180   0.64638   0.79490   0.00000  Uiso   1.00
C1286  C     0.52854   0.35352   0.87173   0.00000  Uiso   1.00
C1287  C     0.49853   0.62408   0.83260   0.00000  Uiso   1.00
C1288  C     0.50195   0.37584   0.83397   0.00000  Uiso   1.00
C1289  C     0.51559   0.53450   0.69247   0.00000  Uiso   1.00
C1290  C     0.48498   0.46535   0.97428   0.00000  Uiso   1.00
C1291  C     0.51563   0.53447   0.97786   0.00000  Uiso   1.00
C1292  C     0.48505   0.46535   0.68889   0.00000  Uiso   1.00
H1293  H     0.45408   0.37331   0.76683   0.00000  Uiso   1.00
H1294  H     0.54775   0.62642   0.89914   0.00000  Uiso   1.00
H1295  H     0.52816   0.56208   0.71203   0.00000  Uiso   1.00
H1296  H     0.47267   0.43769   0.95478   0.00000  Uiso   1.00
H1297  H     0.52828   0.56204   0.96128   0.00000  Uiso   1.00
H1298  H     0.47280   0.43766   0.70548   0.00000  Uiso   1.00
N1299  N     0.49999   0.49999   0.95240   0.00000  Uiso   1.00
N1300  N     0.50001   0.50001   0.71427   0.00000  Uiso   1.00
O1301  O     0.50000   0.43892   0.87154   0.00000  Uiso   1.00
O1302  O     0.50000   0.56108   0.79513   0.00000  Uiso   1.00
O1303  O     0.50000   0.43893   0.79510   0.00000  Uiso   1.00
O1304  O     0.50000   0.56107   0.87157   0.00000  Uiso   1.00
O1305  O     0.42392   0.50000   0.86261   0.00000  Uiso   1.00
O1306  O     0.57608   0.50000   0.80405   0.00000  Uiso   1.00
O1307  O     0.42392   0.50000   0.78617   0.00000  Uiso   1.00
O1308  O     0.57608   0.50000   0.88050   0.00000  Uiso   1.00
Zn1309 Zn    0.50000   0.49999   0.88437   0.00000  Uiso   1.00
Zn1310 Zn    0.50000   0.50001   0.78229   0.00000  Uiso   1.00
C1311  C     0.65601   0.45815   0.77153   0.00000  Uiso   1.00
C1312  C     0.35631   0.42151   0.75911   0.00000  Uiso   1.00
C1313  C     0.66055   0.39650   0.71909   0.00000  Uiso   1.00
H1314  H     0.62392   0.38235   0.72857   0.00000  Uiso   1.00
H1315  H     0.64985   0.41688   0.68861   0.00000  Uiso   1.00
H1316  H     0.35331   0.37117   0.71014   0.00000  Uiso   1.00
H1317  H     0.39393   0.43310   0.74915   0.00000  Uiso   1.00
H1318  H     0.36586   0.40043   0.78927   0.00000  Uiso   1.00
H1319  H     0.61635   0.44483   0.77395   0.00000  Uiso   1.00
H1320  H     0.65179   0.48189   0.74366   0.00000  Uiso   1.00
C1321  C     0.34419   0.47134   0.90296   0.00000  Uiso   1.00
C1322  C     0.35326   0.51016   0.93400   0.00000  Uiso   1.00
C1323  C     0.34794   0.49974   0.98365   0.00000  Uiso   1.00
H1324  H     0.63965   0.49093   0.98615   0.00000  Uiso   1.00
H1325  H     0.37455   0.47360   0.99649   0.00000  Uiso   1.00
H1326  H     0.35880   0.52733   0.67230   0.00000  Uiso   1.00
H1327  H     0.39343   0.52312   0.93328   0.00000  Uiso   1.00
H1328  H     0.65785   0.53524   0.92196   0.00000  Uiso   1.00
H1329  H     0.64916   0.44990   0.91636   0.00000  Uiso   1.00
H1330  H     0.38104   0.45262   0.90530   0.00000  Uiso   1.00
C1331  C     0.43996   0.62666   0.75606   0.00000  Uiso   1.00
N1332  N     0.41448   0.61093   0.72499   0.00000  Uiso   1.00
C1333  C     0.55908   0.37322   0.91120   0.00000  Uiso   1.00
N1334  N     0.58340   0.38888   0.94288   0.00000  Uiso   1.00
C1335  C     0.83458   0.42001   0.83364   0.00000  Uiso   1.00
C1336  C     0.83218   0.57995   0.83302   0.00000  Uiso   1.00
C1337  C     0.73425   0.49342   0.82176   0.00000  Uiso   1.00
C1338  C     0.93271   0.49453   0.84539   0.00000  Uiso   1.00
C1339  C     0.68037   0.47829   0.81681   0.00000  Uiso   1.00
C1340  C     0.98741   0.48209   0.85324   0.00000  Uiso   1.00
C1341  C     0.80777   0.35572   0.79570   0.00000  Uiso   1.00
C1342  C     0.85998   0.64414   0.87061   0.00000  Uiso   1.00
C1343  C     0.80513   0.64638   0.79490   0.00000  Uiso   1.00
C1344  C     0.86188   0.35352   0.87173   0.00000  Uiso   1.00
C1345  C     0.83187   0.62408   0.83260   0.00000  Uiso   1.00
C1346  C     0.83529   0.37584   0.83397   0.00000  Uiso   1.00
C1347  C     0.84892   0.53450   0.69247   0.00000  Uiso   1.00
C1348  C     0.81832   0.46535   0.97428   0.00000  Uiso   1.00
C1349  C     0.84896   0.53447   0.97786   0.00000  Uiso   1.00
C1350  C     0.81839   0.46535   0.68889   0.00000  Uiso   1.00
H1351  H     0.78741   0.37331   0.76683   0.00000  Uiso   1.00
H1352  H     0.88108   0.62642   0.89914   0.00000  Uiso   1.00
H1353  H     0.86149   0.56208   0.71203   0.00000  Uiso   1.00
H1354  H     0.80601   0.43769   0.95478   0.00000  Uiso   1.00
H1355  H     0.86161   0.56204   0.96128   0.00000  Uiso   1.00
H1356  H     0.80614   0.43766   0.70548   0.00000  Uiso   1.00
N1357  N     0.83332   0.49999   0.95240   0.00000  Uiso   1.00
N1358  N     0.83335   0.50001   0.71427   0.00000  Uiso   1.00
O1359  O     0.83333   0.43892   0.87154   0.00000  Uiso   1.00
O1360  O     0.83334   0.56108   0.79513   0.00000  Uiso   1.00
O1361  O     0.83333   0.43893   0.79510   0.00000  Uiso   1.00
O1362  O     0.83334   0.56107   0.87157   0.00000  Uiso   1.00
O1363  O     0.75725   0.50000   0.86261   0.00000  Uiso   1.00
O1364  O     0.90942   0.50000   0.80405   0.00000  Uiso   1.00
O1365  O     0.75725   0.50000   0.78617   0.00000  Uiso   1.00
O1366  O     0.90942   0.50000   0.88050   0.00000  Uiso   1.00
Zn1367 Zn    0.83333   0.49999   0.88437   0.00000  Uiso   1.00
Zn1368 Zn    0.83333   0.50001   0.78229   0.00000  Uiso   1.00
C1369  C     0.98934   0.45815   0.77153   0.00000  Uiso   1.00
C1370  C     0.68964   0.42151   0.75911   0.00000  Uiso   1.00
C1371  C     0.99389   0.39650   0.71909   0.00000  Uiso   1.00
H1372  H     0.95725   0.38235   0.72857   0.00000  Uiso   1.00
H1373  H     0.98319   0.41688   0.68861   0.00000  Uiso   1.00
H1374  H     0.68664   0.37117   0.71014   0.00000  Uiso   1.00
H1375  H     0.72726   0.43310   0.74915   0.00000  Uiso   1.00
H1376  H     0.69919   0.40043   0.78927   0.00000  Uiso   1.00
H1377  H     0.94968   0.44483   0.77395   0.00000  Uiso   1.00
H1378  H     0.98512   0.48189   0.74366   0.00000  Uiso   1.00
C1379  C     0.67753   0.47134   0.90296   0.00000  Uiso   1.00
C1380  C     0.68659   0.51016   0.93400   0.00000  Uiso   1.00
C1381  C     0.68127   0.49974   0.98365   0.00000  Uiso   1.00
H1382  H     0.97298   0.49093   0.98615   0.00000  Uiso   1.00
H1383  H     0.70788   0.47360   0.99649   0.00000  Uiso   1.00
H1384  H     0.69213   0.52733   0.67230   0.00000  Uiso   1.00
H1385  H     0.72676   0.52312   0.93328   0.00000  Uiso   1.00
H1386  H     0.99118   0.53524   0.92196   0.00000  Uiso   1.00
H1387  H     0.98249   0.44990   0.91636   0.00000  Uiso   1.00
H1388  H     0.71438   0.45262   0.90530   0.00000  Uiso   1.00
C1389  C     0.77330   0.62666   0.75606   0.00000  Uiso   1.00
N1390  N     0.74781   0.61093   0.72499   0.00000  Uiso   1.00
C1391  C     0.89241   0.37322   0.91120   0.00000  Uiso   1.00
N1392  N     0.91674   0.38888   0.94288   0.00000  Uiso   1.00
C1393  C     0.16791   0.75335   0.83364   0.00000  Uiso   1.00
C1394  C     0.16552   0.91329   0.83302   0.00000  Uiso   1.00
C1395  C     0.06758   0.82675   0.82176   0.00000  Uiso   1.00
C1396  C     0.26605   0.82786   0.84539   0.00000  Uiso   1.00
C1397  C     0.01370   0.81162   0.81681   0.00000  Uiso   1.00
C1398  C     0.32074   0.81543   0.85324   0.00000  Uiso   1.00
C1399  C     0.14111   0.68906   0.79570   0.00000  Uiso   1.00
C1400  C     0.19331   0.97748   0.87061   0.00000  Uiso   1.00
C1401  C     0.13847   0.97971   0.79490   0.00000  Uiso   1.00
C1402  C     0.19521   0.68686   0.87173   0.00000  Uiso   1.00
C1403  C     0.16520   0.95742   0.83260   0.00000  Uiso   1.00
C1404  C     0.16862   0.70918   0.83397   0.00000  Uiso   1.00
C1405  C     0.18226   0.86783   0.69247   0.00000  Uiso   1.00
C1406  C     0.15165   0.79868   0.97428   0.00000  Uiso   1.00
C1407  C     0.18229   0.86781   0.97786   0.00000  Uiso   1.00
C1408  C     0.15172   0.79868   0.68889   0.00000  Uiso   1.00
H1409  H     0.12074   0.70665   0.76683   0.00000  Uiso   1.00
H1410  H     0.21441   0.95976   0.89914   0.00000  Uiso   1.00
H1411  H     0.19482   0.89542   0.71203   0.00000  Uiso   1.00
H1412  H     0.13934   0.77102   0.95478   0.00000  Uiso   1.00
H1413  H     0.19495   0.89537   0.96128   0.00000  Uiso   1.00
H1414  H     0.13947   0.77099   0.70548   0.00000  Uiso   1.00
N1415  N     0.16665   0.83332   0.95240   0.00000  Uiso   1.00
N1416  N     0.16668   0.83334   0.71427   0.00000  Uiso   1.00
O1417  O     0.16666   0.77225   0.87154   0.00000  Uiso   1.00
O1418  O     0.16667   0.89442   0.79513   0.00000  Uiso   1.00
O1419  O     0.16666   0.77226   0.79510   0.00000  Uiso   1.00
O1420  O     0.16667   0.89441   0.87157   0.00000  Uiso   1.00
O1421  O     0.09058   0.83333   0.86261   0.00000  Uiso   1.00
O1422  O     0.24275   0.83334   0.80405   0.00000  Uiso   1.00
O1423  O     0.09058   0.83334   0.78617   0.00000  Uiso   1.00
O1424  O     0.24275   0.83333   0.88050   0.00000  Uiso   1.00
Zn1425 Zn    0.16667   0.83333   0.88437   0.00000  Uiso   1.00
Zn1426 Zn    0.16667   0.83334   0.78229   0.00000  Uiso   1.00
C1427  C     0.32268   0.79149   0.77153   0.00000  Uiso   1.00
C1428  C     0.02298   0.75484   0.75911   0.00000  Uiso   1.00
C1429  C     0.32722   0.72984   0.71909   0.00000  Uiso   1.00
H1430  H     0.29058   0.71568   0.72857   0.00000  Uiso   1.00
H1431  H     0.31652   0.75022   0.68861   0.00000  Uiso   1.00
H1432  H     0.01997   0.70451   0.71014   0.00000  Uiso   1.00
H1433  H     0.06060   0.76644   0.74915   0.00000  Uiso   1.00
H1434  H     0.03253   0.73376   0.78927   0.00000  Uiso   1.00
H1435  H     0.28301   0.77817   0.77395   0.00000  Uiso   1.00
H1436  H     0.31846   0.81522   0.74366   0.00000  Uiso   1.00
C1437  C     0.01086   0.80468   0.90296   0.00000  Uiso   1.00
C1438  C     0.01993   0.84349   0.93400   0.00000  Uiso   1.00
C1439  C     0.01460   0.83307   0.98365   0.00000  Uiso   1.00
H1440  H     0.30632   0.82427   0.98615   0.00000  Uiso   1.00
H1441  H     0.04122   0.80693   0.99649   0.00000  Uiso   1.00
H1442  H     0.02547   0.86066   0.67230   0.00000  Uiso   1.00
H1443  H     0.06010   0.85646   0.93328   0.00000  Uiso   1.00
H1444  H     0.32452   0.86857   0.92196   0.00000  Uiso   1.00
H1445  H     0.31582   0.78323   0.91636   0.00000  Uiso   1.00
H1446  H     0.04771   0.78595   0.90530   0.00000  Uiso   1.00
C1447  C     0.10663   0.96000   0.75606   0.00000  Uiso   1.00
N1448  N     0.08115   0.94426   0.72499   0.00000  Uiso   1.00
C1449  C     0.22575   0.70655   0.91120   0.00000  Uiso   1.00
N1450  N     0.25007   0.72221   0.94288   0.00000  Uiso   1.00
C1451  C     0.50125   0.75335   0.83364   0.00000  Uiso   1.00
C1452  C     0.49885   0.91329   0.83302   0.00000  Uiso   1.00
C1453  C     0.40092   0.82675   0.82176   0.00000  Uiso   1.00
C1454  C     0.59938   0.82786   0.84539   0.00000  Uiso   1.00
C1455  C     0.34703   0.81162   0.81681   0.00000  Uiso   1.00
C1456  C     0.65407   0.81543   0.85324   0.00000  Uiso   1.00
C1457  C     0.47444   0.68906   0.79570   0.00000  Uiso   1.00
C1458  C     0.52665   0.97748   0.87061   0.00000  Uiso   1.00
C1459  C     0.47180   0.97971   0.79490   0.00000  Uiso   1.00
C1460  C     0.52854   0.68686   0.87173   0.00000  Uiso   1.00
C1461  C     0.49853   0.95742   0.83260   0.00000  Uiso   1.00
C1462  C     0.50195   0.70918   0.83397   0.00000  Uiso   1.00
C1463  C     0.51559   0.86783   0.69247   0.00000  Uiso   1.00
C1464  C     0.48498   0.79868   0.97428   0.00000  Uiso   1.00
C1465  C     0.51563   0.86781   0.97786   0.00000  Uiso   1.00
C1466  C     0.48505   0.79868   0.68889   0.00000  Uiso   1.00
H1467  H     0.45408   0.70665   0.76683   0.00000  Uiso   1.00
H1468  H     0.54775   0.95976   0.89914   0.00000  Uiso   1.00
H1469  H     0.52816   0.89542   0.71203   0.00000  Uiso   1.00
H1470  H     0.47267   0.77102   0.95478   0.00000  Uiso   1.00
H1471  H     0.52828   0.89537   0.96128   0.00000  Uiso   1.00
H1472  H     0.47280   0.77099   0.70548   0.00000  Uiso   1.00
N1473  N     0.49999   0.83332   0.95240   0.00000  Uiso   1.00
N1474  N     0.50001   0.83334   0.71427   0.00000  Uiso   1.00
O1475  O     0.50000   0.77225   0.87154   0.00000  Uiso   1.00
O1476  O     0.50000   0.89442   0.79513   0.00000  Uiso   1.00
O1477  O     0.50000   0.77226   0.79510   0.00000  Uiso   1.00
O1478  O     0.50000   0.89441   0.87157   0.00000  Uiso   1.00
O1479  O     0.42392   0.83333   0.86261   0.00000  Uiso   1.00
O1480  O     0.57608   0.83334   0.80405   0.00000  Uiso   1.00
O1481  O     0.42392   0.83334   0.78617   0.00000  Uiso   1.00
O1482  O     0.57608   0.83333   0.88050   0.00000  Uiso   1.00
Zn1483 Zn    0.50000   0.83333   0.88437   0.00000  Uiso   1.00
Zn1484 Zn    0.50000   0.83334   0.78229   0.00000  Uiso   1.00
C1485  C     0.65601   0.79149   0.77153   0.00000  Uiso   1.00
C1486  C     0.35631   0.75484   0.75911   0.00000  Uiso   1.00
C1487  C     0.66055   0.72984   0.71909   0.00000  Uiso   1.00
H1488  H     0.62392   0.71568   0.72857   0.00000  Uiso   1.00
H1489  H     0.64985   0.75022   0.68861   0.00000  Uiso   1.00
H1490  H     0.35331   0.70451   0.71014   0.00000  Uiso   1.00
H1491  H     0.39393   0.76644   0.74915   0.00000  Uiso   1.00
H1492  H     0.36586   0.73376   0.78927   0.00000  Uiso   1.00
H1493  H     0.61635   0.77817   0.77395   0.00000  Uiso   1.00
H1494  H     0.65179   0.81522   0.74366   0.00000  Uiso   1.00
C1495  C     0.34419   0.80468   0.90296   0.00000  Uiso   1.00
C1496  C     0.35326   0.84349   0.93400   0.00000  Uiso   1.00
C1497  C     0.34794   0.83307   0.98365   0.00000  Uiso   1.00
H1498  H     0.63965   0.82427   0.98615   0.00000  Uiso   1.00
H1499  H     0.37455   0.80693   0.99649   0.00000  Uiso   1.00
H1500  H     0.35880   0.86066   0.67230   0.00000  Uiso   1.00
H1501  H     0.39343   0.85646   0.93328   0.00000  Uiso   1.00
H1502  H     0.65785   0.86857   0.92196   0.00000  Uiso   1.00
H1503  H     0.64916   0.78323   0.91636   0.00000  Uiso   1.00
H1504  H     0.38104   0.78595   0.90530   0.00000  Uiso   1.00
C1505  C     0.43996   0.96000   0.75606   0.00000  Uiso   1.00
N1506  N     0.41448   0.94426   0.72499   0.00000  Uiso   1.00
C1507  C     0.55908   0.70655   0.91120   0.00000  Uiso   1.00
N1508  N     0.58340   0.72221   0.94288   0.00000  Uiso   1.00
C1509  C     0.83458   0.75335   0.83364   0.00000  Uiso   1.00
C1510  C     0.83218   0.91329   0.83302   0.00000  Uiso   1.00
C1511  C     0.73425   0.82675   0.82176   0.00000  Uiso   1.00
C1512  C     0.93271   0.82786   0.84539   0.00000  Uiso   1.00
C1513  C     0.68037   0.81162   0.81681   0.00000  Uiso   1.00
C1514  C     0.98741   0.81543   0.85324   0.00000  Uiso   1.00
C1515  C     0.80777   0.68906   0.79570   0.00000  Uiso   1.00
C1516  C     0.85998   0.97748   0.87061   0.00000  Uiso   1.00
C1517  C     0.80513   0.97971   0.79490   0.00000  Uiso   1.00
C1518  C     0.86188   0.68686   0.87173   0.00000  Uiso   1.00
C1519  C     0.83187   0.95742   0.83260   0.00000  Uiso   1.00
C1520  C     0.83529   0.70918   0.83397   0.00000  Uiso   1.00
C1521  C     0.84892   0.86783   0.69247   0.00000  Uiso   1.00
C1522  C     0.81832   0.79868   0.97428   0.00000  Uiso   1.00
C1523  C     0.84896   0.86781   0.97786   0.00000  Uiso   1.00
C1524  C     0.81839   0.79868   0.68889   0.00000  Uiso   1.00
H1525  H     0.78741   0.70665   0.76683   0.00000  Uiso   1.00
H1526  H     0.88108   0.95976   0.89914   0.00000  Uiso   1.00
H1527  H     0.86149   0.89542   0.71203   0.00000  Uiso   1.00
H1528  H     0.80601   0.77102   0.95478   0.00000  Uiso   1.00
H1529  H     0.86161   0.89537   0.96128   0.00000  Uiso   1.00
H1530  H     0.80614   0.77099   0.70548   0.00000  Uiso   1.00
N1531  N     0.83332   0.83332   0.95240   0.00000  Uiso   1.00
N1532  N     0.83335   0.83334   0.71427   0.00000  Uiso   1.00
O1533  O     0.83333   0.77225   0.87154   0.00000  Uiso   1.00
O1534  O     0.83334   0.89442   0.79513   0.00000  Uiso   1.00
O1535  O     0.83333   0.77226   0.79510   0.00000  Uiso   1.00
O1536  O     0.83334   0.89441   0.87157   0.00000  Uiso   1.00
O1537  O     0.75725   0.83333   0.86261   0.00000  Uiso   1.00
O1538  O     0.90942   0.83334   0.80405   0.00000  Uiso   1.00
O1539  O     0.75725   0.83334   0.78617   0.00000  Uiso   1.00
O1540  O     0.90942   0.83333   0.88050   0.00000  Uiso   1.00
Zn1541 Zn    0.83333   0.83333   0.88437   0.00000  Uiso   1.00
Zn1542 Zn    0.83333   0.83334   0.78229   0.00000  Uiso   1.00
C1543  C     0.98934   0.79149   0.77153   0.00000  Uiso   1.00
C1544  C     0.68964   0.75484   0.75911   0.00000  Uiso   1.00
C1545  C     0.99389   0.72984   0.71909   0.00000  Uiso   1.00
H1546  H     0.95725   0.71568   0.72857   0.00000  Uiso   1.00
H1547  H     0.98319   0.75022   0.68861   0.00000  Uiso   1.00
H1548  H     0.68664   0.70451   0.71014   0.00000  Uiso   1.00
H1549  H     0.72726   0.76644   0.74915   0.00000  Uiso   1.00
H1550  H     0.69919   0.73376   0.78927   0.00000  Uiso   1.00
H1551  H     0.94968   0.77817   0.77395   0.00000  Uiso   1.00
H1552  H     0.98512   0.81522   0.74366   0.00000  Uiso   1.00
C1553  C     0.67753   0.80468   0.90296   0.00000  Uiso   1.00
C1554  C     0.68659   0.84349   0.93400   0.00000  Uiso   1.00
C1555  C     0.68127   0.83307   0.98365   0.00000  Uiso   1.00
H1556  H     0.97298   0.82427   0.98615   0.00000  Uiso   1.00
H1557  H     0.70788   0.80693   0.99649   0.00000  Uiso   1.00
H1558  H     0.69213   0.86066   0.67230   0.00000  Uiso   1.00
H1559  H     0.72676   0.85646   0.93328   0.00000  Uiso   1.00
H1560  H     0.99118   0.86857   0.92196   0.00000  Uiso   1.00
H1561  H     0.98249   0.78323   0.91636   0.00000  Uiso   1.00
H1562  H     0.71438   0.78595   0.90530   0.00000  Uiso   1.00
C1563  C     0.77330   0.96000   0.75606   0.00000  Uiso   1.00
N1564  N     0.74781   0.94426   0.72499   0.00000  Uiso   1.00
C1565  C     0.89241   0.70655   0.91120   0.00000  Uiso   1.00
N1566  N     0.91674   0.72221   0.94288   0.00000  Uiso   1.00
loop_
_geom_bond_atom_site_label_1
_geom_bond_atom_site_label_2
_geom_bond_distance
_geom_bond_site_symmetry_2
_ccdc_geom_bond_type
C1     O25     1.280   .     A
C1     C12     1.419   .     S
C1     O27     1.282   .     A
C2     O26     1.279   .     A
C2     C11     1.418   .     S
C2     O28     1.282   .     A
C3     O31     1.294   .     A
C3     O29     1.276   .     A
C3     C5      1.443   .     S
C4     O32     1.283   .     A
C4     C6      1.436   .     S
C4     O30     1.284   .     A
C5     C122    1.357   1_455 S
C5     C151    1.531   1_455 S
C6     C63     1.357   .     S
C6     C103    1.535   .     S
C7     H17     1.084   .     S
C7     C12     1.396   .     A
C7     C357    1.372   1_545 S
C8     C11     1.396   .     A
C8     H18     1.086   .     S
C8     C184    1.373   .     S
C9     C55     1.448   .     S
C9     C11     1.406   .     A
C9     C181    1.372   .     S
C10    C12     1.406   .     A
C10    C57     1.446   .     S
C10    C356    1.373   1_545 S
C13    H19     1.081   .     S
C13    N24     1.366   .     A
C13    C1059   1.414   1_554 S
C14    N23     1.366   .     A
C14    H20     1.081   .     S
C14    C538    1.414   .     S
C15    N23     1.366   .     A
C15    H21     1.081   .     S
C15    C535    1.414   .     S
C16    N24     1.366   .     A
C16    H22     1.081   .     S
C16    C1058   1.414   1_554 S
N23    Zn33    2.006   .     S
N24    Zn34    2.006   .     S
O25    Zn33    2.000   .     S
O26    Zn34    2.000   .     S
O27    Zn34    1.996   .     S
O28    Zn33    1.996   .     S
O29    Zn33    1.949   .     S
O30    Zn34    1.949   .     S
O31    Zn34    1.961   .     S
O32    Zn33    1.961   .     S
C35    H43     1.110   .     S
C35    H44     1.111   .     S
C35    C63     1.531   .     S
C35    C94     1.537   .     S
C36    H42     1.112   .     S
C36    H41     1.108   .     S
C36    C151    1.537   1_455 S
C36    C153    1.526   1_455 S
C37    H38     1.111   .     S
C37    H39     1.109   .     S
C37    C94     1.526   .     S
C37    H98     1.111   .     S
H40    C153    1.111   1_455 S
C45    C46     1.547   .     S
C45    H54     1.110   .     S
C45    C122    1.535   1_455 S
C45    H169    1.112   1_455 S
C46    C47     1.526   .     S
C46    H51     1.108   .     S
C46    H168    1.110   1_455 S
C47    H49     1.109   .     S
C47    H164    1.111   1_455 S
C47    H572    1.110   .     S
H48    C105    1.111   .     S
H50    C1091   1.110   1_554 S
H52    C104    1.110   .     S
H53    C103    1.112   .     S
C55    N56     1.157   .     T
C57    N58     1.157   .     T
C59    O83     1.280   .     A
C59    C70     1.419   .     S
C59    O85     1.282   .     A
C60    O84     1.279   .     A
C60    C69     1.418   .     S
C60    O86     1.282   .     A
C61    O89     1.294   .     A
C61    O87     1.276   .     A
C61    C63     1.443   .     S
C62    O90     1.283   .     A
C62    C64     1.436   .     S
C62    O88     1.284   .     A
C64    C121    1.357   .     S
C64    C161    1.535   .     S
C65    H75     1.084   .     S
C65    C70     1.396   .     A
C65    C415    1.372   1_545 S
C66    C69     1.396   .     A
C66    H76     1.086   .     S
C66    C242    1.373   .     S
C67    C113    1.448   .     S
C67    C69     1.406   .     A
C67    C239    1.372   .     S
C68    C70     1.406   .     A
C68    C115    1.446   .     S
C68    C414    1.373   1_545 S
C71    H77     1.081   .     S
C71    N82     1.366   .     A
C71    C1117   1.414   1_554 S
C72    N81     1.366   .     A
C72    H78     1.081   .     S
C72    C596    1.414   .     S
C73    N81     1.366   .     A
C73    H79     1.081   .     S
C73    C593    1.414   .     S
C74    N82     1.366   .     A
C74    H80     1.081   .     S
C74    C1116   1.414   1_554 S
N81    Zn91    2.006   .     S
N82    Zn92    2.006   .     S
O83    Zn91    2.000   .     S
O84    Zn92    2.000   .     S
O85    Zn92    1.996   .     S
O86    Zn91    1.996   .     S
O87    Zn91    1.949   .     S
O88    Zn92    1.949   .     S
O89    Zn92    1.961   .     S
O90    Zn91    1.961   .     S
C93    H101    1.110   .     S
C93    H102    1.111   .     S
C93    C121    1.531   .     S
C93    C152    1.537   .     S
C94    H100    1.112   .     S
C94    H99     1.108   .     S
C95    H96     1.111   .     S
C95    H97     1.109   .     S
C95    C152    1.526   .     S
C95    H156    1.111   .     S
C103   C104    1.547   .     S
C103   H112    1.110   .     S
C104   C105    1.526   .     S
C104   H109    1.108   .     S
C105   H107    1.109   .     S
C105   H630    1.110   .     S
H106   C163    1.111   .     S
H108   C1149   1.110   1_554 S
H110   C162    1.110   .     S
H111   C161    1.112   .     S
C113   N114    1.157   .     T
C115   N116    1.157   .     T
C117   O141    1.280   .     A
C117   C128    1.419   .     S
C117   O143    1.282   .     A
C118   O142    1.279   .     A
C118   C127    1.418   .     S
C118   O144    1.282   .     A
C119   O147    1.294   .     A
C119   O145    1.276   .     A
C119   C121    1.443   .     S
C120   O148    1.283   .     A
C120   C122    1.436   .     S
C120   O146    1.284   .     A
C122   C5      1.357   1_655 S
C122   C45     1.535   1_655 S
C123   H133    1.084   .     S
C123   C128    1.396   .     A
C123   C473    1.372   1_545 S
C124   C127    1.396   .     A
C124   H134    1.086   .     S
C124   C300    1.373   .     S
C125   C171    1.448   .     S
C125   C127    1.406   .     A
C125   C297    1.372   .     S
C126   C128    1.406   .     A
C126   C173    1.446   .     S
C126   C472    1.373   1_545 S
C129   H135    1.081   .     S
C129   N140    1.366   .     A
C129   C1175   1.414   1_554 S
C130   N139    1.366   .     A
C130   H136    1.081   .     S
C130   C654    1.414   .     S
C131   N139    1.366   .     A
C131   H137    1.081   .     S
C131   C651    1.414   .     S
C132   N140    1.366   .     A
C132   H138    1.081   .     S
C132   C1174   1.414   1_554 S
N139   Zn149   2.006   .     S
N140   Zn150   2.006   .     S
O141   Zn149   2.000   .     S
O142   Zn150   2.000   .     S
O143   Zn150   1.996   .     S
O144   Zn149   1.996   .     S
O145   Zn149   1.949   .     S
O146   Zn150   1.949   .     S
O147   Zn150   1.961   .     S
O148   Zn149   1.961   .     S
C151   H159    1.110   .     S
C151   H160    1.111   .     S
C151   C5      1.531   1_655 S
C151   C36     1.537   1_655 S
C152   H158    1.112   .     S
C152   H157    1.108   .     S
C153   H154    1.111   .     S
C153   H155    1.109   .     S
C153   C36     1.526   1_655 S
C153   H40     1.111   1_655 S
C161   C162    1.547   .     S
C161   H170    1.110   .     S
C162   C163    1.526   .     S
C162   H167    1.108   .     S
C163   H165    1.109   .     S
C163   H688    1.110   .     S
H164   C47     1.111   1_655 S
H166   C1207   1.110   1_554 S
H168   C46     1.110   1_655 S
H169   C45     1.112   1_655 S
C171   N172    1.157   .     T
C173   N174    1.157   .     T
C175   O199    1.280   .     A
C175   C186    1.419   .     S
C175   O201    1.282   .     A
C176   O200    1.279   .     A
C176   C185    1.418   .     S
C176   O202    1.282   .     A
C177   O205    1.294   .     A
C177   O203    1.276   .     A
C177   C179    1.443   .     S
C178   O206    1.283   .     A
C178   C180    1.436   .     S
C178   O204    1.284   .     A
C179   C296    1.357   1_455 S
C179   C325    1.531   1_455 S
C180   C237    1.357   .     S
C180   C277    1.535   .     S
C181   H191    1.084   .     S
C181   C186    1.396   .     A
C182   C185    1.396   .     A
C182   H192    1.086   .     S
C182   C358    1.373   .     S
C183   C229    1.448   .     S
C183   C185    1.406   .     A
C183   C355    1.372   .     S
C184   C186    1.406   .     A
C184   C231    1.446   .     S
C187   H193    1.081   .     S
C187   N198    1.366   .     A
C187   C1233   1.414   1_554 S
C188   N197    1.366   .     A
C188   H194    1.081   .     S
C188   C712    1.414   .     S
C189   N197    1.366   .     A
C189   H195    1.081   .     S
C189   C709    1.414   .     S
C190   N198    1.366   .     A
C190   H196    1.081   .     S
C190   C1232   1.414   1_554 S
N197   Zn207   2.006   .     S
N198   Zn208   2.006   .     S
O199   Zn207   2.000   .     S
O200   Zn208   2.000   .     S
O201   Zn208   1.996   .     S
O202   Zn207   1.996   .     S
O203   Zn207   1.949   .     S
O204   Zn208   1.949   .     S
O205   Zn208   1.961   .     S
O206   Zn207   1.961   .     S
C209   H217    1.110   .     S
C209   H218    1.111   .     S
C209   C237    1.531   .     S
C209   C268    1.537   .     S
C210   H216    1.112   .     S
C210   H215    1.108   .     S
C210   C325    1.537   1_455 S
C210   C327    1.526   1_455 S
C211   H212    1.111   .     S
C211   H213    1.109   .     S
C211   C268    1.526   .     S
C211   H272    1.111   .     S
H214   C327    1.111   1_455 S
C219   C220    1.547   .     S
C219   H228    1.110   .     S
C219   C296    1.535   1_455 S
C219   H343    1.112   1_455 S
C220   C221    1.526   .     S
C220   H225    1.108   .     S
C220   H342    1.110   1_455 S
C221   H223    1.109   .     S
C221   H338    1.111   1_455 S
C221   H746    1.110   .     S
H222   C279    1.111   .     S
H224   C1265   1.110   1_554 S
H226   C278    1.110   .     S
H227   C277    1.112   .     S
C229   N230    1.157   .     T
C231   N232    1.157   .     T
C233   O257    1.280   .     A
C233   C244    1.419   .     S
C233   O259    1.282   .     A
C234   O258    1.279   .     A
C234   C243    1.418   .     S
C234   O260    1.282   .     A
C235   O263    1.294   .     A
C235   O261    1.276   .     A
C235   C237    1.443   .     S
C236   O264    1.283   .     A
C236   C238    1.436   .     S
C236   O262    1.284   .     A
C238   C295    1.357   .     S
C238   C335    1.535   .     S
C239   H249    1.084   .     S
C239   C244    1.396   .     A
C240   C243    1.396   .     A
C240   H250    1.086   .     S
C240   C416    1.373   .     S
C241   C287    1.448   .     S
C241   C243    1.406   .     A
C241   C413    1.372   .     S
C242   C244    1.406   .     A
C242   C289    1.446   .     S
C245   H251    1.081   .     S
C245   N256    1.366   .     A
C245   C1291   1.414   1_554 S
C246   N255    1.366   .     A
C246   H252    1.081   .     S
C246   C770    1.414   .     S
C247   N255    1.366   .     A
C247   H253    1.081   .     S
C247   C767    1.414   .     S
C248   N256    1.366   .     A
C248   H254    1.081   .     S
C248   C1290   1.414   1_554 S
N255   Zn265   2.006   .     S
N256   Zn266   2.006   .     S
O257   Zn265   2.000   .     S
O258   Zn266   2.000   .     S
O259   Zn266   1.996   .     S
O260   Zn265   1.996   .     S
O261   Zn265   1.949   .     S
O262   Zn266   1.949   .     S
O263   Zn266   1.961   .     S
O264   Zn265   1.961   .     S
C267   H275    1.110   .     S
C267   H276    1.111   .     S
C267   C295    1.531   .     S
C267   C326    1.537   .     S
C268   H274    1.112   .     S
C268   H273    1.108   .     S
C269   H270    1.111   .     S
C269   H271    1.109   .     S
C269   C326    1.526   .     S
C269   H330    1.111   .     S
C277   C278    1.547   .     S
C277   H286    1.110   .     S
C278   C279    1.526   .     S
C278   H283    1.108   .     S
C279   H281    1.109   .     S
C279   H804    1.110   .     S
H280   C337    1.111   .     S
H282   C1323   1.110   1_554 S
H284   C336    1.110   .     S
H285   C335    1.112   .     S
C287   N288    1.157   .     T
C289   N290    1.157   .     T
C291   O315    1.280   .     A
C291   C302    1.419   .     S
C291   O317    1.282   .     A
C292   O316    1.279   .     A
C292   C301    1.418   .     S
C292   O318    1.282   .     A
C293   O321    1.294   .     A
C293   O319    1.276   .     A
C293   C295    1.443   .     S
C294   O322    1.283   .     A
C294   C296    1.436   .     S
C294   O320    1.284   .     A
C296   C179    1.357   1_655 S
C296   C219    1.535   1_655 S
C297   H307    1.084   .     S
C297   C302    1.396   .     A
C298   C301    1.396   .     A
C298   H308    1.086   .     S
C298   C474    1.373   .     S
C299   C345    1.448   .     S
C299   C301    1.406   .     A
C299   C471    1.372   .     S
C300   C302    1.406   .     A
C300   C347    1.446   .     S
C303   H309    1.081   .     S
C303   N314    1.366   .     A
C303   C1349   1.414   1_554 S
C304   N313    1.366   .     A
C304   H310    1.081   .     S
C304   C828    1.414   .     S
C305   N313    1.366   .     A
C305   H311    1.081   .     S
C305   C825    1.414   .     S
C306   N314    1.366   .     A
C306   H312    1.081   .     S
C306   C1348   1.414   1_554 S
N313   Zn323   2.006   .     S
N314   Zn324   2.006   .     S
O315   Zn323   2.000   .     S
O316   Zn324   2.000   .     S
O317   Zn324   1.996   .     S
O318   Zn323   1.996   .     S
O319   Zn323   1.949   .     S
O320   Zn324   1.949   .     S
O321   Zn324   1.961   .     S
O322   Zn323   1.961   .     S
C325   H333    1.110   .     S
C325   H334    1.111   .     S
C325   C179    1.531   1_655 S
C325   C210    1.537   1_655 S
C326   H332    1.112   .     S
C326   H331    1.108   .     S
C327   H328    1.111   .     S
C327   H329    1.109   .     S
C327   C210    1.526   1_655 S
C327   H214    1.111   1_655 S
C335   C336    1.547   .     S
C335   H344    1.110   .     S
C336   C337    1.526   .     S
C336   H341    1.108   .     S
C337   H339    1.109   .     S
C337   H862    1.110   .     S
H338   C221    1.111   1_655 S
H340   C1381   1.110   1_554 S
H342   C220    1.110   1_655 S
H343   C219    1.112   1_655 S
C345   N346    1.157   .     T
C347   N348    1.157   .     T
C349   O373    1.280   .     A
C349   C360    1.419   .     S
C349   O375    1.282   .     A
C350   O374    1.279   .     A
C350   C359    1.418   .     S
C350   O376    1.282   .     A
C351   O379    1.294   .     A
C351   O377    1.276   .     A
C351   C353    1.443   .     S
C352   O380    1.283   .     A
C352   C354    1.436   .     S
C352   O378    1.284   .     A
C353   C470    1.357   1_455 S
C353   C499    1.531   1_455 S
C354   C411    1.357   .     S
C354   C451    1.535   .     S
C355   H365    1.084   .     S
C355   C360    1.396   .     A
C356   C359    1.396   .     A
C356   H366    1.086   .     S
C356   C10     1.373   1_565 S
C357   C403    1.448   .     S
C357   C359    1.406   .     A
C357   C7      1.372   1_565 S
C358   C360    1.406   .     A
C358   C405    1.446   .     S
C361   H367    1.081   .     S
C361   N372    1.366   .     A
C361   C1407   1.414   1_554 S
C362   N371    1.366   .     A
C362   H368    1.081   .     S
C362   C886    1.414   .     S
C363   N371    1.366   .     A
C363   H369    1.081   .     S
C363   C883    1.414   .     S
C364   N372    1.366   .     A
C364   H370    1.081   .     S
C364   C1406   1.414   1_554 S
N371   Zn381   2.006   .     S
N372   Zn382   2.006   .     S
O373   Zn381   2.000   .     S
O374   Zn382   2.000   .     S
O375   Zn382   1.996   .     S
O376   Zn381   1.996   .     S
O377   Zn381   1.949   .     S
O378   Zn382   1.949   .     S
O379   Zn382   1.961   .     S
O380   Zn381   1.961   .     S
C383   H391    1.110   .     S
C383   H392    1.111   .     S
C383   C411    1.531   .     S
C383   C442    1.537   .     S
C384   H390    1.112   .     S
C384   H389    1.108   .     S
C384   C499    1.537   1_455 S
C384   C501    1.526   1_455 S
C385   H386    1.111   .     S
C385   H387    1.109   .     S
C385   C442    1.526   .     S
C385   H446    1.111   .     S
H388   C501    1.111   1_455 S
C393   C394    1.547   .     S
C393   H402    1.110   .     S
C393   C470    1.535   1_455 S
C393   H517    1.112   1_455 S
C394   C395    1.526   .     S
C394   H399    1.108   .     S
C394   H516    1.110   1_455 S
C395   H397    1.109   .     S
C395   H512    1.111   1_455 S
C395   H920    1.110   .     S
H396   C453    1.111   .     S
H398   C1439   1.110   1_554 S
H400   C452    1.110   .     S
H401   C451    1.112   .     S
C403   N404    1.157   .     T
C405   N406    1.157   .     T
C407   O431    1.280   .     A
C407   C418    1.419   .     S
C407   O433    1.282   .     A
C408   O432    1.279   .     A
C408   C417    1.418   .     S
C408   O434    1.282   .     A
C409   O437    1.294   .     A
C409   O435    1.276   .     A
C409   C411    1.443   .     S
C410   O438    1.283   .     A
C410   C412    1.436   .     S
C410   O436    1.284   .     A
C412   C469    1.357   .     S
C412   C509    1.535   .     S
C413   H423    1.084   .     S
C413   C418    1.396   .     A
C414   C417    1.396   .     A
C414   H424    1.086   .     S
C414   C68     1.373   1_565 S
C415   C461    1.448   .     S
C415   C417    1.406   .     A
C415   C65     1.372   1_565 S
C416   C418    1.406   .     A
C416   C463    1.446   .     S
C419   H425    1.081   .     S
C419   N430    1.366   .     A
C419   C1465   1.414   1_554 S
C420   N429    1.366   .     A
C420   H426    1.081   .     S
C420   C944    1.414   .     S
C421   N429    1.366   .     A
C421   H427    1.081   .     S
C421   C941    1.414   .     S
C422   N430    1.366   .     A
C422   H428    1.081   .     S
C422   C1464   1.414   1_554 S
N429   Zn439   2.006   .     S
N430   Zn440   2.006   .     S
O431   Zn439   2.000   .     S
O432   Zn440   2.000   .     S
O433   Zn440   1.996   .     S
O434   Zn439   1.996   .     S
O435   Zn439   1.949   .     S
O436   Zn440   1.949   .     S
O437   Zn440   1.961   .     S
O438   Zn439   1.961   .     S
C441   H449    1.110   .     S
C441   H450    1.111   .     S
C441   C469    1.531   .     S
C441   C500    1.537   .     S
C442   H448    1.112   .     S
C442   H447    1.108   .     S
C443   H444    1.111   .     S
C443   H445    1.109   .     S
C443   C500    1.526   .     S
C443   H504    1.111   .     S
C451   C452    1.547   .     S
C451   H460    1.110   .     S
C452   C453    1.526   .     S
C452   H457    1.108   .     S
C453   H455    1.109   .     S
C453   H978    1.110   .     S
H454   C511    1.111   .     S
H456   C1497   1.110   1_554 S
H458   C510    1.110   .     S
H459   C509    1.112   .     S
C461   N462    1.157   .     T
C463   N464    1.157   .     T
C465   O489    1.280   .     A
C465   C476    1.419   .     S
C465   O491    1.282   .     A
C466   O490    1.279   .     A
C466   C475    1.418   .     S
C466   O492    1.282   .     A
C467   O495    1.294   .     A
C467   O493    1.276   .     A
C467   C469    1.443   .     S
C468   O496    1.283   .     A
C468   C470    1.436   .     S
C468   O494    1.284   .     A
C470   C353    1.357   1_655 S
C470   C393    1.535   1_655 S
C471   H481    1.084   .     S
C471   C476    1.396   .     A
C472   C475    1.396   .     A
C472   H482    1.086   .     S
C472   C126    1.373   1_565 S
C473   C519    1.448   .     S
C473   C475    1.406   .     A
C473   C123    1.372   1_565 S
C474   C476    1.406   .     A
C474   C521    1.446   .     S
C477   H483    1.081   .     S
C477   N488    1.366   .     A
C477   C1523   1.414   1_554 S
C478   N487    1.366   .     A
C478   H484    1.081   .     S
C478   C1002   1.414   .     S
C479   N487    1.366   .     A
C479   H485    1.081   .     S
C479   C999    1.414   .     S
C480   N488    1.366   .     A
C480   H486    1.081   .     S
C480   C1522   1.414   1_554 S
N487   Zn497   2.006   .     S
N488   Zn498   2.006   .     S
O489   Zn497   2.000   .     S
O490   Zn498   2.000   .     S
O491   Zn498   1.996   .     S
O492   Zn497   1.996   .     S
O493   Zn497   1.949   .     S
O494   Zn498   1.949   .     S
O495   Zn498   1.961   .     S
O496   Zn497   1.961   .     S
C499   H507    1.110   .     S
C499   H508    1.111   .     S
C499   C353    1.531   1_655 S
C499   C384    1.537   1_655 S
C500   H506    1.112   .     S
C500   H505    1.108   .     S
C501   H502    1.111   .     S
C501   H503    1.109   .     S
C501   C384    1.526   1_655 S
C501   H388    1.111   1_655 S
C509   C510    1.547   .     S
C509   H518    1.110   .     S
C510   C511    1.526   .     S
C510   H515    1.108   .     S
C511   H513    1.109   .     S
C511   H1036   1.110   .     S
H512   C395    1.111   1_655 S
H514   C1555   1.110   1_554 S
H516   C394    1.110   1_655 S
H517   C393    1.112   1_655 S
C519   N520    1.157   .     T
C521   N522    1.157   .     T
C523   O547    1.280   .     A
C523   C534    1.419   .     S
C523   O549    1.282   .     A
C524   O548    1.279   .     A
C524   C533    1.418   .     S
C524   O550    1.282   .     A
C525   O553    1.294   .     A
C525   O551    1.276   .     A
C525   C527    1.443   .     S
C526   O554    1.283   .     A
C526   C528    1.436   .     S
C526   O552    1.284   .     A
C527   C644    1.357   1_455 S
C527   C673    1.531   1_455 S
C528   C585    1.357   .     S
C528   C625    1.535   .     S
C529   H539    1.084   .     S
C529   C534    1.396   .     A
C529   C879    1.372   1_545 S
C530   C533    1.396   .     A
C530   H540    1.086   .     S
C530   C706    1.373   .     S
C531   C577    1.448   .     S
C531   C533    1.406   .     A
C531   C703    1.372   .     S
C532   C534    1.406   .     A
C532   C579    1.446   .     S
C532   C878    1.373   1_545 S
C535   H541    1.081   .     S
C535   N546    1.366   .     A
C536   N545    1.366   .     A
C536   H542    1.081   .     S
C536   C1060   1.414   .     S
C537   N545    1.366   .     A
C537   H543    1.081   .     S
C537   C1057   1.414   .     S
C538   N546    1.366   .     A
C538   H544    1.081   .     S
N545   Zn555   2.006   .     S
N546   Zn556   2.006   .     S
O547   Zn555   2.000   .     S
O548   Zn556   2.000   .     S
O549   Zn556   1.996   .     S
O550   Zn555   1.996   .     S
O551   Zn555   1.949   .     S
O552   Zn556   1.949   .     S
O553   Zn556   1.961   .     S
O554   Zn555   1.961   .     S
C557   H565    1.110   .     S
C557   H566    1.111   .     S
C557   C585    1.531   .     S
C557   C616    1.537   .     S
C558   H564    1.112   .     S
C558   H563    1.108   .     S
C558   C673    1.537   1_455 S
C558   C675    1.526   1_455 S
C559   H560    1.111   .     S
C559   H561    1.109   .     S
C559   C616    1.526   .     S
C559   H620    1.111   .     S
H562   C675    1.111   1_455 S
C567   C568    1.547   .     S
C567   H576    1.110   .     S
C567   C644    1.535   1_455 S
C567   H691    1.112   1_455 S
C568   C569    1.526   .     S
C568   H573    1.108   .     S
C568   H690    1.110   1_455 S
C569   H571    1.109   .     S
C569   H686    1.111   1_455 S
C569   H1094   1.110   .     S
H570   C627    1.111   .     S
H574   C626    1.110   .     S
H575   C625    1.112   .     S
C577   N578    1.157   .     T
C579   N580    1.157   .     T
C581   O605    1.280   .     A
C581   C592    1.419   .     S
C581   O607    1.282   .     A
C582   O606    1.279   .     A
C582   C591    1.418   .     S
C582   O608    1.282   .     A
C583   O611    1.294   .     A
C583   O609    1.276   .     A
C583   C585    1.443   .     S
C584   O612    1.283   .     A
C584   C586    1.436   .     S
C584   O610    1.284   .     A
C586   C643    1.357   .     S
C586   C683    1.535   .     S
C587   H597    1.084   .     S
C587   C592    1.396   .     A
C587   C937    1.372   1_545 S
C588   C591    1.396   .     A
C588   H598    1.086   .     S
C588   C764    1.373   .     S
C589   C635    1.448   .     S
C589   C591    1.406   .     A
C589   C761    1.372   .     S
C590   C592    1.406   .     A
C590   C637    1.446   .     S
C590   C936    1.373   1_545 S
C593   H599    1.081   .     S
C593   N604    1.366   .     A
C594   N603    1.366   .     A
C594   H600    1.081   .     S
C594   C1118   1.414   .     S
C595   N603    1.366   .     A
C595   H601    1.081   .     S
C595   C1115   1.414   .     S
C596   N604    1.366   .     A
C596   H602    1.081   .     S
N603   Zn613   2.006   .     S
N604   Zn614   2.006   .     S
O605   Zn613   2.000   .     S
O606   Zn614   2.000   .     S
O607   Zn614   1.996   .     S
O608   Zn613   1.996   .     S
O609   Zn613   1.949   .     S
O610   Zn614   1.949   .     S
O611   Zn614   1.961   .     S
O612   Zn613   1.961   .     S
C615   H623    1.110   .     S
C615   H624    1.111   .     S
C615   C643    1.531   .     S
C615   C674    1.537   .     S
C616   H622    1.112   .     S
C616   H621    1.108   .     S
C617   H618    1.111   .     S
C617   H619    1.109   .     S
C617   C674    1.526   .     S
C617   H678    1.111   .     S
C625   C626    1.547   .     S
C625   H634    1.110   .     S
C626   C627    1.526   .     S
C626   H631    1.108   .     S
C627   H629    1.109   .     S
C627   H1152   1.110   .     S
H628   C685    1.111   .     S
H632   C684    1.110   .     S
H633   C683    1.112   .     S
C635   N636    1.157   .     T
C637   N638    1.157   .     T
C639   O663    1.280   .     A
C639   C650    1.419   .     S
C639   O665    1.282   .     A
C640   O664    1.279   .     A
C640   C649    1.418   .     S
C640   O666    1.282   .     A
C641   O669    1.294   .     A
C641   O667    1.276   .     A
C641   C643    1.443   .     S
C642   O670    1.283   .     A
C642   C644    1.436   .     S
C642   O668    1.284   .     A
C644   C527    1.357   1_655 S
C644   C567    1.535   1_655 S
C645   H655    1.084   .     S
C645   C650    1.396   .     A
C645   C995    1.372   1_545 S
C646   C649    1.396   .     A
C646   H656    1.086   .     S
C646   C822    1.373   .     S
C647   C693    1.448   .     S
C647   C649    1.406   .     A
C647   C819    1.372   .     S
C648   C650    1.406   .     A
C648   C695    1.446   .     S
C648   C994    1.373   1_545 S
C651   H657    1.081   .     S
C651   N662    1.366   .     A
C652   N661    1.366   .     A
C652   H658    1.081   .     S
C652   C1176   1.414   .     S
C653   N661    1.366   .     A
C653   H659    1.081   .     S
C653   C1173   1.414   .     S
C654   N662    1.366   .     A
C654   H660    1.081   .     S
N661   Zn671   2.006   .     S
N662   Zn672   2.006   .     S
O663   Zn671   2.000   .     S
O664   Zn672   2.000   .     S
O665   Zn672   1.996   .     S
O666   Zn671   1.996   .     S
O667   Zn671   1.949   .     S
O668   Zn672   1.949   .     S
O669   Zn672   1.961   .     S
O670   Zn671   1.961   .     S
C673   H681    1.110   .     S
C673   H682    1.111   .     S
C673   C527    1.531   1_655 S
C673   C558    1.537   1_655 S
C674   H680    1.112   .     S
C674   H679    1.108   .     S
C675   H676    1.111   .     S
C675   H677    1.109   .     S
C675   C558    1.526   1_655 S
C675   H562    1.111   1_655 S
C683   C684    1.547   .     S
C683   H692    1.110   .     S
C684   C685    1.526   .     S
C684   H689    1.108   .     S
C685   H687    1.109   .     S
C685   H1210   1.110   .     S
H686   C569    1.111   1_655 S
H690   C568    1.110   1_655 S
H691   C567    1.112   1_655 S
C693   N694    1.157   .     T
C695   N696    1.157   .     T
C697   O721    1.280   .     A
C697   C708    1.419   .     S
C697   O723    1.282   .     A
C698   O722    1.279   .     A
C698   C707    1.418   .     S
C698   O724    1.282   .     A
C699   O727    1.294   .     A
C699   O725    1.276   .     A
C699   C701    1.443   .     S
C700   O728    1.283   .     A
C700   C702    1.436   .     S
C700   O726    1.284   .     A
C701   C818    1.357   1_455 S
C701   C847    1.531   1_455 S
C702   C759    1.357   .     S
C702   C799    1.535   .     S
C703   H713    1.084   .     S
C703   C708    1.396   .     A
C704   C707    1.396   .     A
C704   H714    1.086   .     S
C704   C880    1.373   .     S
C705   C751    1.448   .     S
C705   C707    1.406   .     A
C705   C877    1.372   .     S
C706   C708    1.406   .     A
C706   C753    1.446   .     S
C709   H715    1.081   .     S
C709   N720    1.366   .     A
C710   N719    1.366   .     A
C710   H716    1.081   .     S
C710   C1234   1.414   .     S
C711   N719    1.366   .     A
C711   H717    1.081   .     S
C711   C1231   1.414   .     S
C712   N720    1.366   .     A
C712   H718    1.081   .     S
N719   Zn729   2.006   .     S
N720   Zn730   2.006   .     S
O721   Zn729   2.000   .     S
O722   Zn730   2.000   .     S
O723   Zn730   1.996   .     S
O724   Zn729   1.996   .     S
O725   Zn729   1.949   .     S
O726   Zn730   1.949   .     S
O727   Zn730   1.961   .     S
O728   Zn729   1.961   .     S
C731   H739    1.110   .     S
C731   H740    1.111   .     S
C731   C759    1.531   .     S
C731   C790    1.537   .     S
C732   H738    1.112   .     S
C732   H737    1.108   .     S
C732   C847    1.537   1_455 S
C732   C849    1.526   1_455 S
C733   H734    1.111   .     S
C733   H735    1.109   .     S
C733   C790    1.526   .     S
C733   H794    1.111   .     S
H736   C849    1.111   1_455 S
C741   C742    1.547   .     S
C741   H750    1.110   .     S
C741   C818    1.535   1_455 S
C741   H865    1.112   1_455 S
C742   C743    1.526   .     S
C742   H747    1.108   .     S
C742   H864    1.110   1_455 S
C743   H745    1.109   .     S
C743   H860    1.111   1_455 S
C743   H1268   1.110   .     S
H744   C801    1.111   .     S
H748   C800    1.110   .     S
H749   C799    1.112   .     S
C751   N752    1.157   .     T
C753   N754    1.157   .     T
C755   O779    1.280   .     A
C755   C766    1.419   .     S
C755   O781    1.282   .     A
C756   O780    1.279   .     A
C756   C765    1.418   .     S
C756   O782    1.282   .     A
C757   O785    1.294   .     A
C757   O783    1.276   .     A
C757   C759    1.443   .     S
C758   O786    1.283   .     A
C758   C760    1.436   .     S
C758   O784    1.284   .     A
C760   C817    1.357   .     S
C760   C857    1.535   .     S
C761   H771    1.084   .     S
C761   C766    1.396   .     A
C762   C765    1.396   .     A
C762   H772    1.086   .     S
C762   C938    1.373   .     S
C763   C809    1.448   .     S
C763   C765    1.406   .     A
C763   C935    1.372   .     S
C764   C766    1.406   .     A
C764   C811    1.446   .     S
C767   H773    1.081   .     S
C767   N778    1.366   .     A
C768   N777    1.366   .     A
C768   H774    1.081   .     S
C768   C1292   1.414   .     S
C769   N777    1.366   .     A
C769   H775    1.081   .     S
C769   C1289   1.414   .     S
C770   N778    1.366   .     A
C770   H776    1.081   .     S
N777   Zn787   2.006   .     S
N778   Zn788   2.006   .     S
O779   Zn787   2.000   .     S
O780   Zn788   2.000   .     S
O781   Zn788   1.996   .     S
O782   Zn787   1.996   .     S
O783   Zn787   1.949   .     S
O784   Zn788   1.949   .     S
O785   Zn788   1.961   .     S
O786   Zn787   1.961   .     S
C789   H797    1.110   .     S
C789   H798    1.111   .     S
C789   C817    1.531   .     S
C789   C848    1.537   .     S
C790   H796    1.112   .     S
C790   H795    1.108   .     S
C791   H792    1.111   .     S
C791   H793    1.109   .     S
C791   C848    1.526   .     S
C791   H852    1.111   .     S
C799   C800    1.547   .     S
C799   H808    1.110   .     S
C800   C801    1.526   .     S
C800   H805    1.108   .     S
C801   H803    1.109   .     S
C801   H1326   1.110   .     S
H802   C859    1.111   .     S
H806   C858    1.110   .     S
H807   C857    1.112   .     S
C809   N810    1.157   .     T
C811   N812    1.157   .     T
C813   O837    1.280   .     A
C813   C824    1.419   .     S
C813   O839    1.282   .     A
C814   O838    1.279   .     A
C814   C823    1.418   .     S
C814   O840    1.282   .     A
C815   O843    1.294   .     A
C815   O841    1.276   .     A
C815   C817    1.443   .     S
C816   O844    1.283   .     A
C816   C818    1.436   .     S
C816   O842    1.284   .     A
C818   C701    1.357   1_655 S
C818   C741    1.535   1_655 S
C819   H829    1.084   .     S
C819   C824    1.396   .     A
C820   C823    1.396   .     A
C820   H830    1.086   .     S
C820   C996    1.373   .     S
C821   C867    1.448   .     S
C821   C823    1.406   .     A
C821   C993    1.372   .     S
C822   C824    1.406   .     A
C822   C869    1.446   .     S
C825   H831    1.081   .     S
C825   N836    1.366   .     A
C826   N835    1.366   .     A
C826   H832    1.081   .     S
C826   C1350   1.414   .     S
C827   N835    1.366   .     A
C827   H833    1.081   .     S
C827   C1347   1.414   .     S
C828   N836    1.366   .     A
C828   H834    1.081   .     S
N835   Zn845   2.006   .     S
N836   Zn846   2.006   .     S
O837   Zn845   2.000   .     S
O838   Zn846   2.000   .     S
O839   Zn846   1.996   .     S
O840   Zn845   1.996   .     S
O841   Zn845   1.949   .     S
O842   Zn846   1.949   .     S
O843   Zn846   1.961   .     S
O844   Zn845   1.961   .     S
C847   H855    1.110   .     S
C847   H856    1.111   .     S
C847   C701    1.531   1_655 S
C847   C732    1.537   1_655 S
C848   H854    1.112   .     S
C848   H853    1.108   .     S
C849   H850    1.111   .     S
C849   H851    1.109   .     S
C849   C732    1.526   1_655 S
C849   H736    1.111   1_655 S
C857   C858    1.547   .     S
C857   H866    1.110   .     S
C858   C859    1.526   .     S
C858   H863    1.108   .     S
C859   H861    1.109   .     S
C859   H1384   1.110   .     S
H860   C743    1.111   1_655 S
H864   C742    1.110   1_655 S
H865   C741    1.112   1_655 S
C867   N868    1.157   .     T
C869   N870    1.157   .     T
C871   O895    1.280   .     A
C871   C882    1.419   .     S
C871   O897    1.282   .     A
C872   O896    1.279   .     A
C872   C881    1.418   .     S
C872   O898    1.282   .     A
C873   O901    1.294   .     A
C873   O899    1.276   .     A
C873   C875    1.443   .     S
C874   O902    1.283   .     A
C874   C876    1.436   .     S
C874   O900    1.284   .     A
C875   C992    1.357   1_455 S
C875   C1021   1.531   1_455 S
C876   C933    1.357   .     S
C876   C973    1.535   .     S
C877   H887    1.084   .     S
C877   C882    1.396   .     A
C878   C881    1.396   .     A
C878   H888    1.086   .     S
C878   C532    1.373   1_565 S
C879   C925    1.448   .     S
C879   C881    1.406   .     A
C879   C529    1.372   1_565 S
C880   C882    1.406   .     A
C880   C927    1.446   .     S
C883   H889    1.081   .     S
C883   N894    1.366   .     A
C884   N893    1.366   .     A
C884   H890    1.081   .     S
C884   C1408   1.414   .     S
C885   N893    1.366   .     A
C885   H891    1.081   .     S
C885   C1405   1.414   .     S
C886   N894    1.366   .     A
C886   H892    1.081   .     S
N893   Zn903   2.006   .     S
N894   Zn904   2.006   .     S
O895   Zn903   2.000   .     S
O896   Zn904   2.000   .     S
O897   Zn904   1.996   .     S
O898   Zn903   1.996   .     S
O899   Zn903   1.949   .     S
O900   Zn904   1.949   .     S
O901   Zn904   1.961   .     S
O902   Zn903   1.961   .     S
C905   H913    1.110   .     S
C905   H914    1.111   .     S
C905   C933    1.531   .     S
C905   C964    1.537   .     S
C906   H912    1.112   .     S
C906   H911    1.108   .     S
C906   C1021   1.537   1_455 S
C906   C1023   1.526   1_455 S
C907   H908    1.111   .     S
C907   H909    1.109   .     S
C907   C964    1.526   .     S
C907   H968    1.111   .     S
H910   C1023   1.111   1_455 S
C915   C916    1.547   .     S
C915   H924    1.110   .     S
C915   C992    1.535   1_455 S
C915   H1039   1.112   1_455 S
C916   C917    1.526   .     S
C916   H921    1.108   .     S
C916   H1038   1.110   1_455 S
C917   H919    1.109   .     S
C917   H1034   1.111   1_455 S
C917   H1442   1.110   .     S
H918   C975    1.111   .     S
H922   C974    1.110   .     S
H923   C973    1.112   .     S
C925   N926    1.157   .     T
C927   N928    1.157   .     T
C929   O953    1.280   .     A
C929   C940    1.419   .     S
C929   O955    1.282   .     A
C930   O954    1.279   .     A
C930   C939    1.418   .     S
C930   O956    1.282   .     A
C931   O959    1.294   .     A
C931   O957    1.276   .     A
C931   C933    1.443   .     S
C932   O960    1.283   .     A
C932   C934    1.436   .     S
C932   O958    1.284   .     A
C934   C991    1.357   .     S
C934   C1031   1.535   .     S
C935   H945    1.084   .     S
C935   C940    1.396   .     A
C936   C939    1.396   .     A
C936   H946    1.086   .     S
C936   C590    1.373   1_565 S
C937   C983    1.448   .     S
C937   C939    1.406   .     A
C937   C587    1.372   1_565 S
C938   C940    1.406   .     A
C938   C985    1.446   .     S
C941   H947    1.081   .     S
C941   N952    1.366   .     A
C942   N951    1.366   .     A
C942   H948    1.081   .     S
C942   C1466   1.414   .     S
C943   N951    1.366   .     A
C943   H949    1.081   .     S
C943   C1463   1.414   .     S
C944   N952    1.366   .     A
C944   H950    1.081   .     S
N951   Zn961   2.006   .     S
N952   Zn962   2.006   .     S
O953   Zn961   2.000   .     S
O954   Zn962   2.000   .     S
O955   Zn962   1.996   .     S
O956   Zn961   1.996   .     S
O957   Zn961   1.949   .     S
O958   Zn962   1.949   .     S
O959   Zn962   1.961   .     S
O960   Zn961   1.961   .     S
C963   H971    1.110   .     S
C963   H972    1.111   .     S
C963   C991    1.531   .     S
C963   C1022   1.537   .     S
C964   H970    1.112   .     S
C964   H969    1.108   .     S
C965   H966    1.111   .     S
C965   H967    1.109   .     S
C965   C1022   1.526   .     S
C965   H1026   1.111   .     S
C973   C974    1.547   .     S
C973   H982    1.110   .     S
C974   C975    1.526   .     S
C974   H979    1.108   .     S
C975   H977    1.109   .     S
C975   H1500   1.110   .     S
H976   C1033   1.111   .     S
H980   C1032   1.110   .     S
H981   C1031   1.112   .     S
C983   N984    1.157   .     T
C985   N986    1.157   .     T
C987   O1011   1.280   .     A
C987   C998    1.419   .     S
C987   O1013   1.282   .     A
C988   O1012   1.279   .     A
C988   C997    1.418   .     S
C988   O1014   1.282   .     A
C989   O1017   1.294   .     A
C989   O1015   1.276   .     A
C989   C991    1.443   .     S
C990   O1018   1.283   .     A
C990   C992    1.436   .     S
C990   O1016   1.284   .     A
C992   C875    1.357   1_655 S
C992   C915    1.535   1_655 S
C993   H1003   1.084   .     S
C993   C998    1.396   .     A
C994   C997    1.396   .     A
C994   H1004   1.086   .     S
C994   C648    1.373   1_565 S
C995   C1041   1.448   .     S
C995   C997    1.406   .     A
C995   C645    1.372   1_565 S
C996   C998    1.406   .     A
C996   C1043   1.446   .     S
C999   H1005   1.081   .     S
C999   N1010   1.366   .     A
C1000  N1009   1.366   .     A
C1000  H1006   1.081   .     S
C1000  C1524   1.414   .     S
C1001  N1009   1.366   .     A
C1001  H1007   1.081   .     S
C1001  C1521   1.414   .     S
C1002  N1010   1.366   .     A
C1002  H1008   1.081   .     S
N1009  Zn1019  2.006   .     S
N1010  Zn1020  2.006   .     S
O1011  Zn1019  2.000   .     S
O1012  Zn1020  2.000   .     S
O1013  Zn1020  1.996   .     S
O1014  Zn1019  1.996   .     S
O1015  Zn1019  1.949   .     S
O1016  Zn1020  1.949   .     S
O1017  Zn1020  1.961   .     S
O1018  Zn1019  1.961   .     S
C1021  H1029   1.110   .     S
C1021  H1030   1.111   .     S
C1021  C875    1.531   1_655 S
C1021  C906    1.537   1_655 S
C1022  H1028   1.112   .     S
C1022  H1027   1.108   .     S
C1023  H1024   1.111   .     S
C1023  H1025   1.109   .     S
C1023  C906    1.526   1_655 S
C1023  H910    1.111   1_655 S
C1031  C1032   1.547   .     S
C1031  H1040   1.110   .     S
C1032  C1033   1.526   .     S
C1032  H1037   1.108   .     S
C1033  H1035   1.109   .     S
C1033  H1558   1.110   .     S
H1034  C917    1.111   1_655 S
H1038  C916    1.110   1_655 S
H1039  C915    1.112   1_655 S
C1041  N1042   1.157   .     T
C1043  N1044   1.157   .     T
C1045  O1069   1.280   .     A
C1045  C1056   1.419   .     S
C1045  O1071   1.282   .     A
C1046  O1070   1.279   .     A
C1046  C1055   1.418   .     S
C1046  O1072   1.282   .     A
C1047  O1075   1.294   .     A
C1047  O1073   1.276   .     A
C1047  C1049   1.443   .     S
C1048  O1076   1.283   .     A
C1048  C1050   1.436   .     S
C1048  O1074   1.284   .     A
C1049  C1166   1.357   1_455 S
C1049  C1195   1.531   1_455 S
C1050  C1107   1.357   .     S
C1050  C1147   1.535   .     S
C1051  H1061   1.084   .     S
C1051  C1056   1.396   .     A
C1051  C1401   1.372   1_545 S
C1052  C1055   1.396   .     A
C1052  H1062   1.086   .     S
C1052  C1228   1.373   .     S
C1053  C1099   1.448   .     S
C1053  C1055   1.406   .     A
C1053  C1225   1.372   .     S
C1054  C1056   1.406   .     A
C1054  C1101   1.446   .     S
C1054  C1400   1.373   1_545 S
C1057  H1063   1.081   .     S
C1057  N1068   1.366   .     A
C1058  N1067   1.366   .     A
C1058  H1064   1.081   .     S
C1058  C16     1.414   1_556 S
C1059  N1067   1.366   .     A
C1059  H1065   1.081   .     S
C1059  C13     1.414   1_556 S
C1060  N1068   1.366   .     A
C1060  H1066   1.081   .     S
N1067  Zn1077  2.006   .     S
N1068  Zn1078  2.006   .     S
O1069  Zn1077  2.000   .     S
O1070  Zn1078  2.000   .     S
O1071  Zn1078  1.996   .     S
O1072  Zn1077  1.996   .     S
O1073  Zn1077  1.949   .     S
O1074  Zn1078  1.949   .     S
O1075  Zn1078  1.961   .     S
O1076  Zn1077  1.961   .     S
C1079  H1087   1.110   .     S
C1079  H1088   1.111   .     S
C1079  C1107   1.531   .     S
C1079  C1138   1.537   .     S
C1080  H1086   1.112   .     S
C1080  H1085   1.108   .     S
C1080  C1195   1.537   1_455 S
C1080  C1197   1.526   1_455 S
C1081  H1082   1.111   .     S
C1081  H1083   1.109   .     S
C1081  C1138   1.526   .     S
C1081  H1142   1.111   .     S
H1084  C1197   1.111   1_455 S
C1089  C1090   1.547   .     S
C1089  H1098   1.110   .     S
C1089  C1166   1.535   1_455 S
C1089  H1213   1.112   1_455 S
C1090  C1091   1.526   .     S
C1090  H1095   1.108   .     S
C1090  H1212   1.110   1_455 S
C1091  H1093   1.109   .     S
C1091  H1208   1.111   1_455 S
C1091  H50     1.110   1_556 S
H1092  C1149   1.111   .     S
H1096  C1148   1.110   .     S
H1097  C1147   1.112   .     S
C1099  N1100   1.157   .     T
C1101  N1102   1.157   .     T
C1103  O1127   1.280   .     A
C1103  C1114   1.419   .     S
C1103  O1129   1.282   .     A
C1104  O1128   1.279   .     A
C1104  C1113   1.418   .     S
C1104  O1130   1.282   .     A
C1105  O1133   1.294   .     A
C1105  O1131   1.276   .     A
C1105  C1107   1.443   .     S
C1106  O1134   1.283   .     A
C1106  C1108   1.436   .     S
C1106  O1132   1.284   .     A
C1108  C1165   1.357   .     S
C1108  C1205   1.535   .     S
C1109  H1119   1.084   .     S
C1109  C1114   1.396   .     A
C1109  C1459   1.372   1_545 S
C1110  C1113   1.396   .     A
C1110  H1120   1.086   .     S
C1110  C1286   1.373   .     S
C1111  C1157   1.448   .     S
C1111  C1113   1.406   .     A
C1111  C1283   1.372   .     S
C1112  C1114   1.406   .     A
C1112  C1159   1.446   .     S
C1112  C1458   1.373   1_545 S
C1115  H1121   1.081   .     S
C1115  N1126   1.366   .     A
C1116  N1125   1.366   .     A
C1116  H1122   1.081   .     S
C1116  C74     1.414   1_556 S
C1117  N1125   1.366   .     A
C1117  H1123   1.081   .     S
C1117  C71     1.414   1_556 S
C1118  N1126   1.366   .     A
C1118  H1124   1.081   .     S
N1125  Zn1135  2.006   .     S
N1126  Zn1136  2.006   .     S
O1127  Zn1135  2.000   .     S
O1128  Zn1136  2.000   .     S
O1129  Zn1136  1.996   .     S
O1130  Zn1135  1.996   .     S
O1131  Zn1135  1.949   .     S
O1132  Zn1136  1.949   .     S
O1133  Zn1136  1.961   .     S
O1134  Zn1135  1.961   .     S
C1137  H1145   1.110   .     S
C1137  H1146   1.111   .     S
C1137  C1165   1.531   .     S
C1137  C1196   1.537   .     S
C1138  H1144   1.112   .     S
C1138  H1143   1.108   .     S
C1139  H1140   1.111   .     S
C1139  H1141   1.109   .     S
C1139  C1196   1.526   .     S
C1139  H1200   1.111   .     S
C1147  C1148   1.547   .     S
C1147  H1156   1.110   .     S
C1148  C1149   1.526   .     S
C1148  H1153   1.108   .     S
C1149  H1151   1.109   .     S
C1149  H108    1.110   1_556 S
H1150  C1207   1.111   .     S
H1154  C1206   1.110   .     S
H1155  C1205   1.112   .     S
C1157  N1158   1.157   .     T
C1159  N1160   1.157   .     T
C1161  O1185   1.280   .     A
C1161  C1172   1.419   .     S
C1161  O1187   1.282   .     A
C1162  O1186   1.279   .     A
C1162  C1171   1.418   .     S
C1162  O1188   1.282   .     A
C1163  O1191   1.294   .     A
C1163  O1189   1.276   .     A
C1163  C1165   1.443   .     S
C1164  O1192   1.283   .     A
C1164  C1166   1.436   .     S
C1164  O1190   1.284   .     A
C1166  C1049   1.357   1_655 S
C1166  C1089   1.535   1_655 S
C1167  H1177   1.084   .     S
C1167  C1172   1.396   .     A
C1167  C1517   1.372   1_545 S
C1168  C1171   1.396   .     A
C1168  H1178   1.086   .     S
C1168  C1344   1.373   .     S
C1169  C1215   1.448   .     S
C1169  C1171   1.406   .     A
C1169  C1341   1.372   .     S
C1170  C1172   1.406   .     A
C1170  C1217   1.446   .     S
C1170  C1516   1.373   1_545 S
C1173  H1179   1.081   .     S
C1173  N1184   1.366   .     A
C1174  N1183   1.366   .     A
C1174  H1180   1.081   .     S
C1174  C132    1.414   1_556 S
C1175  N1183   1.366   .     A
C1175  H1181   1.081   .     S
C1175  C129    1.414   1_556 S
C1176  N1184   1.366   .     A
C1176  H1182   1.081   .     S
N1183  Zn1193  2.006   .     S
N1184  Zn1194  2.006   .     S
O1185  Zn1193  2.000   .     S
O1186  Zn1194  2.000   .     S
O1187  Zn1194  1.996   .     S
O1188  Zn1193  1.996   .     S
O1189  Zn1193  1.949   .     S
O1190  Zn1194  1.949   .     S
O1191  Zn1194  1.961   .     S
O1192  Zn1193  1.961   .     S
C1195  H1203   1.110   .     S
C1195  H1204   1.111   .     S
C1195  C1049   1.531   1_655 S
C1195  C1080   1.537   1_655 S
C1196  H1202   1.112   .     S
C1196  H1201   1.108   .     S
C1197  H1198   1.111   .     S
C1197  H1199   1.109   .     S
C1197  C1080   1.526   1_655 S
C1197  H1084   1.111   1_655 S
C1205  C1206   1.547   .     S
C1205  H1214   1.110   .     S
C1206  C1207   1.526   .     S
C1206  H1211   1.108   .     S
C1207  H1209   1.109   .     S
C1207  H166    1.110   1_556 S
H1208  C1091   1.111   1_655 S
H1212  C1090   1.110   1_655 S
H1213  C1089   1.112   1_655 S
C1215  N1216   1.157   .     T
C1217  N1218   1.157   .     T
C1219  O1243   1.280   .     A
C1219  C1230   1.419   .     S
C1219  O1245   1.282   .     A
C1220  O1244   1.279   .     A
C1220  C1229   1.418   .     S
C1220  O1246   1.282   .     A
C1221  O1249   1.294   .     A
C1221  O1247   1.276   .     A
C1221  C1223   1.443   .     S
C1222  O1250   1.283   .     A
C1222  C1224   1.436   .     S
C1222  O1248   1.284   .     A
C1223  C1340   1.357   1_455 S
C1223  C1369   1.531   1_455 S
C1224  C1281   1.357   .     S
C1224  C1321   1.535   .     S
C1225  H1235   1.084   .     S
C1225  C1230   1.396   .     A
C1226  C1229   1.396   .     A
C1226  H1236   1.086   .     S
C1226  C1402   1.373   .     S
C1227  C1273   1.448   .     S
C1227  C1229   1.406   .     A
C1227  C1399   1.372   .     S
C1228  C1230   1.406   .     A
C1228  C1275   1.446   .     S
C1231  H1237   1.081   .     S
C1231  N1242   1.366   .     A
C1232  N1241   1.366   .     A
C1232  H1238   1.081   .     S
C1232  C190    1.414   1_556 S
C1233  N1241   1.366   .     A
C1233  H1239   1.081   .     S
C1233  C187    1.414   1_556 S
C1234  N1242   1.366   .     A
C1234  H1240   1.081   .     S
N1241  Zn1251  2.006   .     S
N1242  Zn1252  2.006   .     S
O1243  Zn1251  2.000   .     S
O1244  Zn1252  2.000   .     S
O1245  Zn1252  1.996   .     S
O1246  Zn1251  1.996   .     S
O1247  Zn1251  1.949   .     S
O1248  Zn1252  1.949   .     S
O1249  Zn1252  1.961   .     S
O1250  Zn1251  1.961   .     S
C1253  H1261   1.110   .     S
C1253  H1262   1.111   .     S
C1253  C1281   1.531   .     S
C1253  C1312   1.537   .     S
C1254  H1260   1.112   .     S
C1254  H1259   1.108   .     S
C1254  C1369   1.537   1_455 S
C1254  C1371   1.526   1_455 S
C1255  H1256   1.111   .     S
C1255  H1257   1.109   .     S
C1255  C1312   1.526   .     S
C1255  H1316   1.111   .     S
H1258  C1371   1.111   1_455 S
C1263  C1264   1.547   .     S
C1263  H1272   1.110   .     S
C1263  C1340   1.535   1_455 S
C1263  H1387   1.112   1_455 S
C1264  C1265   1.526   .     S
C1264  H1269   1.108   .     S
C1264  H1386   1.110   1_455 S
C1265  H1267   1.109   .     S
C1265  H1382   1.111   1_455 S
C1265  H224    1.110   1_556 S
H1266  C1323   1.111   .     S
H1270  C1322   1.110   .     S
H1271  C1321   1.112   .     S
C1273  N1274   1.157   .     T
C1275  N1276   1.157   .     T
C1277  O1301   1.280   .     A
C1277  C1288   1.419   .     S
C1277  O1303   1.282   .     A
C1278  O1302   1.279   .     A
C1278  C1287   1.418   .     S
C1278  O1304   1.282   .     A
C1279  O1307   1.294   .     A
C1279  O1305   1.276   .     A
C1279  C1281   1.443   .     S
C1280  O1308   1.283   .     A
C1280  C1282   1.436   .     S
C1280  O1306   1.284   .     A
C1282  C1339   1.357   .     S
C1282  C1379   1.535   .     S
C1283  H1293   1.084   .     S
C1283  C1288   1.396   .     A
C1284  C1287   1.396   .     A
C1284  H1294   1.086   .     S
C1284  C1460   1.373   .     S
C1285  C1331   1.448   .     S
C1285  C1287   1.406   .     A
C1285  C1457   1.372   .     S
C1286  C1288   1.406   .     A
C1286  C1333   1.446   .     S
C1289  H1295   1.081   .     S
C1289  N1300   1.366   .     A
C1290  N1299   1.366   .     A
C1290  H1296   1.081   .     S
C1290  C248    1.414   1_556 S
C1291  N1299   1.366   .     A
C1291  H1297   1.081   .     S
C1291  C245    1.414   1_556 S
C1292  N1300   1.366   .     A
C1292  H1298   1.081   .     S
N1299  Zn1309  2.006   .     S
N1300  Zn1310  2.006   .     S
O1301  Zn1309  2.000   .     S
O1302  Zn1310  2.000   .     S
O1303  Zn1310  1.996   .     S
O1304  Zn1309  1.996   .     S
O1305  Zn1309  1.949   .     S
O1306  Zn1310  1.949   .     S
O1307  Zn1310  1.961   .     S
O1308  Zn1309  1.961   .     S
C1311  H1319   1.110   .     S
C1311  H1320   1.111   .     S
C1311  C1339   1.531   .     S
C1311  C1370   1.537   .     S
C1312  H1318   1.112   .     S
C1312  H1317   1.108   .     S
C1313  H1314   1.111   .     S
C1313  H1315   1.109   .     S
C1313  C1370   1.526   .     S
C1313  H1374   1.111   .     S
C1321  C1322   1.547   .     S
C1321  H1330   1.110   .     S
C1322  C1323   1.526   .     S
C1322  H1327   1.108   .     S
C1323  H1325   1.109   .     S
C1323  H282    1.110   1_556 S
H1324  C1381   1.111   .     S
H1328  C1380   1.110   .     S
H1329  C1379   1.112   .     S
C1331  N1332   1.157   .     T
C1333  N1334   1.157   .     T
C1335  O1359   1.280   .     A
C1335  C1346   1.419   .     S
C1335  O1361   1.282   .     A
C1336  O1360   1.279   .     A
C1336  C1345   1.418   .     S
C1336  O1362   1.282   .     A
C1337  O1365   1.294   .     A
C1337  O1363   1.276   .     A
C1337  C1339   1.443   .     S
C1338  O1366   1.283   .     A
C1338  C1340   1.436   .     S
C1338  O1364   1.284   .     A
C1340  C1223   1.357   1_655 S
C1340  C1263   1.535   1_655 S
C1341  H1351   1.084   .     S
C1341  C1346   1.396   .     A
C1342  C1345   1.396   .     A
C1342  H1352   1.086   .     S
C1342  C1518   1.373   .     S
C1343  C1389   1.448   .     S
C1343  C1345   1.406   .     A
C1343  C1515   1.372   .     S
C1344  C1346   1.406   .     A
C1344  C1391   1.446   .     S
C1347  H1353   1.081   .     S
C1347  N1358   1.366   .     A
C1348  N1357   1.366   .     A
C1348  H1354   1.081   .     S
C1348  C306    1.414   1_556 S
C1349  N1357   1.366   .     A
C1349  H1355   1.081   .     S
C1349  C303    1.414   1_556 S
C1350  N1358   1.366   .     A
C1350  H1356   1.081   .     S
N1357  Zn1367  2.006   .     S
N1358  Zn1368  2.006   .     S
O1359  Zn1367  2.000   .     S
O1360  Zn1368  2.000   .     S
O1361  Zn1368  1.996   .     S
O1362  Zn1367  1.996   .     S
O1363  Zn1367  1.949   .     S
O1364  Zn1368  1.949   .     S
O1365  Zn1368  1.961   .     S
O1366  Zn1367  1.961   .     S
C1369  H1377   1.110   .     S
C1369  H1378   1.111   .     S
C1369  C1223   1.531   1_655 S
C1369  C1254   1.537   1_655 S
C1370  H1376   1.112   .     S
C1370  H1375   1.108   .     S
C1371  H1372   1.111   .     S
C1371  H1373   1.109   .     S
C1371  C1254   1.526   1_655 S
C1371  H1258   1.111   1_655 S
C1379  C1380   1.547   .     S
C1379  H1388   1.110   .     S
C1380  C1381   1.526   .     S
C1380  H1385   1.108   .     S
C1381  H1383   1.109   .     S
C1381  H340    1.110   1_556 S
H1382  C1265   1.111   1_655 S
H1386  C1264   1.110   1_655 S
H1387  C1263   1.112   1_655 S
C1389  N1390   1.157   .     T
C1391  N1392   1.157   .     T
C1393  O1417   1.280   .     A
C1393  C1404   1.419   .     S
C1393  O1419   1.282   .     A
C1394  O1418   1.279   .     A
C1394  C1403   1.418   .     S
C1394  O1420   1.282   .     A
C1395  O1423   1.294   .     A
C1395  O1421   1.276   .     A
C1395  C1397   1.443   .     S
C1396  O1424   1.283   .     A
C1396  C1398   1.436   .     S
C1396  O1422   1.284   .     A
C1397  C1514   1.357   1_455 S
C1397  C1543   1.531   1_455 S
C1398  C1455   1.357   .     S
C1398  C1495   1.535   .     S
C1399  H1409   1.084   .     S
C1399  C1404   1.396   .     A
C1400  C1403   1.396   .     A
C1400  H1410   1.086   .     S
C1400  C1054   1.373   1_565 S
C1401  C1447   1.448   .     S
C1401  C1403   1.406   .     A
C1401  C1051   1.372   1_565 S
C1402  C1404   1.406   .     A
C1402  C1449   1.446   .     S
C1405  H1411   1.081   .     S
C1405  N1416   1.366   .     A
C1406  N1415   1.366   .     A
C1406  H1412   1.081   .     S
C1406  C364    1.414   1_556 S
C1407  N1415   1.366   .     A
C1407  H1413   1.081   .     S
C1407  C361    1.414   1_556 S
C1408  N1416   1.366   .     A
C1408  H1414   1.081   .     S
N1415  Zn1425  2.006   .     S
N1416  Zn1426  2.006   .     S
O1417  Zn1425  2.000   .     S
O1418  Zn1426  2.000   .     S
O1419  Zn1426  1.996   .     S
O1420  Zn1425  1.996   .     S
O1421  Zn1425  1.949   .     S
O1422  Zn1426  1.949   .     S
O1423  Zn1426  1.961   .     S
O1424  Zn1425  1.961   .     S
C1427  H1435   1.110   .     S
C1427  H1436   1.111   .     S
C1427  C1455   1.531   .     S
C1427  C1486   1.537   .     S
C1428  H1434   1.112   .     S
C1428  H1433   1.108   .     S
C1428  C1543   1.537   1_455 S
C1428  C1545   1.526   1_455 S
C1429  H1430   1.111   .     S
C1429  H1431   1.109   .     S
C1429  C1486   1.526   .     S
C1429  H1490   1.111   .     S
H1432  C1545   1.111   1_455 S
C1437  C1438   1.547   .     S
C1437  H1446   1.110   .     S
C1437  C1514   1.535   1_455 S
C1437  H1561   1.112   1_455 S
C1438  C1439   1.526   .     S
C1438  H1443   1.108   .     S
C1438  H1560   1.110   1_455 S
C1439  H1441   1.109   .     S
C1439  H1556   1.111   1_455 S
C1439  H398    1.110   1_556 S
H1440  C1497   1.111   .     S
H1444  C1496   1.110   .     S
H1445  C1495   1.112   .     S
C1447  N1448   1.157   .     T
C1449  N1450   1.157   .     T
C1451  O1475   1.280   .     A
C1451  C1462   1.419   .     S
C1451  O1477   1.282   .     A
C1452  O1476   1.279   .     A
C1452  C1461   1.418   .     S
C1452  O1478   1.282   .     A
C1453  O1481   1.294   .     A
C1453  O1479   1.276   .     A
C1453  C1455   1.443   .     S
C1454  O1482   1.283   .     A
C1454  C1456   1.436   .     S
C1454  O1480   1.284   .     A
C1456  C1513   1.357   .     S
C1456  C1553   1.535   .     S
C1457  H1467   1.084   .     S
C1457  C1462   1.396   .     A
C1458  C1461   1.396   .     A
C1458  H1468   1.086   .     S
C1458  C1112   1.373   1_565 S
C1459  C1505   1.448   .     S
C1459  C1461   1.406   .     A
C1459  C1109   1.372   1_565 S
C1460  C1462   1.406   .     A
C1460  C1507   1.446   .     S
C1463  H1469   1.081   .     S
C1463  N1474   1.366   .     A
C1464  N1473   1.366   .     A
C1464  H1470   1.081   .     S
C1464  C422    1.414   1_556 S
C1465  N1473   1.366   .     A
C1465  H1471   1.081   .     S
C1465  C419    1.414   1_556 S
C1466  N1474   1.366   .     A
C1466  H1472   1.081   .     S
N1473  Zn1483  2.006   .     S
N1474  Zn1484  2.006   .     S
O1475  Zn1483  2.000   .     S
O1476  Zn1484  2.000   .     S
O1477  Zn1484  1.996   .     S
O1478  Zn1483  1.996   .     S
O1479  Zn1483  1.949   .     S
O1480  Zn1484  1.949   .     S
O1481  Zn1484  1.961   .     S
O1482  Zn1483  1.961   .     S
C1485  H1493   1.110   .     S
C1485  H1494   1.111   .     S
C1485  C1513   1.531   .     S
C1485  C1544   1.537   .     S
C1486  H1492   1.112   .     S
C1486  H1491   1.108   .     S
C1487  H1488   1.111   .     S
C1487  H1489   1.109   .     S
C1487  C1544   1.526   .     S
C1487  H1548   1.111   .     S
C1495  C1496   1.547   .     S
C1495  H1504   1.110   .     S
C1496  C1497   1.526   .     S
C1496  H1501   1.108   .     S
C1497  H1499   1.109   .     S
C1497  H456    1.110   1_556 S
H1498  C1555   1.111   .     S
H1502  C1554   1.110   .     S
H1503  C1553   1.112   .     S
C1505  N1506   1.157   .     T
C1507  N1508   1.157   .     T
C1509  O1533   1.280   .     A
C1509  C1520   1.419   .     S
C1509  O1535   1.282   .     A
C1510  O1534   1.279   .     A
C1510  C1519   1.418   .     S
C1510  O1536   1.282   .     A
C1511  O1539   1.294   .     A
C1511  O1537   1.276   .     A
C1511  C1513   1.443   .     S
C1512  O1540   1.283   .     A
C1512  C1514   1.436   .     S
C1512  O1538   1.284   .     A
C1514  C1397   1.357   1_655 S
C1514  C1437   1.535   1_655 S
C1515  H1525   1.084   .     S
C1515  C1520   1.396   .     A
C1516  C1519   1.396   .     A
C1516  H1526   1.086   .     S
C1516  C1170   1.373   1_565 S
C1517  C1563   1.448   .     S
C1517  C1519   1.406   .     A
C1517  C1167   1.372   1_565 S
C1518  C1520   1.406   .     A
C1518  C1565   1.446   .     S
C1521  H1527   1.081   .     S
C1521  N1532   1.366   .     A
C1522  N1531   1.366   .     A
C1522  H1528   1.081   .     S
C1522  C480    1.414   1_556 S
C1523  N1531   1.366   .     A
C1523  H1529   1.081   .     S
C1523  C477    1.414   1_556 S
C1524  N1532   1.366   .     A
C1524  H1530   1.081   .     S
N1531  Zn1541  2.006   .     S
N1532  Zn1542  2.006   .     S
O1533  Zn1541  2.000   .     S
O1534  Zn1542  2.000   .     S
O1535  Zn1542  1.996   .     S
O1536  Zn1541  1.996   .     S
O1537  Zn1541  1.949   .     S
O1538  Zn1542  1.949   .     S
O1539  Zn1542  1.961   .     S
O1540  Zn1541  1.961   .     S
C1543  H1551   1.110   .     S
C1543  H1552   1.111   .     S
C1543  C1397   1.531   1_655 S
C1543  C1428   1.537   1_655 S
C1544  H1550   1.112   .     S
C1544  H1549   1.108   .     S
C1545  H1546   1.111   .     S
C1545  H1547   1.109   .     S
C1545  C1428   1.526   1_655 S
C1545  H1432   1.111   1_655 S
C1553  C1554   1.547   .     S
C1553  H1562   1.110   .     S
C1554  C1555   1.526   .     S
C1554  H1559   1.108   .     S
C1555  H1557   1.109   .     S
C1555  H514    1.110   1_556 S
H1556  C1439   1.111   1_655 S
H1560  C1438   1.110   1_655 S
H1561  C1437   1.112   1_655 S
C1563  N1564   1.157   .     T
C1565  N1566   1.157   .     T
