data_str_m3_o1_o10_pcu_sym.71
_audit_creation_date              2020-01-03
_audit_creation_method            'Materials Studio'
_symmetry_space_group_name_H-M    'P1'
_symmetry_Int_Tables_number       1
_symmetry_cell_setting            triclinic
loop_
_symmetry_equiv_pos_as_xyz
  x,y,z
_cell_length_a                    25.7838
_cell_length_b                    32.1201
_cell_length_c                    29.6198
_cell_angle_alpha                 90.7310
_cell_angle_beta                  98.4215
_cell_angle_gamma                 90.2242
loop_
_atom_site_label
_atom_site_type_symbol
_atom_site_fract_x
_atom_site_fract_y
_atom_site_fract_z
_atom_site_U_iso_or_equiv
_atom_site_adp_type
_atom_site_occupancy
C1     C     0.16598   0.08661   0.16609   0.00000  Uiso   1.00
C2     C     0.14144   0.02209   0.19870   0.00000  Uiso   1.00
C3     C     0.16363   0.29057   0.16658   0.00000  Uiso   1.00
C4     C     0.16320   0.04233   0.16438   0.00000  Uiso   1.00
C5     C     0.20508   0.18699   0.02911   0.00000  Uiso   1.00
C6     C     0.12811   0.14651   0.30421   0.00000  Uiso   1.00
C7     C     0.20503   0.18703   0.31455   0.00000  Uiso   1.00
C8     C     0.12795   0.14675   0.01873   0.00000  Uiso   1.00
C9     C     0.15582   0.04346   0.05654   0.00000  Uiso   1.00
C10    C     0.14193   0.00311   0.02904   0.00000  Uiso   1.00
C11    C     0.09535   0.00970   0.32531   0.00000  Uiso   1.00
C12    C     0.16614   0.24657   0.16688   0.00000  Uiso   1.00
C13    C     0.06530   0.27732   0.21244   0.00000  Uiso   1.00
C14    C     0.02360   0.31151   0.20918   0.00000  Uiso   1.00
C15    C     0.30186   0.29316   0.19838   0.00000  Uiso   1.00
C16    C     0.06709   0.16683   0.15476   0.00000  Uiso   1.00
C17    C     0.26625   0.16695   0.17859   0.00000  Uiso   1.00
C18    C     0.01209   0.16720   0.14835   0.00000  Uiso   1.00
C19    C     0.32127   0.16741   0.18503   0.00000  Uiso   1.00
C20    C     0.18141   0.01979   0.12878   0.00000  Uiso   1.00
C21    C     0.13884   0.31260   0.19857   0.00000  Uiso   1.00
C22    C     0.18502   0.31075   0.13230   0.00000  Uiso   1.00
H23    H     0.32493   0.16704   0.11351   0.00000  Uiso   1.00
H24    H     0.12033   0.05571   0.06963   0.00000  Uiso   1.00
H25    H     0.17625   0.32578   0.01334   0.00000  Uiso   1.00
H26    H     0.13061   0.31158   0.05134   0.00000  Uiso   1.00
H27    H     0.06112   0.02147   0.00703   0.00000  Uiso   1.00
H28    H     0.08425   0.31273   0.30824   0.00000  Uiso   1.00
H29    H     0.10555   0.03228   0.29995   0.00000  Uiso   1.00
H30    H     0.05465   0.25263   0.23543   0.00000  Uiso   1.00
H31    H     0.06516   0.26216   0.17836   0.00000  Uiso   1.00
H32    H     0.02667   0.32914   0.24189   0.00000  Uiso   1.00
H33    H     0.02987   0.00031   0.18193   0.00000  Uiso   1.00
H34    H     0.00842   0.16770   0.21986   0.00000  Uiso   1.00
H35    H     0.29658   0.27712   0.16455   0.00000  Uiso   1.00
H36    H     0.27299   0.31871   0.19786   0.00000  Uiso   1.00
H37    H     0.29449   0.27067   0.22495   0.00000  Uiso   1.00
H38    H     0.20379   0.29359   0.10743   0.00000  Uiso   1.00
H39    H     0.12496   0.03948   0.22469   0.00000  Uiso   1.00
H40    H     0.23583   0.20330   0.05129   0.00000  Uiso   1.00
H41    H     0.09734   0.13021   0.28204   0.00000  Uiso   1.00
H42    H     0.23572   0.20338   0.30062   0.00000  Uiso   1.00
H43    H     0.09703   0.13066   0.03261   0.00000  Uiso   1.00
H44    H     0.16746   0.06710   0.03288   0.00000  Uiso   1.00
N45    N     0.16665   0.16666   0.28573   0.00000  Uiso   1.00
N46    N     0.16668   0.16668   0.04760   0.00000  Uiso   1.00
O47    O     0.16666   0.10558   0.20487   0.00000  Uiso   1.00
O48    O     0.11524   0.29299   0.23167   0.00000  Uiso   1.00
O49    O     0.16667   0.22775   0.12846   0.00000  Uiso   1.00
O50    O     0.16666   0.10559   0.12843   0.00000  Uiso   1.00
O51    O     0.16667   0.22774   0.20490   0.00000  Uiso   1.00
O52    O     0.09058   0.16666   0.19595   0.00000  Uiso   1.00
O53    O     0.24275   0.16667   0.13739   0.00000  Uiso   1.00
O54    O     0.09058   0.16667   0.11950   0.00000  Uiso   1.00
O55    O     0.24275   0.16666   0.21383   0.00000  Uiso   1.00
O56    O     0.19881   0.03850   0.09186   0.00000  Uiso   1.00
Zn57   Zn    0.16667   0.16666   0.21771   0.00000  Uiso   1.00
Zn58   Zn    0.16667   0.16667   0.11563   0.00000  Uiso   1.00
C59    C     0.49931   0.08661   0.16609   0.00000  Uiso   1.00
C60    C     0.47477   0.02209   0.19870   0.00000  Uiso   1.00
C61    C     0.49696   0.29057   0.16658   0.00000  Uiso   1.00
C62    C     0.49653   0.04233   0.16438   0.00000  Uiso   1.00
C63    C     0.53842   0.18699   0.02911   0.00000  Uiso   1.00
C64    C     0.46144   0.14651   0.30421   0.00000  Uiso   1.00
C65    C     0.53836   0.18703   0.31455   0.00000  Uiso   1.00
C66    C     0.46129   0.14675   0.01873   0.00000  Uiso   1.00
C67    C     0.48915   0.04346   0.05654   0.00000  Uiso   1.00
C68    C     0.47527   0.00311   0.02904   0.00000  Uiso   1.00
C69    C     0.42868   0.00970   0.32531   0.00000  Uiso   1.00
C70    C     0.49947   0.24657   0.16688   0.00000  Uiso   1.00
C71    C     0.39863   0.27732   0.21244   0.00000  Uiso   1.00
C72    C     0.35693   0.31151   0.20918   0.00000  Uiso   1.00
C73    C     0.63519   0.29316   0.19838   0.00000  Uiso   1.00
C74    C     0.40042   0.16683   0.15476   0.00000  Uiso   1.00
C75    C     0.59958   0.16695   0.17859   0.00000  Uiso   1.00
C76    C     0.34542   0.16720   0.14835   0.00000  Uiso   1.00
C77    C     0.65460   0.16741   0.18503   0.00000  Uiso   1.00
C78    C     0.51474   0.01979   0.12878   0.00000  Uiso   1.00
C79    C     0.47217   0.31260   0.19857   0.00000  Uiso   1.00
C80    C     0.51835   0.31075   0.13230   0.00000  Uiso   1.00
H81    H     0.65827   0.16704   0.11351   0.00000  Uiso   1.00
H82    H     0.45366   0.05571   0.06963   0.00000  Uiso   1.00
H83    H     0.50959   0.32578   0.01334   0.00000  Uiso   1.00
H84    H     0.46395   0.31158   0.05134   0.00000  Uiso   1.00
H85    H     0.39445   0.02147   0.00703   0.00000  Uiso   1.00
H86    H     0.41758   0.31273   0.30824   0.00000  Uiso   1.00
H87    H     0.43889   0.03228   0.29995   0.00000  Uiso   1.00
H88    H     0.38798   0.25263   0.23543   0.00000  Uiso   1.00
H89    H     0.39849   0.26216   0.17836   0.00000  Uiso   1.00
H90    H     0.36000   0.32914   0.24189   0.00000  Uiso   1.00
H91    H     0.36320   0.00031   0.18193   0.00000  Uiso   1.00
H92    H     0.34175   0.16770   0.21986   0.00000  Uiso   1.00
H93    H     0.62991   0.27712   0.16455   0.00000  Uiso   1.00
H94    H     0.60632   0.31871   0.19786   0.00000  Uiso   1.00
H95    H     0.62783   0.27067   0.22495   0.00000  Uiso   1.00
H96    H     0.53712   0.29359   0.10743   0.00000  Uiso   1.00
H97    H     0.45830   0.03948   0.22469   0.00000  Uiso   1.00
H98    H     0.56917   0.20330   0.05129   0.00000  Uiso   1.00
H99    H     0.43068   0.13021   0.28204   0.00000  Uiso   1.00
H100   H     0.56905   0.20338   0.30062   0.00000  Uiso   1.00
H101   H     0.43036   0.13066   0.03261   0.00000  Uiso   1.00
H102   H     0.50079   0.06710   0.03288   0.00000  Uiso   1.00
N103   N     0.49999   0.16666   0.28573   0.00000  Uiso   1.00
N104   N     0.50001   0.16668   0.04760   0.00000  Uiso   1.00
O105   O     0.50000   0.10558   0.20487   0.00000  Uiso   1.00
O106   O     0.44858   0.29299   0.23167   0.00000  Uiso   1.00
O107   O     0.50000   0.22775   0.12846   0.00000  Uiso   1.00
O108   O     0.50000   0.10559   0.12843   0.00000  Uiso   1.00
O109   O     0.50000   0.22774   0.20490   0.00000  Uiso   1.00
O110   O     0.42392   0.16666   0.19595   0.00000  Uiso   1.00
O111   O     0.57608   0.16667   0.13739   0.00000  Uiso   1.00
O112   O     0.42392   0.16667   0.11950   0.00000  Uiso   1.00
O113   O     0.57608   0.16666   0.21383   0.00000  Uiso   1.00
O114   O     0.53215   0.03850   0.09186   0.00000  Uiso   1.00
Zn115  Zn    0.50000   0.16666   0.21771   0.00000  Uiso   1.00
Zn116  Zn    0.50000   0.16667   0.11563   0.00000  Uiso   1.00
C117   C     0.83264   0.08661   0.16609   0.00000  Uiso   1.00
C118   C     0.80810   0.02209   0.19870   0.00000  Uiso   1.00
C119   C     0.83029   0.29057   0.16658   0.00000  Uiso   1.00
C120   C     0.82986   0.04233   0.16438   0.00000  Uiso   1.00
C121   C     0.87175   0.18699   0.02911   0.00000  Uiso   1.00
C122   C     0.79478   0.14651   0.30421   0.00000  Uiso   1.00
C123   C     0.87169   0.18703   0.31455   0.00000  Uiso   1.00
C124   C     0.79462   0.14675   0.01873   0.00000  Uiso   1.00
C125   C     0.82249   0.04346   0.05654   0.00000  Uiso   1.00
C126   C     0.80860   0.00311   0.02904   0.00000  Uiso   1.00
C127   C     0.76202   0.00970   0.32531   0.00000  Uiso   1.00
C128   C     0.83281   0.24657   0.16688   0.00000  Uiso   1.00
C129   C     0.73196   0.27732   0.21244   0.00000  Uiso   1.00
C130   C     0.69026   0.31151   0.20918   0.00000  Uiso   1.00
C131   C     0.96853   0.29316   0.19838   0.00000  Uiso   1.00
C132   C     0.73376   0.16683   0.15476   0.00000  Uiso   1.00
C133   C     0.93292   0.16695   0.17859   0.00000  Uiso   1.00
C134   C     0.67875   0.16720   0.14835   0.00000  Uiso   1.00
C135   C     0.98793   0.16741   0.18503   0.00000  Uiso   1.00
C136   C     0.84807   0.01979   0.12878   0.00000  Uiso   1.00
C137   C     0.80551   0.31260   0.19857   0.00000  Uiso   1.00
C138   C     0.85169   0.31075   0.13230   0.00000  Uiso   1.00
H139   H     0.99160   0.16704   0.11351   0.00000  Uiso   1.00
H140   H     0.78699   0.05571   0.06963   0.00000  Uiso   1.00
H141   H     0.84292   0.32578   0.01334   0.00000  Uiso   1.00
H142   H     0.79728   0.31158   0.05134   0.00000  Uiso   1.00
H143   H     0.72779   0.02147   0.00703   0.00000  Uiso   1.00
H144   H     0.75092   0.31273   0.30824   0.00000  Uiso   1.00
H145   H     0.77222   0.03228   0.29995   0.00000  Uiso   1.00
H146   H     0.72132   0.25263   0.23543   0.00000  Uiso   1.00
H147   H     0.73182   0.26216   0.17836   0.00000  Uiso   1.00
H148   H     0.69333   0.32914   0.24189   0.00000  Uiso   1.00
H149   H     0.69654   0.00031   0.18193   0.00000  Uiso   1.00
H150   H     0.67509   0.16770   0.21986   0.00000  Uiso   1.00
H151   H     0.96325   0.27712   0.16455   0.00000  Uiso   1.00
H152   H     0.93966   0.31871   0.19786   0.00000  Uiso   1.00
H153   H     0.96116   0.27067   0.22495   0.00000  Uiso   1.00
H154   H     0.87045   0.29359   0.10743   0.00000  Uiso   1.00
H155   H     0.79163   0.03948   0.22469   0.00000  Uiso   1.00
H156   H     0.90250   0.20330   0.05129   0.00000  Uiso   1.00
H157   H     0.76401   0.13021   0.28204   0.00000  Uiso   1.00
H158   H     0.90239   0.20338   0.30062   0.00000  Uiso   1.00
H159   H     0.76370   0.13066   0.03261   0.00000  Uiso   1.00
H160   H     0.83412   0.06710   0.03288   0.00000  Uiso   1.00
N161   N     0.83332   0.16666   0.28573   0.00000  Uiso   1.00
N162   N     0.83335   0.16668   0.04760   0.00000  Uiso   1.00
O163   O     0.83333   0.10558   0.20487   0.00000  Uiso   1.00
O164   O     0.78191   0.29299   0.23167   0.00000  Uiso   1.00
O165   O     0.83334   0.22775   0.12846   0.00000  Uiso   1.00
O166   O     0.83333   0.10559   0.12843   0.00000  Uiso   1.00
O167   O     0.83334   0.22774   0.20490   0.00000  Uiso   1.00
O168   O     0.75725   0.16666   0.19595   0.00000  Uiso   1.00
O169   O     0.90942   0.16667   0.13739   0.00000  Uiso   1.00
O170   O     0.75725   0.16667   0.11950   0.00000  Uiso   1.00
O171   O     0.90942   0.16666   0.21383   0.00000  Uiso   1.00
O172   O     0.86548   0.03850   0.09186   0.00000  Uiso   1.00
Zn173  Zn    0.83333   0.16666   0.21771   0.00000  Uiso   1.00
Zn174  Zn    0.83333   0.16667   0.11563   0.00000  Uiso   1.00
C175   C     0.16598   0.41994   0.16609   0.00000  Uiso   1.00
C176   C     0.14144   0.35542   0.19870   0.00000  Uiso   1.00
C177   C     0.16363   0.62390   0.16658   0.00000  Uiso   1.00
C178   C     0.16320   0.37566   0.16438   0.00000  Uiso   1.00
C179   C     0.20508   0.52032   0.02911   0.00000  Uiso   1.00
C180   C     0.12811   0.47985   0.30421   0.00000  Uiso   1.00
C181   C     0.20503   0.52036   0.31455   0.00000  Uiso   1.00
C182   C     0.12795   0.48008   0.01873   0.00000  Uiso   1.00
C183   C     0.15582   0.37680   0.05654   0.00000  Uiso   1.00
C184   C     0.14193   0.33644   0.02904   0.00000  Uiso   1.00
C185   C     0.09535   0.34303   0.32531   0.00000  Uiso   1.00
C186   C     0.16614   0.57990   0.16688   0.00000  Uiso   1.00
C187   C     0.06530   0.61065   0.21244   0.00000  Uiso   1.00
C188   C     0.02360   0.64484   0.20918   0.00000  Uiso   1.00
C189   C     0.30186   0.62649   0.19838   0.00000  Uiso   1.00
C190   C     0.06709   0.50016   0.15476   0.00000  Uiso   1.00
C191   C     0.26625   0.50029   0.17859   0.00000  Uiso   1.00
C192   C     0.01209   0.50053   0.14835   0.00000  Uiso   1.00
C193   C     0.32127   0.50075   0.18503   0.00000  Uiso   1.00
C194   C     0.18141   0.35313   0.12878   0.00000  Uiso   1.00
C195   C     0.13884   0.64593   0.19857   0.00000  Uiso   1.00
C196   C     0.18502   0.64409   0.13230   0.00000  Uiso   1.00
H197   H     0.32493   0.50037   0.11351   0.00000  Uiso   1.00
H198   H     0.12033   0.38905   0.06963   0.00000  Uiso   1.00
H199   H     0.17625   0.65911   0.01334   0.00000  Uiso   1.00
H200   H     0.13061   0.64491   0.05134   0.00000  Uiso   1.00
H201   H     0.06112   0.35481   0.00703   0.00000  Uiso   1.00
H202   H     0.08425   0.64607   0.30824   0.00000  Uiso   1.00
H203   H     0.10555   0.36561   0.29995   0.00000  Uiso   1.00
H204   H     0.05465   0.58596   0.23543   0.00000  Uiso   1.00
H205   H     0.06516   0.59549   0.17836   0.00000  Uiso   1.00
H206   H     0.02667   0.66247   0.24189   0.00000  Uiso   1.00
H207   H     0.02987   0.33364   0.18193   0.00000  Uiso   1.00
H208   H     0.00842   0.50103   0.21986   0.00000  Uiso   1.00
H209   H     0.29658   0.61045   0.16455   0.00000  Uiso   1.00
H210   H     0.27299   0.65205   0.19786   0.00000  Uiso   1.00
H211   H     0.29449   0.60400   0.22495   0.00000  Uiso   1.00
H212   H     0.20379   0.62692   0.10743   0.00000  Uiso   1.00
H213   H     0.12496   0.37282   0.22469   0.00000  Uiso   1.00
H214   H     0.23583   0.53664   0.05129   0.00000  Uiso   1.00
H215   H     0.09734   0.46354   0.28204   0.00000  Uiso   1.00
H216   H     0.23572   0.53671   0.30062   0.00000  Uiso   1.00
H217   H     0.09703   0.46400   0.03261   0.00000  Uiso   1.00
H218   H     0.16746   0.40043   0.03288   0.00000  Uiso   1.00
N219   N     0.16665   0.49999   0.28573   0.00000  Uiso   1.00
N220   N     0.16668   0.50001   0.04760   0.00000  Uiso   1.00
O221   O     0.16666   0.43892   0.20487   0.00000  Uiso   1.00
O222   O     0.11524   0.62633   0.23167   0.00000  Uiso   1.00
O223   O     0.16667   0.56108   0.12846   0.00000  Uiso   1.00
O224   O     0.16666   0.43893   0.12843   0.00000  Uiso   1.00
O225   O     0.16667   0.56107   0.20490   0.00000  Uiso   1.00
O226   O     0.09058   0.50000   0.19595   0.00000  Uiso   1.00
O227   O     0.24275   0.50000   0.13739   0.00000  Uiso   1.00
O228   O     0.09058   0.50000   0.11950   0.00000  Uiso   1.00
O229   O     0.24275   0.50000   0.21383   0.00000  Uiso   1.00
O230   O     0.19881   0.37183   0.09186   0.00000  Uiso   1.00
Zn231  Zn    0.16667   0.49999   0.21771   0.00000  Uiso   1.00
Zn232  Zn    0.16667   0.50001   0.11563   0.00000  Uiso   1.00
C233   C     0.49931   0.41994   0.16609   0.00000  Uiso   1.00
C234   C     0.47477   0.35542   0.19870   0.00000  Uiso   1.00
C235   C     0.49696   0.62390   0.16658   0.00000  Uiso   1.00
C236   C     0.49653   0.37566   0.16438   0.00000  Uiso   1.00
C237   C     0.53842   0.52032   0.02911   0.00000  Uiso   1.00
C238   C     0.46144   0.47985   0.30421   0.00000  Uiso   1.00
C239   C     0.53836   0.52036   0.31455   0.00000  Uiso   1.00
C240   C     0.46129   0.48008   0.01873   0.00000  Uiso   1.00
C241   C     0.48915   0.37680   0.05654   0.00000  Uiso   1.00
C242   C     0.47527   0.33644   0.02904   0.00000  Uiso   1.00
C243   C     0.42868   0.34303   0.32531   0.00000  Uiso   1.00
C244   C     0.49947   0.57990   0.16688   0.00000  Uiso   1.00
C245   C     0.39863   0.61065   0.21244   0.00000  Uiso   1.00
C246   C     0.35693   0.64484   0.20918   0.00000  Uiso   1.00
C247   C     0.63519   0.62649   0.19838   0.00000  Uiso   1.00
C248   C     0.40042   0.50016   0.15476   0.00000  Uiso   1.00
C249   C     0.59958   0.50029   0.17859   0.00000  Uiso   1.00
C250   C     0.34542   0.50053   0.14835   0.00000  Uiso   1.00
C251   C     0.65460   0.50075   0.18503   0.00000  Uiso   1.00
C252   C     0.51474   0.35313   0.12878   0.00000  Uiso   1.00
C253   C     0.47217   0.64593   0.19857   0.00000  Uiso   1.00
C254   C     0.51835   0.64409   0.13230   0.00000  Uiso   1.00
H255   H     0.65827   0.50037   0.11351   0.00000  Uiso   1.00
H256   H     0.45366   0.38905   0.06963   0.00000  Uiso   1.00
H257   H     0.50959   0.65911   0.01334   0.00000  Uiso   1.00
H258   H     0.46395   0.64491   0.05134   0.00000  Uiso   1.00
H259   H     0.39445   0.35481   0.00703   0.00000  Uiso   1.00
H260   H     0.41758   0.64607   0.30824   0.00000  Uiso   1.00
H261   H     0.43889   0.36561   0.29995   0.00000  Uiso   1.00
H262   H     0.38798   0.58596   0.23543   0.00000  Uiso   1.00
H263   H     0.39849   0.59549   0.17836   0.00000  Uiso   1.00
H264   H     0.36000   0.66247   0.24189   0.00000  Uiso   1.00
H265   H     0.36320   0.33364   0.18193   0.00000  Uiso   1.00
H266   H     0.34175   0.50103   0.21986   0.00000  Uiso   1.00
H267   H     0.62991   0.61045   0.16455   0.00000  Uiso   1.00
H268   H     0.60632   0.65205   0.19786   0.00000  Uiso   1.00
H269   H     0.62783   0.60400   0.22495   0.00000  Uiso   1.00
H270   H     0.53712   0.62692   0.10743   0.00000  Uiso   1.00
H271   H     0.45830   0.37282   0.22469   0.00000  Uiso   1.00
H272   H     0.56917   0.53664   0.05129   0.00000  Uiso   1.00
H273   H     0.43068   0.46354   0.28204   0.00000  Uiso   1.00
H274   H     0.56905   0.53671   0.30062   0.00000  Uiso   1.00
H275   H     0.43036   0.46400   0.03261   0.00000  Uiso   1.00
H276   H     0.50079   0.40043   0.03288   0.00000  Uiso   1.00
N277   N     0.49999   0.49999   0.28573   0.00000  Uiso   1.00
N278   N     0.50001   0.50001   0.04760   0.00000  Uiso   1.00
O279   O     0.50000   0.43892   0.20487   0.00000  Uiso   1.00
O280   O     0.44858   0.62633   0.23167   0.00000  Uiso   1.00
O281   O     0.50000   0.56108   0.12846   0.00000  Uiso   1.00
O282   O     0.50000   0.43893   0.12843   0.00000  Uiso   1.00
O283   O     0.50000   0.56107   0.20490   0.00000  Uiso   1.00
O284   O     0.42392   0.50000   0.19595   0.00000  Uiso   1.00
O285   O     0.57608   0.50000   0.13739   0.00000  Uiso   1.00
O286   O     0.42392   0.50000   0.11950   0.00000  Uiso   1.00
O287   O     0.57608   0.50000   0.21383   0.00000  Uiso   1.00
O288   O     0.53215   0.37183   0.09186   0.00000  Uiso   1.00
Zn289  Zn    0.50000   0.49999   0.21771   0.00000  Uiso   1.00
Zn290  Zn    0.50000   0.50001   0.11563   0.00000  Uiso   1.00
C291   C     0.83264   0.41994   0.16609   0.00000  Uiso   1.00
C292   C     0.80810   0.35542   0.19870   0.00000  Uiso   1.00
C293   C     0.83029   0.62390   0.16658   0.00000  Uiso   1.00
C294   C     0.82986   0.37566   0.16438   0.00000  Uiso   1.00
C295   C     0.87175   0.52032   0.02911   0.00000  Uiso   1.00
C296   C     0.79478   0.47985   0.30421   0.00000  Uiso   1.00
C297   C     0.87169   0.52036   0.31455   0.00000  Uiso   1.00
C298   C     0.79462   0.48008   0.01873   0.00000  Uiso   1.00
C299   C     0.82249   0.37680   0.05654   0.00000  Uiso   1.00
C300   C     0.80860   0.33644   0.02904   0.00000  Uiso   1.00
C301   C     0.76202   0.34303   0.32531   0.00000  Uiso   1.00
C302   C     0.83281   0.57990   0.16688   0.00000  Uiso   1.00
C303   C     0.73196   0.61065   0.21244   0.00000  Uiso   1.00
C304   C     0.69026   0.64484   0.20918   0.00000  Uiso   1.00
C305   C     0.96853   0.62649   0.19838   0.00000  Uiso   1.00
C306   C     0.73376   0.50016   0.15476   0.00000  Uiso   1.00
C307   C     0.93292   0.50029   0.17859   0.00000  Uiso   1.00
C308   C     0.67875   0.50053   0.14835   0.00000  Uiso   1.00
C309   C     0.98793   0.50075   0.18503   0.00000  Uiso   1.00
C310   C     0.84807   0.35313   0.12878   0.00000  Uiso   1.00
C311   C     0.80551   0.64593   0.19857   0.00000  Uiso   1.00
C312   C     0.85169   0.64409   0.13230   0.00000  Uiso   1.00
H313   H     0.99160   0.50037   0.11351   0.00000  Uiso   1.00
H314   H     0.78699   0.38905   0.06963   0.00000  Uiso   1.00
H315   H     0.84292   0.65911   0.01334   0.00000  Uiso   1.00
H316   H     0.79728   0.64491   0.05134   0.00000  Uiso   1.00
H317   H     0.72779   0.35481   0.00703   0.00000  Uiso   1.00
H318   H     0.75092   0.64607   0.30824   0.00000  Uiso   1.00
H319   H     0.77222   0.36561   0.29995   0.00000  Uiso   1.00
H320   H     0.72132   0.58596   0.23543   0.00000  Uiso   1.00
H321   H     0.73182   0.59549   0.17836   0.00000  Uiso   1.00
H322   H     0.69333   0.66247   0.24189   0.00000  Uiso   1.00
H323   H     0.69654   0.33364   0.18193   0.00000  Uiso   1.00
H324   H     0.67509   0.50103   0.21986   0.00000  Uiso   1.00
H325   H     0.96325   0.61045   0.16455   0.00000  Uiso   1.00
H326   H     0.93966   0.65205   0.19786   0.00000  Uiso   1.00
H327   H     0.96116   0.60400   0.22495   0.00000  Uiso   1.00
H328   H     0.87045   0.62692   0.10743   0.00000  Uiso   1.00
H329   H     0.79163   0.37282   0.22469   0.00000  Uiso   1.00
H330   H     0.90250   0.53664   0.05129   0.00000  Uiso   1.00
H331   H     0.76401   0.46354   0.28204   0.00000  Uiso   1.00
H332   H     0.90239   0.53671   0.30062   0.00000  Uiso   1.00
H333   H     0.76370   0.46400   0.03261   0.00000  Uiso   1.00
H334   H     0.83412   0.40043   0.03288   0.00000  Uiso   1.00
N335   N     0.83332   0.49999   0.28573   0.00000  Uiso   1.00
N336   N     0.83335   0.50001   0.04760   0.00000  Uiso   1.00
O337   O     0.83333   0.43892   0.20487   0.00000  Uiso   1.00
O338   O     0.78191   0.62633   0.23167   0.00000  Uiso   1.00
O339   O     0.83334   0.56108   0.12846   0.00000  Uiso   1.00
O340   O     0.83333   0.43893   0.12843   0.00000  Uiso   1.00
O341   O     0.83334   0.56107   0.20490   0.00000  Uiso   1.00
O342   O     0.75725   0.50000   0.19595   0.00000  Uiso   1.00
O343   O     0.90942   0.50000   0.13739   0.00000  Uiso   1.00
O344   O     0.75725   0.50000   0.11950   0.00000  Uiso   1.00
O345   O     0.90942   0.50000   0.21383   0.00000  Uiso   1.00
O346   O     0.86548   0.37183   0.09186   0.00000  Uiso   1.00
Zn347  Zn    0.83333   0.49999   0.21771   0.00000  Uiso   1.00
Zn348  Zn    0.83333   0.50001   0.11563   0.00000  Uiso   1.00
C349   C     0.16598   0.75328   0.16609   0.00000  Uiso   1.00
C350   C     0.14144   0.68875   0.19870   0.00000  Uiso   1.00
C351   C     0.16363   0.95724   0.16658   0.00000  Uiso   1.00
C352   C     0.16320   0.70900   0.16438   0.00000  Uiso   1.00
C353   C     0.20508   0.85366   0.02911   0.00000  Uiso   1.00
C354   C     0.12811   0.81318   0.30421   0.00000  Uiso   1.00
C355   C     0.20503   0.85370   0.31455   0.00000  Uiso   1.00
C356   C     0.12795   0.81341   0.01873   0.00000  Uiso   1.00
C357   C     0.15582   0.71013   0.05654   0.00000  Uiso   1.00
C358   C     0.14193   0.66978   0.02904   0.00000  Uiso   1.00
C359   C     0.09535   0.67636   0.32531   0.00000  Uiso   1.00
C360   C     0.16614   0.91323   0.16688   0.00000  Uiso   1.00
C361   C     0.06530   0.94399   0.21244   0.00000  Uiso   1.00
C362   C     0.02360   0.97818   0.20918   0.00000  Uiso   1.00
C363   C     0.30186   0.95982   0.19838   0.00000  Uiso   1.00
C364   C     0.06709   0.83350   0.15476   0.00000  Uiso   1.00
C365   C     0.26625   0.83362   0.17859   0.00000  Uiso   1.00
C366   C     0.01209   0.83386   0.14835   0.00000  Uiso   1.00
C367   C     0.32127   0.83408   0.18503   0.00000  Uiso   1.00
C368   C     0.18141   0.68646   0.12878   0.00000  Uiso   1.00
C369   C     0.13884   0.97926   0.19857   0.00000  Uiso   1.00
C370   C     0.18502   0.97742   0.13230   0.00000  Uiso   1.00
H371   H     0.32493   0.83370   0.11351   0.00000  Uiso   1.00
H372   H     0.12033   0.72238   0.06963   0.00000  Uiso   1.00
H373   H     0.17625   0.99245   0.01334   0.00000  Uiso   1.00
H374   H     0.13061   0.97824   0.05134   0.00000  Uiso   1.00
H375   H     0.06112   0.68814   0.00703   0.00000  Uiso   1.00
H376   H     0.08425   0.97940   0.30824   0.00000  Uiso   1.00
H377   H     0.10555   0.69895   0.29995   0.00000  Uiso   1.00
H378   H     0.05465   0.91930   0.23543   0.00000  Uiso   1.00
H379   H     0.06516   0.92882   0.17836   0.00000  Uiso   1.00
H380   H     0.02667   0.99581   0.24189   0.00000  Uiso   1.00
H381   H     0.02987   0.66697   0.18193   0.00000  Uiso   1.00
H382   H     0.00842   0.83436   0.21986   0.00000  Uiso   1.00
H383   H     0.29658   0.94379   0.16455   0.00000  Uiso   1.00
H384   H     0.27299   0.98538   0.19786   0.00000  Uiso   1.00
H385   H     0.29449   0.93733   0.22495   0.00000  Uiso   1.00
H386   H     0.20379   0.96026   0.10743   0.00000  Uiso   1.00
H387   H     0.12496   0.70615   0.22469   0.00000  Uiso   1.00
H388   H     0.23583   0.86997   0.05129   0.00000  Uiso   1.00
H389   H     0.09734   0.79687   0.28204   0.00000  Uiso   1.00
H390   H     0.23572   0.87005   0.30062   0.00000  Uiso   1.00
H391   H     0.09703   0.79733   0.03261   0.00000  Uiso   1.00
H392   H     0.16746   0.73376   0.03288   0.00000  Uiso   1.00
N393   N     0.16665   0.83332   0.28573   0.00000  Uiso   1.00
N394   N     0.16668   0.83334   0.04760   0.00000  Uiso   1.00
O395   O     0.16666   0.77225   0.20487   0.00000  Uiso   1.00
O396   O     0.11524   0.95966   0.23167   0.00000  Uiso   1.00
O397   O     0.16667   0.89442   0.12846   0.00000  Uiso   1.00
O398   O     0.16666   0.77226   0.12843   0.00000  Uiso   1.00
O399   O     0.16667   0.89441   0.20490   0.00000  Uiso   1.00
O400   O     0.09058   0.83333   0.19595   0.00000  Uiso   1.00
O401   O     0.24275   0.83334   0.13739   0.00000  Uiso   1.00
O402   O     0.09058   0.83334   0.11950   0.00000  Uiso   1.00
O403   O     0.24275   0.83333   0.21383   0.00000  Uiso   1.00
O404   O     0.19881   0.70517   0.09186   0.00000  Uiso   1.00
Zn405  Zn    0.16667   0.83333   0.21771   0.00000  Uiso   1.00
Zn406  Zn    0.16667   0.83334   0.11563   0.00000  Uiso   1.00
C407   C     0.49931   0.75328   0.16609   0.00000  Uiso   1.00
C408   C     0.47477   0.68875   0.19870   0.00000  Uiso   1.00
C409   C     0.49696   0.95724   0.16658   0.00000  Uiso   1.00
C410   C     0.49653   0.70900   0.16438   0.00000  Uiso   1.00
C411   C     0.53842   0.85366   0.02911   0.00000  Uiso   1.00
C412   C     0.46144   0.81318   0.30421   0.00000  Uiso   1.00
C413   C     0.53836   0.85370   0.31455   0.00000  Uiso   1.00
C414   C     0.46129   0.81341   0.01873   0.00000  Uiso   1.00
C415   C     0.48915   0.71013   0.05654   0.00000  Uiso   1.00
C416   C     0.47527   0.66978   0.02904   0.00000  Uiso   1.00
C417   C     0.42868   0.67636   0.32531   0.00000  Uiso   1.00
C418   C     0.49947   0.91323   0.16688   0.00000  Uiso   1.00
C419   C     0.39863   0.94399   0.21244   0.00000  Uiso   1.00
C420   C     0.35693   0.97818   0.20918   0.00000  Uiso   1.00
C421   C     0.63519   0.95982   0.19838   0.00000  Uiso   1.00
C422   C     0.40042   0.83350   0.15476   0.00000  Uiso   1.00
C423   C     0.59958   0.83362   0.17859   0.00000  Uiso   1.00
C424   C     0.34542   0.83386   0.14835   0.00000  Uiso   1.00
C425   C     0.65460   0.83408   0.18503   0.00000  Uiso   1.00
C426   C     0.51474   0.68646   0.12878   0.00000  Uiso   1.00
C427   C     0.47217   0.97926   0.19857   0.00000  Uiso   1.00
C428   C     0.51835   0.97742   0.13230   0.00000  Uiso   1.00
H429   H     0.65827   0.83370   0.11351   0.00000  Uiso   1.00
H430   H     0.45366   0.72238   0.06963   0.00000  Uiso   1.00
H431   H     0.50959   0.99245   0.01334   0.00000  Uiso   1.00
H432   H     0.46395   0.97824   0.05134   0.00000  Uiso   1.00
H433   H     0.39445   0.68814   0.00703   0.00000  Uiso   1.00
H434   H     0.41758   0.97940   0.30824   0.00000  Uiso   1.00
H435   H     0.43889   0.69895   0.29995   0.00000  Uiso   1.00
H436   H     0.38798   0.91930   0.23543   0.00000  Uiso   1.00
H437   H     0.39849   0.92882   0.17836   0.00000  Uiso   1.00
H438   H     0.36000   0.99581   0.24189   0.00000  Uiso   1.00
H439   H     0.36320   0.66697   0.18193   0.00000  Uiso   1.00
H440   H     0.34175   0.83436   0.21986   0.00000  Uiso   1.00
H441   H     0.62991   0.94379   0.16455   0.00000  Uiso   1.00
H442   H     0.60632   0.98538   0.19786   0.00000  Uiso   1.00
H443   H     0.62783   0.93733   0.22495   0.00000  Uiso   1.00
H444   H     0.53712   0.96026   0.10743   0.00000  Uiso   1.00
H445   H     0.45830   0.70615   0.22469   0.00000  Uiso   1.00
H446   H     0.56917   0.86997   0.05129   0.00000  Uiso   1.00
H447   H     0.43068   0.79687   0.28204   0.00000  Uiso   1.00
H448   H     0.56905   0.87005   0.30062   0.00000  Uiso   1.00
H449   H     0.43036   0.79733   0.03261   0.00000  Uiso   1.00
H450   H     0.50079   0.73376   0.03288   0.00000  Uiso   1.00
N451   N     0.49999   0.83332   0.28573   0.00000  Uiso   1.00
N452   N     0.50001   0.83334   0.04760   0.00000  Uiso   1.00
O453   O     0.50000   0.77225   0.20487   0.00000  Uiso   1.00
O454   O     0.44858   0.95966   0.23167   0.00000  Uiso   1.00
O455   O     0.50000   0.89442   0.12846   0.00000  Uiso   1.00
O456   O     0.50000   0.77226   0.12843   0.00000  Uiso   1.00
O457   O     0.50000   0.89441   0.20490   0.00000  Uiso   1.00
O458   O     0.42392   0.83333   0.19595   0.00000  Uiso   1.00
O459   O     0.57608   0.83334   0.13739   0.00000  Uiso   1.00
O460   O     0.42392   0.83334   0.11950   0.00000  Uiso   1.00
O461   O     0.57608   0.83333   0.21383   0.00000  Uiso   1.00
O462   O     0.53215   0.70517   0.09186   0.00000  Uiso   1.00
Zn463  Zn    0.50000   0.83333   0.21771   0.00000  Uiso   1.00
Zn464  Zn    0.50000   0.83334   0.11563   0.00000  Uiso   1.00
C465   C     0.83264   0.75328   0.16609   0.00000  Uiso   1.00
C466   C     0.80810   0.68875   0.19870   0.00000  Uiso   1.00
C467   C     0.83029   0.95724   0.16658   0.00000  Uiso   1.00
C468   C     0.82986   0.70900   0.16438   0.00000  Uiso   1.00
C469   C     0.87175   0.85366   0.02911   0.00000  Uiso   1.00
C470   C     0.79478   0.81318   0.30421   0.00000  Uiso   1.00
C471   C     0.87169   0.85370   0.31455   0.00000  Uiso   1.00
C472   C     0.79462   0.81341   0.01873   0.00000  Uiso   1.00
C473   C     0.82249   0.71013   0.05654   0.00000  Uiso   1.00
C474   C     0.80860   0.66978   0.02904   0.00000  Uiso   1.00
C475   C     0.76202   0.67636   0.32531   0.00000  Uiso   1.00
C476   C     0.83281   0.91323   0.16688   0.00000  Uiso   1.00
C477   C     0.73196   0.94399   0.21244   0.00000  Uiso   1.00
C478   C     0.69026   0.97818   0.20918   0.00000  Uiso   1.00
C479   C     0.96853   0.95982   0.19838   0.00000  Uiso   1.00
C480   C     0.73376   0.83350   0.15476   0.00000  Uiso   1.00
C481   C     0.93292   0.83362   0.17859   0.00000  Uiso   1.00
C482   C     0.67875   0.83386   0.14835   0.00000  Uiso   1.00
C483   C     0.98793   0.83408   0.18503   0.00000  Uiso   1.00
C484   C     0.84807   0.68646   0.12878   0.00000  Uiso   1.00
C485   C     0.80551   0.97926   0.19857   0.00000  Uiso   1.00
C486   C     0.85169   0.97742   0.13230   0.00000  Uiso   1.00
H487   H     0.99160   0.83370   0.11351   0.00000  Uiso   1.00
H488   H     0.78699   0.72238   0.06963   0.00000  Uiso   1.00
H489   H     0.84292   0.99245   0.01334   0.00000  Uiso   1.00
H490   H     0.79728   0.97824   0.05134   0.00000  Uiso   1.00
H491   H     0.72779   0.68814   0.00703   0.00000  Uiso   1.00
H492   H     0.75092   0.97940   0.30824   0.00000  Uiso   1.00
H493   H     0.77222   0.69895   0.29995   0.00000  Uiso   1.00
H494   H     0.72132   0.91930   0.23543   0.00000  Uiso   1.00
H495   H     0.73182   0.92882   0.17836   0.00000  Uiso   1.00
H496   H     0.69333   0.99581   0.24189   0.00000  Uiso   1.00
H497   H     0.69654   0.66697   0.18193   0.00000  Uiso   1.00
H498   H     0.67509   0.83436   0.21986   0.00000  Uiso   1.00
H499   H     0.96325   0.94379   0.16455   0.00000  Uiso   1.00
H500   H     0.93966   0.98538   0.19786   0.00000  Uiso   1.00
H501   H     0.96116   0.93733   0.22495   0.00000  Uiso   1.00
H502   H     0.87045   0.96026   0.10743   0.00000  Uiso   1.00
H503   H     0.79163   0.70615   0.22469   0.00000  Uiso   1.00
H504   H     0.90250   0.86997   0.05129   0.00000  Uiso   1.00
H505   H     0.76401   0.79687   0.28204   0.00000  Uiso   1.00
H506   H     0.90239   0.87005   0.30062   0.00000  Uiso   1.00
H507   H     0.76370   0.79733   0.03261   0.00000  Uiso   1.00
H508   H     0.83412   0.73376   0.03288   0.00000  Uiso   1.00
N509   N     0.83332   0.83332   0.28573   0.00000  Uiso   1.00
N510   N     0.83335   0.83334   0.04760   0.00000  Uiso   1.00
O511   O     0.83333   0.77225   0.20487   0.00000  Uiso   1.00
O512   O     0.78191   0.95966   0.23167   0.00000  Uiso   1.00
O513   O     0.83334   0.89442   0.12846   0.00000  Uiso   1.00
O514   O     0.83333   0.77226   0.12843   0.00000  Uiso   1.00
O515   O     0.83334   0.89441   0.20490   0.00000  Uiso   1.00
O516   O     0.75725   0.83333   0.19595   0.00000  Uiso   1.00
O517   O     0.90942   0.83334   0.13739   0.00000  Uiso   1.00
O518   O     0.75725   0.83334   0.11950   0.00000  Uiso   1.00
O519   O     0.90942   0.83333   0.21383   0.00000  Uiso   1.00
O520   O     0.86548   0.70517   0.09186   0.00000  Uiso   1.00
Zn521  Zn    0.83333   0.83333   0.21771   0.00000  Uiso   1.00
Zn522  Zn    0.83333   0.83334   0.11563   0.00000  Uiso   1.00
C523   C     0.16598   0.08661   0.49942   0.00000  Uiso   1.00
C524   C     0.14144   0.02209   0.53203   0.00000  Uiso   1.00
C525   C     0.16363   0.29057   0.49991   0.00000  Uiso   1.00
C526   C     0.16320   0.04233   0.49771   0.00000  Uiso   1.00
C527   C     0.20508   0.18699   0.36244   0.00000  Uiso   1.00
C528   C     0.12811   0.14651   0.63754   0.00000  Uiso   1.00
C529   C     0.20503   0.18703   0.64788   0.00000  Uiso   1.00
C530   C     0.12795   0.14675   0.35206   0.00000  Uiso   1.00
C531   C     0.15582   0.04346   0.38988   0.00000  Uiso   1.00
C532   C     0.14193   0.00311   0.36237   0.00000  Uiso   1.00
C533   C     0.09535   0.00970   0.65864   0.00000  Uiso   1.00
C534   C     0.16614   0.24657   0.50021   0.00000  Uiso   1.00
C535   C     0.06530   0.27732   0.54577   0.00000  Uiso   1.00
C536   C     0.02360   0.31151   0.54251   0.00000  Uiso   1.00
C537   C     0.30186   0.29316   0.53172   0.00000  Uiso   1.00
C538   C     0.06709   0.16683   0.48809   0.00000  Uiso   1.00
C539   C     0.26625   0.16695   0.51192   0.00000  Uiso   1.00
C540   C     0.01209   0.16720   0.48168   0.00000  Uiso   1.00
C541   C     0.32127   0.16741   0.51836   0.00000  Uiso   1.00
C542   C     0.18141   0.01979   0.46211   0.00000  Uiso   1.00
C543   C     0.13884   0.31260   0.53190   0.00000  Uiso   1.00
C544   C     0.18502   0.31075   0.46564   0.00000  Uiso   1.00
H545   H     0.32493   0.16704   0.44685   0.00000  Uiso   1.00
H546   H     0.12033   0.05571   0.40296   0.00000  Uiso   1.00
H547   H     0.17625   0.32578   0.34667   0.00000  Uiso   1.00
H548   H     0.13061   0.31158   0.38467   0.00000  Uiso   1.00
H549   H     0.06112   0.02147   0.34036   0.00000  Uiso   1.00
H550   H     0.08425   0.31273   0.64157   0.00000  Uiso   1.00
H551   H     0.10555   0.03228   0.63328   0.00000  Uiso   1.00
H552   H     0.05465   0.25263   0.56876   0.00000  Uiso   1.00
H553   H     0.06516   0.26216   0.51169   0.00000  Uiso   1.00
H554   H     0.02667   0.32914   0.57523   0.00000  Uiso   1.00
H555   H     0.02987   0.00031   0.51526   0.00000  Uiso   1.00
H556   H     0.00842   0.16770   0.55320   0.00000  Uiso   1.00
H557   H     0.29658   0.27712   0.49789   0.00000  Uiso   1.00
H558   H     0.27299   0.31871   0.53119   0.00000  Uiso   1.00
H559   H     0.29449   0.27067   0.55829   0.00000  Uiso   1.00
H560   H     0.20379   0.29359   0.44076   0.00000  Uiso   1.00
H561   H     0.12496   0.03948   0.55802   0.00000  Uiso   1.00
H562   H     0.23583   0.20330   0.38462   0.00000  Uiso   1.00
H563   H     0.09734   0.13021   0.61537   0.00000  Uiso   1.00
H564   H     0.23572   0.20338   0.63395   0.00000  Uiso   1.00
H565   H     0.09703   0.13066   0.36594   0.00000  Uiso   1.00
H566   H     0.16746   0.06710   0.36621   0.00000  Uiso   1.00
N567   N     0.16665   0.16666   0.61907   0.00000  Uiso   1.00
N568   N     0.16668   0.16668   0.38093   0.00000  Uiso   1.00
O569   O     0.16666   0.10558   0.53821   0.00000  Uiso   1.00
O570   O     0.11524   0.29299   0.56500   0.00000  Uiso   1.00
O571   O     0.16667   0.22775   0.46179   0.00000  Uiso   1.00
O572   O     0.16666   0.10559   0.46176   0.00000  Uiso   1.00
O573   O     0.16667   0.22774   0.53824   0.00000  Uiso   1.00
O574   O     0.09058   0.16666   0.52928   0.00000  Uiso   1.00
O575   O     0.24275   0.16667   0.47072   0.00000  Uiso   1.00
O576   O     0.09058   0.16667   0.45284   0.00000  Uiso   1.00
O577   O     0.24275   0.16666   0.54716   0.00000  Uiso   1.00
O578   O     0.19881   0.03850   0.42520   0.00000  Uiso   1.00
Zn579  Zn    0.16667   0.16666   0.55104   0.00000  Uiso   1.00
Zn580  Zn    0.16667   0.16667   0.44896   0.00000  Uiso   1.00
C581   C     0.49931   0.08661   0.49942   0.00000  Uiso   1.00
C582   C     0.47477   0.02209   0.53203   0.00000  Uiso   1.00
C583   C     0.49696   0.29057   0.49991   0.00000  Uiso   1.00
C584   C     0.49653   0.04233   0.49771   0.00000  Uiso   1.00
C585   C     0.53842   0.18699   0.36244   0.00000  Uiso   1.00
C586   C     0.46144   0.14651   0.63754   0.00000  Uiso   1.00
C587   C     0.53836   0.18703   0.64788   0.00000  Uiso   1.00
C588   C     0.46129   0.14675   0.35206   0.00000  Uiso   1.00
C589   C     0.48915   0.04346   0.38988   0.00000  Uiso   1.00
C590   C     0.47527   0.00311   0.36237   0.00000  Uiso   1.00
C591   C     0.42868   0.00970   0.65864   0.00000  Uiso   1.00
C592   C     0.49947   0.24657   0.50021   0.00000  Uiso   1.00
C593   C     0.39863   0.27732   0.54577   0.00000  Uiso   1.00
C594   C     0.35693   0.31151   0.54251   0.00000  Uiso   1.00
C595   C     0.63519   0.29316   0.53172   0.00000  Uiso   1.00
C596   C     0.40042   0.16683   0.48809   0.00000  Uiso   1.00
C597   C     0.59958   0.16695   0.51192   0.00000  Uiso   1.00
C598   C     0.34542   0.16720   0.48168   0.00000  Uiso   1.00
C599   C     0.65460   0.16741   0.51836   0.00000  Uiso   1.00
C600   C     0.51474   0.01979   0.46211   0.00000  Uiso   1.00
C601   C     0.47217   0.31260   0.53190   0.00000  Uiso   1.00
C602   C     0.51835   0.31075   0.46564   0.00000  Uiso   1.00
H603   H     0.65827   0.16704   0.44685   0.00000  Uiso   1.00
H604   H     0.45366   0.05571   0.40296   0.00000  Uiso   1.00
H605   H     0.50959   0.32578   0.34667   0.00000  Uiso   1.00
H606   H     0.46395   0.31158   0.38467   0.00000  Uiso   1.00
H607   H     0.39445   0.02147   0.34036   0.00000  Uiso   1.00
H608   H     0.41758   0.31273   0.64157   0.00000  Uiso   1.00
H609   H     0.43889   0.03228   0.63328   0.00000  Uiso   1.00
H610   H     0.38798   0.25263   0.56876   0.00000  Uiso   1.00
H611   H     0.39849   0.26216   0.51169   0.00000  Uiso   1.00
H612   H     0.36000   0.32914   0.57523   0.00000  Uiso   1.00
H613   H     0.36320   0.00031   0.51526   0.00000  Uiso   1.00
H614   H     0.34175   0.16770   0.55320   0.00000  Uiso   1.00
H615   H     0.62991   0.27712   0.49789   0.00000  Uiso   1.00
H616   H     0.60632   0.31871   0.53119   0.00000  Uiso   1.00
H617   H     0.62783   0.27067   0.55829   0.00000  Uiso   1.00
H618   H     0.53712   0.29359   0.44076   0.00000  Uiso   1.00
H619   H     0.45830   0.03948   0.55802   0.00000  Uiso   1.00
H620   H     0.56917   0.20330   0.38462   0.00000  Uiso   1.00
H621   H     0.43068   0.13021   0.61537   0.00000  Uiso   1.00
H622   H     0.56905   0.20338   0.63395   0.00000  Uiso   1.00
H623   H     0.43036   0.13066   0.36594   0.00000  Uiso   1.00
H624   H     0.50079   0.06710   0.36621   0.00000  Uiso   1.00
N625   N     0.49999   0.16666   0.61907   0.00000  Uiso   1.00
N626   N     0.50001   0.16668   0.38093   0.00000  Uiso   1.00
O627   O     0.50000   0.10558   0.53821   0.00000  Uiso   1.00
O628   O     0.44858   0.29299   0.56500   0.00000  Uiso   1.00
O629   O     0.50000   0.22775   0.46179   0.00000  Uiso   1.00
O630   O     0.50000   0.10559   0.46176   0.00000  Uiso   1.00
O631   O     0.50000   0.22774   0.53824   0.00000  Uiso   1.00
O632   O     0.42392   0.16666   0.52928   0.00000  Uiso   1.00
O633   O     0.57608   0.16667   0.47072   0.00000  Uiso   1.00
O634   O     0.42392   0.16667   0.45284   0.00000  Uiso   1.00
O635   O     0.57608   0.16666   0.54716   0.00000  Uiso   1.00
O636   O     0.53215   0.03850   0.42520   0.00000  Uiso   1.00
Zn637  Zn    0.50000   0.16666   0.55104   0.00000  Uiso   1.00
Zn638  Zn    0.50000   0.16667   0.44896   0.00000  Uiso   1.00
C639   C     0.83264   0.08661   0.49942   0.00000  Uiso   1.00
C640   C     0.80810   0.02209   0.53203   0.00000  Uiso   1.00
C641   C     0.83029   0.29057   0.49991   0.00000  Uiso   1.00
C642   C     0.82986   0.04233   0.49771   0.00000  Uiso   1.00
C643   C     0.87175   0.18699   0.36244   0.00000  Uiso   1.00
C644   C     0.79478   0.14651   0.63754   0.00000  Uiso   1.00
C645   C     0.87169   0.18703   0.64788   0.00000  Uiso   1.00
C646   C     0.79462   0.14675   0.35206   0.00000  Uiso   1.00
C647   C     0.82249   0.04346   0.38988   0.00000  Uiso   1.00
C648   C     0.80860   0.00311   0.36237   0.00000  Uiso   1.00
C649   C     0.76202   0.00970   0.65864   0.00000  Uiso   1.00
C650   C     0.83281   0.24657   0.50021   0.00000  Uiso   1.00
C651   C     0.73196   0.27732   0.54577   0.00000  Uiso   1.00
C652   C     0.69026   0.31151   0.54251   0.00000  Uiso   1.00
C653   C     0.96853   0.29316   0.53172   0.00000  Uiso   1.00
C654   C     0.73376   0.16683   0.48809   0.00000  Uiso   1.00
C655   C     0.93292   0.16695   0.51192   0.00000  Uiso   1.00
C656   C     0.67875   0.16720   0.48168   0.00000  Uiso   1.00
C657   C     0.98793   0.16741   0.51836   0.00000  Uiso   1.00
C658   C     0.84807   0.01979   0.46211   0.00000  Uiso   1.00
C659   C     0.80551   0.31260   0.53190   0.00000  Uiso   1.00
C660   C     0.85169   0.31075   0.46564   0.00000  Uiso   1.00
H661   H     0.99160   0.16704   0.44685   0.00000  Uiso   1.00
H662   H     0.78699   0.05571   0.40296   0.00000  Uiso   1.00
H663   H     0.84292   0.32578   0.34667   0.00000  Uiso   1.00
H664   H     0.79728   0.31158   0.38467   0.00000  Uiso   1.00
H665   H     0.72779   0.02147   0.34036   0.00000  Uiso   1.00
H666   H     0.75092   0.31273   0.64157   0.00000  Uiso   1.00
H667   H     0.77222   0.03228   0.63328   0.00000  Uiso   1.00
H668   H     0.72132   0.25263   0.56876   0.00000  Uiso   1.00
H669   H     0.73182   0.26216   0.51169   0.00000  Uiso   1.00
H670   H     0.69333   0.32914   0.57523   0.00000  Uiso   1.00
H671   H     0.69654   0.00031   0.51526   0.00000  Uiso   1.00
H672   H     0.67509   0.16770   0.55320   0.00000  Uiso   1.00
H673   H     0.96325   0.27712   0.49789   0.00000  Uiso   1.00
H674   H     0.93966   0.31871   0.53119   0.00000  Uiso   1.00
H675   H     0.96116   0.27067   0.55829   0.00000  Uiso   1.00
H676   H     0.87045   0.29359   0.44076   0.00000  Uiso   1.00
H677   H     0.79163   0.03948   0.55802   0.00000  Uiso   1.00
H678   H     0.90250   0.20330   0.38462   0.00000  Uiso   1.00
H679   H     0.76401   0.13021   0.61537   0.00000  Uiso   1.00
H680   H     0.90239   0.20338   0.63395   0.00000  Uiso   1.00
H681   H     0.76370   0.13066   0.36594   0.00000  Uiso   1.00
H682   H     0.83412   0.06710   0.36621   0.00000  Uiso   1.00
N683   N     0.83332   0.16666   0.61907   0.00000  Uiso   1.00
N684   N     0.83335   0.16668   0.38093   0.00000  Uiso   1.00
O685   O     0.83333   0.10558   0.53821   0.00000  Uiso   1.00
O686   O     0.78191   0.29299   0.56500   0.00000  Uiso   1.00
O687   O     0.83334   0.22775   0.46179   0.00000  Uiso   1.00
O688   O     0.83333   0.10559   0.46176   0.00000  Uiso   1.00
O689   O     0.83334   0.22774   0.53824   0.00000  Uiso   1.00
O690   O     0.75725   0.16666   0.52928   0.00000  Uiso   1.00
O691   O     0.90942   0.16667   0.47072   0.00000  Uiso   1.00
O692   O     0.75725   0.16667   0.45284   0.00000  Uiso   1.00
O693   O     0.90942   0.16666   0.54716   0.00000  Uiso   1.00
O694   O     0.86548   0.03850   0.42520   0.00000  Uiso   1.00
Zn695  Zn    0.83333   0.16666   0.55104   0.00000  Uiso   1.00
Zn696  Zn    0.83333   0.16667   0.44896   0.00000  Uiso   1.00
C697   C     0.16598   0.41994   0.49942   0.00000  Uiso   1.00
C698   C     0.14144   0.35542   0.53203   0.00000  Uiso   1.00
C699   C     0.16363   0.62390   0.49991   0.00000  Uiso   1.00
C700   C     0.16320   0.37566   0.49771   0.00000  Uiso   1.00
C701   C     0.20508   0.52032   0.36244   0.00000  Uiso   1.00
C702   C     0.12811   0.47985   0.63754   0.00000  Uiso   1.00
C703   C     0.20503   0.52036   0.64788   0.00000  Uiso   1.00
C704   C     0.12795   0.48008   0.35206   0.00000  Uiso   1.00
C705   C     0.15582   0.37680   0.38988   0.00000  Uiso   1.00
C706   C     0.14193   0.33644   0.36237   0.00000  Uiso   1.00
C707   C     0.09535   0.34303   0.65864   0.00000  Uiso   1.00
C708   C     0.16614   0.57990   0.50021   0.00000  Uiso   1.00
C709   C     0.06530   0.61065   0.54577   0.00000  Uiso   1.00
C710   C     0.02360   0.64484   0.54251   0.00000  Uiso   1.00
C711   C     0.30186   0.62649   0.53172   0.00000  Uiso   1.00
C712   C     0.06709   0.50016   0.48809   0.00000  Uiso   1.00
C713   C     0.26625   0.50029   0.51192   0.00000  Uiso   1.00
C714   C     0.01209   0.50053   0.48168   0.00000  Uiso   1.00
C715   C     0.32127   0.50075   0.51836   0.00000  Uiso   1.00
C716   C     0.18141   0.35313   0.46211   0.00000  Uiso   1.00
C717   C     0.13884   0.64593   0.53190   0.00000  Uiso   1.00
C718   C     0.18502   0.64409   0.46564   0.00000  Uiso   1.00
H719   H     0.32493   0.50037   0.44685   0.00000  Uiso   1.00
H720   H     0.12033   0.38905   0.40296   0.00000  Uiso   1.00
H721   H     0.17625   0.65911   0.34667   0.00000  Uiso   1.00
H722   H     0.13061   0.64491   0.38467   0.00000  Uiso   1.00
H723   H     0.06112   0.35481   0.34036   0.00000  Uiso   1.00
H724   H     0.08425   0.64607   0.64157   0.00000  Uiso   1.00
H725   H     0.10555   0.36561   0.63328   0.00000  Uiso   1.00
H726   H     0.05465   0.58596   0.56876   0.00000  Uiso   1.00
H727   H     0.06516   0.59549   0.51169   0.00000  Uiso   1.00
H728   H     0.02667   0.66247   0.57523   0.00000  Uiso   1.00
H729   H     0.02987   0.33364   0.51526   0.00000  Uiso   1.00
H730   H     0.00842   0.50103   0.55320   0.00000  Uiso   1.00
H731   H     0.29658   0.61045   0.49789   0.00000  Uiso   1.00
H732   H     0.27299   0.65205   0.53119   0.00000  Uiso   1.00
H733   H     0.29449   0.60400   0.55829   0.00000  Uiso   1.00
H734   H     0.20379   0.62692   0.44076   0.00000  Uiso   1.00
H735   H     0.12496   0.37282   0.55802   0.00000  Uiso   1.00
H736   H     0.23583   0.53664   0.38462   0.00000  Uiso   1.00
H737   H     0.09734   0.46354   0.61537   0.00000  Uiso   1.00
H738   H     0.23572   0.53671   0.63395   0.00000  Uiso   1.00
H739   H     0.09703   0.46400   0.36594   0.00000  Uiso   1.00
H740   H     0.16746   0.40043   0.36621   0.00000  Uiso   1.00
N741   N     0.16665   0.49999   0.61907   0.00000  Uiso   1.00
N742   N     0.16668   0.50001   0.38093   0.00000  Uiso   1.00
O743   O     0.16666   0.43892   0.53821   0.00000  Uiso   1.00
O744   O     0.11524   0.62633   0.56500   0.00000  Uiso   1.00
O745   O     0.16667   0.56108   0.46179   0.00000  Uiso   1.00
O746   O     0.16666   0.43893   0.46176   0.00000  Uiso   1.00
O747   O     0.16667   0.56107   0.53824   0.00000  Uiso   1.00
O748   O     0.09058   0.50000   0.52928   0.00000  Uiso   1.00
O749   O     0.24275   0.50000   0.47072   0.00000  Uiso   1.00
O750   O     0.09058   0.50000   0.45284   0.00000  Uiso   1.00
O751   O     0.24275   0.50000   0.54716   0.00000  Uiso   1.00
O752   O     0.19881   0.37183   0.42520   0.00000  Uiso   1.00
Zn753  Zn    0.16667   0.49999   0.55104   0.00000  Uiso   1.00
Zn754  Zn    0.16667   0.50001   0.44896   0.00000  Uiso   1.00
C755   C     0.49931   0.41994   0.49942   0.00000  Uiso   1.00
C756   C     0.47477   0.35542   0.53203   0.00000  Uiso   1.00
C757   C     0.49696   0.62390   0.49991   0.00000  Uiso   1.00
C758   C     0.49653   0.37566   0.49771   0.00000  Uiso   1.00
C759   C     0.53842   0.52032   0.36244   0.00000  Uiso   1.00
C760   C     0.46144   0.47985   0.63754   0.00000  Uiso   1.00
C761   C     0.53836   0.52036   0.64788   0.00000  Uiso   1.00
C762   C     0.46129   0.48008   0.35206   0.00000  Uiso   1.00
C763   C     0.48915   0.37680   0.38988   0.00000  Uiso   1.00
C764   C     0.47527   0.33644   0.36237   0.00000  Uiso   1.00
C765   C     0.42868   0.34303   0.65864   0.00000  Uiso   1.00
C766   C     0.49947   0.57990   0.50021   0.00000  Uiso   1.00
C767   C     0.39863   0.61065   0.54577   0.00000  Uiso   1.00
C768   C     0.35693   0.64484   0.54251   0.00000  Uiso   1.00
C769   C     0.63519   0.62649   0.53172   0.00000  Uiso   1.00
C770   C     0.40042   0.50016   0.48809   0.00000  Uiso   1.00
C771   C     0.59958   0.50029   0.51192   0.00000  Uiso   1.00
C772   C     0.34542   0.50053   0.48168   0.00000  Uiso   1.00
C773   C     0.65460   0.50075   0.51836   0.00000  Uiso   1.00
C774   C     0.51474   0.35313   0.46211   0.00000  Uiso   1.00
C775   C     0.47217   0.64593   0.53190   0.00000  Uiso   1.00
C776   C     0.51835   0.64409   0.46564   0.00000  Uiso   1.00
H777   H     0.65827   0.50037   0.44685   0.00000  Uiso   1.00
H778   H     0.45366   0.38905   0.40296   0.00000  Uiso   1.00
H779   H     0.50959   0.65911   0.34667   0.00000  Uiso   1.00
H780   H     0.46395   0.64491   0.38467   0.00000  Uiso   1.00
H781   H     0.39445   0.35481   0.34036   0.00000  Uiso   1.00
H782   H     0.41758   0.64607   0.64157   0.00000  Uiso   1.00
H783   H     0.43889   0.36561   0.63328   0.00000  Uiso   1.00
H784   H     0.38798   0.58596   0.56876   0.00000  Uiso   1.00
H785   H     0.39849   0.59549   0.51169   0.00000  Uiso   1.00
H786   H     0.36000   0.66247   0.57523   0.00000  Uiso   1.00
H787   H     0.36320   0.33364   0.51526   0.00000  Uiso   1.00
H788   H     0.34175   0.50103   0.55320   0.00000  Uiso   1.00
H789   H     0.62991   0.61045   0.49789   0.00000  Uiso   1.00
H790   H     0.60632   0.65205   0.53119   0.00000  Uiso   1.00
H791   H     0.62783   0.60400   0.55829   0.00000  Uiso   1.00
H792   H     0.53712   0.62692   0.44076   0.00000  Uiso   1.00
H793   H     0.45830   0.37282   0.55802   0.00000  Uiso   1.00
H794   H     0.56917   0.53664   0.38462   0.00000  Uiso   1.00
H795   H     0.43068   0.46354   0.61537   0.00000  Uiso   1.00
H796   H     0.56905   0.53671   0.63395   0.00000  Uiso   1.00
H797   H     0.43036   0.46400   0.36594   0.00000  Uiso   1.00
H798   H     0.50079   0.40043   0.36621   0.00000  Uiso   1.00
N799   N     0.49999   0.49999   0.61907   0.00000  Uiso   1.00
N800   N     0.50001   0.50001   0.38093   0.00000  Uiso   1.00
O801   O     0.50000   0.43892   0.53821   0.00000  Uiso   1.00
O802   O     0.44858   0.62633   0.56500   0.00000  Uiso   1.00
O803   O     0.50000   0.56108   0.46179   0.00000  Uiso   1.00
O804   O     0.50000   0.43893   0.46176   0.00000  Uiso   1.00
O805   O     0.50000   0.56107   0.53824   0.00000  Uiso   1.00
O806   O     0.42392   0.50000   0.52928   0.00000  Uiso   1.00
O807   O     0.57608   0.50000   0.47072   0.00000  Uiso   1.00
O808   O     0.42392   0.50000   0.45284   0.00000  Uiso   1.00
O809   O     0.57608   0.50000   0.54716   0.00000  Uiso   1.00
O810   O     0.53215   0.37183   0.42520   0.00000  Uiso   1.00
Zn811  Zn    0.50000   0.49999   0.55104   0.00000  Uiso   1.00
Zn812  Zn    0.50000   0.50001   0.44896   0.00000  Uiso   1.00
C813   C     0.83264   0.41994   0.49942   0.00000  Uiso   1.00
C814   C     0.80810   0.35542   0.53203   0.00000  Uiso   1.00
C815   C     0.83029   0.62390   0.49991   0.00000  Uiso   1.00
C816   C     0.82986   0.37566   0.49771   0.00000  Uiso   1.00
C817   C     0.87175   0.52032   0.36244   0.00000  Uiso   1.00
C818   C     0.79478   0.47985   0.63754   0.00000  Uiso   1.00
C819   C     0.87169   0.52036   0.64788   0.00000  Uiso   1.00
C820   C     0.79462   0.48008   0.35206   0.00000  Uiso   1.00
C821   C     0.82249   0.37680   0.38988   0.00000  Uiso   1.00
C822   C     0.80860   0.33644   0.36237   0.00000  Uiso   1.00
C823   C     0.76202   0.34303   0.65864   0.00000  Uiso   1.00
C824   C     0.83281   0.57990   0.50021   0.00000  Uiso   1.00
C825   C     0.73196   0.61065   0.54577   0.00000  Uiso   1.00
C826   C     0.69026   0.64484   0.54251   0.00000  Uiso   1.00
C827   C     0.96853   0.62649   0.53172   0.00000  Uiso   1.00
C828   C     0.73376   0.50016   0.48809   0.00000  Uiso   1.00
C829   C     0.93292   0.50029   0.51192   0.00000  Uiso   1.00
C830   C     0.67875   0.50053   0.48168   0.00000  Uiso   1.00
C831   C     0.98793   0.50075   0.51836   0.00000  Uiso   1.00
C832   C     0.84807   0.35313   0.46211   0.00000  Uiso   1.00
C833   C     0.80551   0.64593   0.53190   0.00000  Uiso   1.00
C834   C     0.85169   0.64409   0.46564   0.00000  Uiso   1.00
H835   H     0.99160   0.50037   0.44685   0.00000  Uiso   1.00
H836   H     0.78699   0.38905   0.40296   0.00000  Uiso   1.00
H837   H     0.84292   0.65911   0.34667   0.00000  Uiso   1.00
H838   H     0.79728   0.64491   0.38467   0.00000  Uiso   1.00
H839   H     0.72779   0.35481   0.34036   0.00000  Uiso   1.00
H840   H     0.75092   0.64607   0.64157   0.00000  Uiso   1.00
H841   H     0.77222   0.36561   0.63328   0.00000  Uiso   1.00
H842   H     0.72132   0.58596   0.56876   0.00000  Uiso   1.00
H843   H     0.73182   0.59549   0.51169   0.00000  Uiso   1.00
H844   H     0.69333   0.66247   0.57523   0.00000  Uiso   1.00
H845   H     0.69654   0.33364   0.51526   0.00000  Uiso   1.00
H846   H     0.67509   0.50103   0.55320   0.00000  Uiso   1.00
H847   H     0.96325   0.61045   0.49789   0.00000  Uiso   1.00
H848   H     0.93966   0.65205   0.53119   0.00000  Uiso   1.00
H849   H     0.96116   0.60400   0.55829   0.00000  Uiso   1.00
H850   H     0.87045   0.62692   0.44076   0.00000  Uiso   1.00
H851   H     0.79163   0.37282   0.55802   0.00000  Uiso   1.00
H852   H     0.90250   0.53664   0.38462   0.00000  Uiso   1.00
H853   H     0.76401   0.46354   0.61537   0.00000  Uiso   1.00
H854   H     0.90239   0.53671   0.63395   0.00000  Uiso   1.00
H855   H     0.76370   0.46400   0.36594   0.00000  Uiso   1.00
H856   H     0.83412   0.40043   0.36621   0.00000  Uiso   1.00
N857   N     0.83332   0.49999   0.61907   0.00000  Uiso   1.00
N858   N     0.83335   0.50001   0.38093   0.00000  Uiso   1.00
O859   O     0.83333   0.43892   0.53821   0.00000  Uiso   1.00
O860   O     0.78191   0.62633   0.56500   0.00000  Uiso   1.00
O861   O     0.83334   0.56108   0.46179   0.00000  Uiso   1.00
O862   O     0.83333   0.43893   0.46176   0.00000  Uiso   1.00
O863   O     0.83334   0.56107   0.53824   0.00000  Uiso   1.00
O864   O     0.75725   0.50000   0.52928   0.00000  Uiso   1.00
O865   O     0.90942   0.50000   0.47072   0.00000  Uiso   1.00
O866   O     0.75725   0.50000   0.45284   0.00000  Uiso   1.00
O867   O     0.90942   0.50000   0.54716   0.00000  Uiso   1.00
O868   O     0.86548   0.37183   0.42520   0.00000  Uiso   1.00
Zn869  Zn    0.83333   0.49999   0.55104   0.00000  Uiso   1.00
Zn870  Zn    0.83333   0.50001   0.44896   0.00000  Uiso   1.00
C871   C     0.16598   0.75328   0.49942   0.00000  Uiso   1.00
C872   C     0.14144   0.68875   0.53203   0.00000  Uiso   1.00
C873   C     0.16363   0.95724   0.49991   0.00000  Uiso   1.00
C874   C     0.16320   0.70900   0.49771   0.00000  Uiso   1.00
C875   C     0.20508   0.85366   0.36244   0.00000  Uiso   1.00
C876   C     0.12811   0.81318   0.63754   0.00000  Uiso   1.00
C877   C     0.20503   0.85370   0.64788   0.00000  Uiso   1.00
C878   C     0.12795   0.81341   0.35206   0.00000  Uiso   1.00
C879   C     0.15582   0.71013   0.38988   0.00000  Uiso   1.00
C880   C     0.14193   0.66978   0.36237   0.00000  Uiso   1.00
C881   C     0.09535   0.67636   0.65864   0.00000  Uiso   1.00
C882   C     0.16614   0.91323   0.50021   0.00000  Uiso   1.00
C883   C     0.06530   0.94399   0.54577   0.00000  Uiso   1.00
C884   C     0.02360   0.97818   0.54251   0.00000  Uiso   1.00
C885   C     0.30186   0.95982   0.53172   0.00000  Uiso   1.00
C886   C     0.06709   0.83350   0.48809   0.00000  Uiso   1.00
C887   C     0.26625   0.83362   0.51192   0.00000  Uiso   1.00
C888   C     0.01209   0.83386   0.48168   0.00000  Uiso   1.00
C889   C     0.32127   0.83408   0.51836   0.00000  Uiso   1.00
C890   C     0.18141   0.68646   0.46211   0.00000  Uiso   1.00
C891   C     0.13884   0.97926   0.53190   0.00000  Uiso   1.00
C892   C     0.18502   0.97742   0.46564   0.00000  Uiso   1.00
H893   H     0.32493   0.83370   0.44685   0.00000  Uiso   1.00
H894   H     0.12033   0.72238   0.40296   0.00000  Uiso   1.00
H895   H     0.17625   0.99245   0.34667   0.00000  Uiso   1.00
H896   H     0.13061   0.97824   0.38467   0.00000  Uiso   1.00
H897   H     0.06112   0.68814   0.34036   0.00000  Uiso   1.00
H898   H     0.08425   0.97940   0.64157   0.00000  Uiso   1.00
H899   H     0.10555   0.69895   0.63328   0.00000  Uiso   1.00
H900   H     0.05465   0.91930   0.56876   0.00000  Uiso   1.00
H901   H     0.06516   0.92882   0.51169   0.00000  Uiso   1.00
H902   H     0.02667   0.99581   0.57523   0.00000  Uiso   1.00
H903   H     0.02987   0.66697   0.51526   0.00000  Uiso   1.00
H904   H     0.00842   0.83436   0.55320   0.00000  Uiso   1.00
H905   H     0.29658   0.94379   0.49789   0.00000  Uiso   1.00
H906   H     0.27299   0.98538   0.53119   0.00000  Uiso   1.00
H907   H     0.29449   0.93733   0.55829   0.00000  Uiso   1.00
H908   H     0.20379   0.96026   0.44076   0.00000  Uiso   1.00
H909   H     0.12496   0.70615   0.55802   0.00000  Uiso   1.00
H910   H     0.23583   0.86997   0.38462   0.00000  Uiso   1.00
H911   H     0.09734   0.79687   0.61537   0.00000  Uiso   1.00
H912   H     0.23572   0.87005   0.63395   0.00000  Uiso   1.00
H913   H     0.09703   0.79733   0.36594   0.00000  Uiso   1.00
H914   H     0.16746   0.73376   0.36621   0.00000  Uiso   1.00
N915   N     0.16665   0.83332   0.61907   0.00000  Uiso   1.00
N916   N     0.16668   0.83334   0.38093   0.00000  Uiso   1.00
O917   O     0.16666   0.77225   0.53821   0.00000  Uiso   1.00
O918   O     0.11524   0.95966   0.56500   0.00000  Uiso   1.00
O919   O     0.16667   0.89442   0.46179   0.00000  Uiso   1.00
O920   O     0.16666   0.77226   0.46176   0.00000  Uiso   1.00
O921   O     0.16667   0.89441   0.53824   0.00000  Uiso   1.00
O922   O     0.09058   0.83333   0.52928   0.00000  Uiso   1.00
O923   O     0.24275   0.83334   0.47072   0.00000  Uiso   1.00
O924   O     0.09058   0.83334   0.45284   0.00000  Uiso   1.00
O925   O     0.24275   0.83333   0.54716   0.00000  Uiso   1.00
O926   O     0.19881   0.70517   0.42520   0.00000  Uiso   1.00
Zn927  Zn    0.16667   0.83333   0.55104   0.00000  Uiso   1.00
Zn928  Zn    0.16667   0.83334   0.44896   0.00000  Uiso   1.00
C929   C     0.49931   0.75328   0.49942   0.00000  Uiso   1.00
C930   C     0.47477   0.68875   0.53203   0.00000  Uiso   1.00
C931   C     0.49696   0.95724   0.49991   0.00000  Uiso   1.00
C932   C     0.49653   0.70900   0.49771   0.00000  Uiso   1.00
C933   C     0.53842   0.85366   0.36244   0.00000  Uiso   1.00
C934   C     0.46144   0.81318   0.63754   0.00000  Uiso   1.00
C935   C     0.53836   0.85370   0.64788   0.00000  Uiso   1.00
C936   C     0.46129   0.81341   0.35206   0.00000  Uiso   1.00
C937   C     0.48915   0.71013   0.38988   0.00000  Uiso   1.00
C938   C     0.47527   0.66978   0.36237   0.00000  Uiso   1.00
C939   C     0.42868   0.67636   0.65864   0.00000  Uiso   1.00
C940   C     0.49947   0.91323   0.50021   0.00000  Uiso   1.00
C941   C     0.39863   0.94399   0.54577   0.00000  Uiso   1.00
C942   C     0.35693   0.97818   0.54251   0.00000  Uiso   1.00
C943   C     0.63519   0.95982   0.53172   0.00000  Uiso   1.00
C944   C     0.40042   0.83350   0.48809   0.00000  Uiso   1.00
C945   C     0.59958   0.83362   0.51192   0.00000  Uiso   1.00
C946   C     0.34542   0.83386   0.48168   0.00000  Uiso   1.00
C947   C     0.65460   0.83408   0.51836   0.00000  Uiso   1.00
C948   C     0.51474   0.68646   0.46211   0.00000  Uiso   1.00
C949   C     0.47217   0.97926   0.53190   0.00000  Uiso   1.00
C950   C     0.51835   0.97742   0.46564   0.00000  Uiso   1.00
H951   H     0.65827   0.83370   0.44685   0.00000  Uiso   1.00
H952   H     0.45366   0.72238   0.40296   0.00000  Uiso   1.00
H953   H     0.50959   0.99245   0.34667   0.00000  Uiso   1.00
H954   H     0.46395   0.97824   0.38467   0.00000  Uiso   1.00
H955   H     0.39445   0.68814   0.34036   0.00000  Uiso   1.00
H956   H     0.41758   0.97940   0.64157   0.00000  Uiso   1.00
H957   H     0.43889   0.69895   0.63328   0.00000  Uiso   1.00
H958   H     0.38798   0.91930   0.56876   0.00000  Uiso   1.00
H959   H     0.39849   0.92882   0.51169   0.00000  Uiso   1.00
H960   H     0.36000   0.99581   0.57523   0.00000  Uiso   1.00
H961   H     0.36320   0.66697   0.51526   0.00000  Uiso   1.00
H962   H     0.34175   0.83436   0.55320   0.00000  Uiso   1.00
H963   H     0.62991   0.94379   0.49789   0.00000  Uiso   1.00
H964   H     0.60632   0.98538   0.53119   0.00000  Uiso   1.00
H965   H     0.62783   0.93733   0.55829   0.00000  Uiso   1.00
H966   H     0.53712   0.96026   0.44076   0.00000  Uiso   1.00
H967   H     0.45830   0.70615   0.55802   0.00000  Uiso   1.00
H968   H     0.56917   0.86997   0.38462   0.00000  Uiso   1.00
H969   H     0.43068   0.79687   0.61537   0.00000  Uiso   1.00
H970   H     0.56905   0.87005   0.63395   0.00000  Uiso   1.00
H971   H     0.43036   0.79733   0.36594   0.00000  Uiso   1.00
H972   H     0.50079   0.73376   0.36621   0.00000  Uiso   1.00
N973   N     0.49999   0.83332   0.61907   0.00000  Uiso   1.00
N974   N     0.50001   0.83334   0.38093   0.00000  Uiso   1.00
O975   O     0.50000   0.77225   0.53821   0.00000  Uiso   1.00
O976   O     0.44858   0.95966   0.56500   0.00000  Uiso   1.00
O977   O     0.50000   0.89442   0.46179   0.00000  Uiso   1.00
O978   O     0.50000   0.77226   0.46176   0.00000  Uiso   1.00
O979   O     0.50000   0.89441   0.53824   0.00000  Uiso   1.00
O980   O     0.42392   0.83333   0.52928   0.00000  Uiso   1.00
O981   O     0.57608   0.83334   0.47072   0.00000  Uiso   1.00
O982   O     0.42392   0.83334   0.45284   0.00000  Uiso   1.00
O983   O     0.57608   0.83333   0.54716   0.00000  Uiso   1.00
O984   O     0.53215   0.70517   0.42520   0.00000  Uiso   1.00
Zn985  Zn    0.50000   0.83333   0.55104   0.00000  Uiso   1.00
Zn986  Zn    0.50000   0.83334   0.44896   0.00000  Uiso   1.00
C987   C     0.83264   0.75328   0.49942   0.00000  Uiso   1.00
C988   C     0.80810   0.68875   0.53203   0.00000  Uiso   1.00
C989   C     0.83029   0.95724   0.49991   0.00000  Uiso   1.00
C990   C     0.82986   0.70900   0.49771   0.00000  Uiso   1.00
C991   C     0.87175   0.85366   0.36244   0.00000  Uiso   1.00
C992   C     0.79478   0.81318   0.63754   0.00000  Uiso   1.00
C993   C     0.87169   0.85370   0.64788   0.00000  Uiso   1.00
C994   C     0.79462   0.81341   0.35206   0.00000  Uiso   1.00
C995   C     0.82249   0.71013   0.38988   0.00000  Uiso   1.00
C996   C     0.80860   0.66978   0.36237   0.00000  Uiso   1.00
C997   C     0.76202   0.67636   0.65864   0.00000  Uiso   1.00
C998   C     0.83281   0.91323   0.50021   0.00000  Uiso   1.00
C999   C     0.73196   0.94399   0.54577   0.00000  Uiso   1.00
C1000  C     0.69026   0.97818   0.54251   0.00000  Uiso   1.00
C1001  C     0.96853   0.95982   0.53172   0.00000  Uiso   1.00
C1002  C     0.73376   0.83350   0.48809   0.00000  Uiso   1.00
C1003  C     0.93292   0.83362   0.51192   0.00000  Uiso   1.00
C1004  C     0.67875   0.83386   0.48168   0.00000  Uiso   1.00
C1005  C     0.98793   0.83408   0.51836   0.00000  Uiso   1.00
C1006  C     0.84807   0.68646   0.46211   0.00000  Uiso   1.00
C1007  C     0.80551   0.97926   0.53190   0.00000  Uiso   1.00
C1008  C     0.85169   0.97742   0.46564   0.00000  Uiso   1.00
H1009  H     0.99160   0.83370   0.44685   0.00000  Uiso   1.00
H1010  H     0.78699   0.72238   0.40296   0.00000  Uiso   1.00
H1011  H     0.84292   0.99245   0.34667   0.00000  Uiso   1.00
H1012  H     0.79728   0.97824   0.38467   0.00000  Uiso   1.00
H1013  H     0.72779   0.68814   0.34036   0.00000  Uiso   1.00
H1014  H     0.75092   0.97940   0.64157   0.00000  Uiso   1.00
H1015  H     0.77222   0.69895   0.63328   0.00000  Uiso   1.00
H1016  H     0.72132   0.91930   0.56876   0.00000  Uiso   1.00
H1017  H     0.73182   0.92882   0.51169   0.00000  Uiso   1.00
H1018  H     0.69333   0.99581   0.57523   0.00000  Uiso   1.00
H1019  H     0.69654   0.66697   0.51526   0.00000  Uiso   1.00
H1020  H     0.67509   0.83436   0.55320   0.00000  Uiso   1.00
H1021  H     0.96325   0.94379   0.49789   0.00000  Uiso   1.00
H1022  H     0.93966   0.98538   0.53119   0.00000  Uiso   1.00
H1023  H     0.96116   0.93733   0.55829   0.00000  Uiso   1.00
H1024  H     0.87045   0.96026   0.44076   0.00000  Uiso   1.00
H1025  H     0.79163   0.70615   0.55802   0.00000  Uiso   1.00
H1026  H     0.90250   0.86997   0.38462   0.00000  Uiso   1.00
H1027  H     0.76401   0.79687   0.61537   0.00000  Uiso   1.00
H1028  H     0.90239   0.87005   0.63395   0.00000  Uiso   1.00
H1029  H     0.76370   0.79733   0.36594   0.00000  Uiso   1.00
H1030  H     0.83412   0.73376   0.36621   0.00000  Uiso   1.00
N1031  N     0.83332   0.83332   0.61907   0.00000  Uiso   1.00
N1032  N     0.83335   0.83334   0.38093   0.00000  Uiso   1.00
O1033  O     0.83333   0.77225   0.53821   0.00000  Uiso   1.00
O1034  O     0.78191   0.95966   0.56500   0.00000  Uiso   1.00
O1035  O     0.83334   0.89442   0.46179   0.00000  Uiso   1.00
O1036  O     0.83333   0.77226   0.46176   0.00000  Uiso   1.00
O1037  O     0.83334   0.89441   0.53824   0.00000  Uiso   1.00
O1038  O     0.75725   0.83333   0.52928   0.00000  Uiso   1.00
O1039  O     0.90942   0.83334   0.47072   0.00000  Uiso   1.00
O1040  O     0.75725   0.83334   0.45284   0.00000  Uiso   1.00
O1041  O     0.90942   0.83333   0.54716   0.00000  Uiso   1.00
O1042  O     0.86548   0.70517   0.42520   0.00000  Uiso   1.00
Zn1043 Zn    0.83333   0.83333   0.55104   0.00000  Uiso   1.00
Zn1044 Zn    0.83333   0.83334   0.44896   0.00000  Uiso   1.00
C1045  C     0.16598   0.08661   0.83276   0.00000  Uiso   1.00
C1046  C     0.14144   0.02209   0.86536   0.00000  Uiso   1.00
C1047  C     0.16363   0.29057   0.83325   0.00000  Uiso   1.00
C1048  C     0.16320   0.04233   0.83105   0.00000  Uiso   1.00
C1049  C     0.20508   0.18699   0.69577   0.00000  Uiso   1.00
C1050  C     0.12811   0.14651   0.97088   0.00000  Uiso   1.00
C1051  C     0.20503   0.18703   0.98122   0.00000  Uiso   1.00
C1052  C     0.12795   0.14675   0.68540   0.00000  Uiso   1.00
C1053  C     0.15582   0.04346   0.72321   0.00000  Uiso   1.00
C1054  C     0.14193   0.00311   0.69570   0.00000  Uiso   1.00
C1055  C     0.09535   0.00970   0.99198   0.00000  Uiso   1.00
C1056  C     0.16614   0.24657   0.83355   0.00000  Uiso   1.00
C1057  C     0.06530   0.27732   0.87910   0.00000  Uiso   1.00
C1058  C     0.02360   0.31151   0.87585   0.00000  Uiso   1.00
C1059  C     0.30186   0.29316   0.86505   0.00000  Uiso   1.00
C1060  C     0.06709   0.16683   0.82142   0.00000  Uiso   1.00
C1061  C     0.26625   0.16695   0.84525   0.00000  Uiso   1.00
C1062  C     0.01209   0.16720   0.81501   0.00000  Uiso   1.00
C1063  C     0.32127   0.16741   0.85169   0.00000  Uiso   1.00
C1064  C     0.18141   0.01979   0.79545   0.00000  Uiso   1.00
C1065  C     0.13884   0.31260   0.86524   0.00000  Uiso   1.00
C1066  C     0.18502   0.31075   0.79897   0.00000  Uiso   1.00
H1067  H     0.32493   0.16704   0.78018   0.00000  Uiso   1.00
H1068  H     0.12033   0.05571   0.73630   0.00000  Uiso   1.00
H1069  H     0.17625   0.32578   0.68000   0.00000  Uiso   1.00
H1070  H     0.13061   0.31158   0.71800   0.00000  Uiso   1.00
H1071  H     0.06112   0.02147   0.67369   0.00000  Uiso   1.00
H1072  H     0.08425   0.31273   0.97491   0.00000  Uiso   1.00
H1073  H     0.10555   0.03228   0.96661   0.00000  Uiso   1.00
H1074  H     0.05465   0.25263   0.90209   0.00000  Uiso   1.00
H1075  H     0.06516   0.26216   0.84503   0.00000  Uiso   1.00
H1076  H     0.02667   0.32914   0.90856   0.00000  Uiso   1.00
H1077  H     0.02987   0.00031   0.84860   0.00000  Uiso   1.00
H1078  H     0.00842   0.16770   0.88653   0.00000  Uiso   1.00
H1079  H     0.29658   0.27712   0.83122   0.00000  Uiso   1.00
H1080  H     0.27299   0.31871   0.86453   0.00000  Uiso   1.00
H1081  H     0.29449   0.27067   0.89162   0.00000  Uiso   1.00
H1082  H     0.20379   0.29359   0.77410   0.00000  Uiso   1.00
H1083  H     0.12496   0.03948   0.89136   0.00000  Uiso   1.00
H1084  H     0.23583   0.20330   0.71795   0.00000  Uiso   1.00
H1085  H     0.09734   0.13021   0.94871   0.00000  Uiso   1.00
H1086  H     0.23572   0.20338   0.96729   0.00000  Uiso   1.00
H1087  H     0.09703   0.13066   0.69928   0.00000  Uiso   1.00
H1088  H     0.16746   0.06710   0.69955   0.00000  Uiso   1.00
N1089  N     0.16665   0.16666   0.95240   0.00000  Uiso   1.00
N1090  N     0.16668   0.16668   0.71427   0.00000  Uiso   1.00
O1091  O     0.16666   0.10558   0.87154   0.00000  Uiso   1.00
O1092  O     0.11524   0.29299   0.89833   0.00000  Uiso   1.00
O1093  O     0.16667   0.22775   0.79513   0.00000  Uiso   1.00
O1094  O     0.16666   0.10559   0.79510   0.00000  Uiso   1.00
O1095  O     0.16667   0.22774   0.87157   0.00000  Uiso   1.00
O1096  O     0.09058   0.16666   0.86261   0.00000  Uiso   1.00
O1097  O     0.24275   0.16667   0.80405   0.00000  Uiso   1.00
O1098  O     0.09058   0.16667   0.78617   0.00000  Uiso   1.00
O1099  O     0.24275   0.16666   0.88050   0.00000  Uiso   1.00
O1100  O     0.19881   0.03850   0.75853   0.00000  Uiso   1.00
Zn1101 Zn    0.16667   0.16666   0.88437   0.00000  Uiso   1.00
Zn1102 Zn    0.16667   0.16667   0.78229   0.00000  Uiso   1.00
C1103  C     0.49931   0.08661   0.83276   0.00000  Uiso   1.00
C1104  C     0.47477   0.02209   0.86536   0.00000  Uiso   1.00
C1105  C     0.49696   0.29057   0.83325   0.00000  Uiso   1.00
C1106  C     0.49653   0.04233   0.83105   0.00000  Uiso   1.00
C1107  C     0.53842   0.18699   0.69577   0.00000  Uiso   1.00
C1108  C     0.46144   0.14651   0.97088   0.00000  Uiso   1.00
C1109  C     0.53836   0.18703   0.98122   0.00000  Uiso   1.00
C1110  C     0.46129   0.14675   0.68540   0.00000  Uiso   1.00
C1111  C     0.48915   0.04346   0.72321   0.00000  Uiso   1.00
C1112  C     0.47527   0.00311   0.69570   0.00000  Uiso   1.00
C1113  C     0.42868   0.00970   0.99198   0.00000  Uiso   1.00
C1114  C     0.49947   0.24657   0.83355   0.00000  Uiso   1.00
C1115  C     0.39863   0.27732   0.87910   0.00000  Uiso   1.00
C1116  C     0.35693   0.31151   0.87585   0.00000  Uiso   1.00
C1117  C     0.63519   0.29316   0.86505   0.00000  Uiso   1.00
C1118  C     0.40042   0.16683   0.82142   0.00000  Uiso   1.00
C1119  C     0.59958   0.16695   0.84525   0.00000  Uiso   1.00
C1120  C     0.34542   0.16720   0.81501   0.00000  Uiso   1.00
C1121  C     0.65460   0.16741   0.85169   0.00000  Uiso   1.00
C1122  C     0.51474   0.01979   0.79545   0.00000  Uiso   1.00
C1123  C     0.47217   0.31260   0.86524   0.00000  Uiso   1.00
C1124  C     0.51835   0.31075   0.79897   0.00000  Uiso   1.00
H1125  H     0.65827   0.16704   0.78018   0.00000  Uiso   1.00
H1126  H     0.45366   0.05571   0.73630   0.00000  Uiso   1.00
H1127  H     0.50959   0.32578   0.68000   0.00000  Uiso   1.00
H1128  H     0.46395   0.31158   0.71800   0.00000  Uiso   1.00
H1129  H     0.39445   0.02147   0.67369   0.00000  Uiso   1.00
H1130  H     0.41758   0.31273   0.97491   0.00000  Uiso   1.00
H1131  H     0.43889   0.03228   0.96661   0.00000  Uiso   1.00
H1132  H     0.38798   0.25263   0.90209   0.00000  Uiso   1.00
H1133  H     0.39849   0.26216   0.84503   0.00000  Uiso   1.00
H1134  H     0.36000   0.32914   0.90856   0.00000  Uiso   1.00
H1135  H     0.36320   0.00031   0.84860   0.00000  Uiso   1.00
H1136  H     0.34175   0.16770   0.88653   0.00000  Uiso   1.00
H1137  H     0.62991   0.27712   0.83122   0.00000  Uiso   1.00
H1138  H     0.60632   0.31871   0.86453   0.00000  Uiso   1.00
H1139  H     0.62783   0.27067   0.89162   0.00000  Uiso   1.00
H1140  H     0.53712   0.29359   0.77410   0.00000  Uiso   1.00
H1141  H     0.45830   0.03948   0.89136   0.00000  Uiso   1.00
H1142  H     0.56917   0.20330   0.71795   0.00000  Uiso   1.00
H1143  H     0.43068   0.13021   0.94871   0.00000  Uiso   1.00
H1144  H     0.56905   0.20338   0.96729   0.00000  Uiso   1.00
H1145  H     0.43036   0.13066   0.69928   0.00000  Uiso   1.00
H1146  H     0.50079   0.06710   0.69955   0.00000  Uiso   1.00
N1147  N     0.49999   0.16666   0.95240   0.00000  Uiso   1.00
N1148  N     0.50001   0.16668   0.71427   0.00000  Uiso   1.00
O1149  O     0.50000   0.10558   0.87154   0.00000  Uiso   1.00
O1150  O     0.44858   0.29299   0.89833   0.00000  Uiso   1.00
O1151  O     0.50000   0.22775   0.79513   0.00000  Uiso   1.00
O1152  O     0.50000   0.10559   0.79510   0.00000  Uiso   1.00
O1153  O     0.50000   0.22774   0.87157   0.00000  Uiso   1.00
O1154  O     0.42392   0.16666   0.86261   0.00000  Uiso   1.00
O1155  O     0.57608   0.16667   0.80405   0.00000  Uiso   1.00
O1156  O     0.42392   0.16667   0.78617   0.00000  Uiso   1.00
O1157  O     0.57608   0.16666   0.88050   0.00000  Uiso   1.00
O1158  O     0.53215   0.03850   0.75853   0.00000  Uiso   1.00
Zn1159 Zn    0.50000   0.16666   0.88437   0.00000  Uiso   1.00
Zn1160 Zn    0.50000   0.16667   0.78229   0.00000  Uiso   1.00
C1161  C     0.83264   0.08661   0.83276   0.00000  Uiso   1.00
C1162  C     0.80810   0.02209   0.86536   0.00000  Uiso   1.00
C1163  C     0.83029   0.29057   0.83325   0.00000  Uiso   1.00
C1164  C     0.82986   0.04233   0.83105   0.00000  Uiso   1.00
C1165  C     0.87175   0.18699   0.69577   0.00000  Uiso   1.00
C1166  C     0.79478   0.14651   0.97088   0.00000  Uiso   1.00
C1167  C     0.87169   0.18703   0.98122   0.00000  Uiso   1.00
C1168  C     0.79462   0.14675   0.68540   0.00000  Uiso   1.00
C1169  C     0.82249   0.04346   0.72321   0.00000  Uiso   1.00
C1170  C     0.80860   0.00311   0.69570   0.00000  Uiso   1.00
C1171  C     0.76202   0.00970   0.99198   0.00000  Uiso   1.00
C1172  C     0.83281   0.24657   0.83355   0.00000  Uiso   1.00
C1173  C     0.73196   0.27732   0.87910   0.00000  Uiso   1.00
C1174  C     0.69026   0.31151   0.87585   0.00000  Uiso   1.00
C1175  C     0.96853   0.29316   0.86505   0.00000  Uiso   1.00
C1176  C     0.73376   0.16683   0.82142   0.00000  Uiso   1.00
C1177  C     0.93292   0.16695   0.84525   0.00000  Uiso   1.00
C1178  C     0.67875   0.16720   0.81501   0.00000  Uiso   1.00
C1179  C     0.98793   0.16741   0.85169   0.00000  Uiso   1.00
C1180  C     0.84807   0.01979   0.79545   0.00000  Uiso   1.00
C1181  C     0.80551   0.31260   0.86524   0.00000  Uiso   1.00
C1182  C     0.85169   0.31075   0.79897   0.00000  Uiso   1.00
H1183  H     0.99160   0.16704   0.78018   0.00000  Uiso   1.00
H1184  H     0.78699   0.05571   0.73630   0.00000  Uiso   1.00
H1185  H     0.84292   0.32578   0.68000   0.00000  Uiso   1.00
H1186  H     0.79728   0.31158   0.71800   0.00000  Uiso   1.00
H1187  H     0.72779   0.02147   0.67369   0.00000  Uiso   1.00
H1188  H     0.75092   0.31273   0.97491   0.00000  Uiso   1.00
H1189  H     0.77222   0.03228   0.96661   0.00000  Uiso   1.00
H1190  H     0.72132   0.25263   0.90209   0.00000  Uiso   1.00
H1191  H     0.73182   0.26216   0.84503   0.00000  Uiso   1.00
H1192  H     0.69333   0.32914   0.90856   0.00000  Uiso   1.00
H1193  H     0.69654   0.00031   0.84860   0.00000  Uiso   1.00
H1194  H     0.67509   0.16770   0.88653   0.00000  Uiso   1.00
H1195  H     0.96325   0.27712   0.83122   0.00000  Uiso   1.00
H1196  H     0.93966   0.31871   0.86453   0.00000  Uiso   1.00
H1197  H     0.96116   0.27067   0.89162   0.00000  Uiso   1.00
H1198  H     0.87045   0.29359   0.77410   0.00000  Uiso   1.00
H1199  H     0.79163   0.03948   0.89136   0.00000  Uiso   1.00
H1200  H     0.90250   0.20330   0.71795   0.00000  Uiso   1.00
H1201  H     0.76401   0.13021   0.94871   0.00000  Uiso   1.00
H1202  H     0.90239   0.20338   0.96729   0.00000  Uiso   1.00
H1203  H     0.76370   0.13066   0.69928   0.00000  Uiso   1.00
H1204  H     0.83412   0.06710   0.69955   0.00000  Uiso   1.00
N1205  N     0.83332   0.16666   0.95240   0.00000  Uiso   1.00
N1206  N     0.83335   0.16668   0.71427   0.00000  Uiso   1.00
O1207  O     0.83333   0.10558   0.87154   0.00000  Uiso   1.00
O1208  O     0.78191   0.29299   0.89833   0.00000  Uiso   1.00
O1209  O     0.83334   0.22775   0.79513   0.00000  Uiso   1.00
O1210  O     0.83333   0.10559   0.79510   0.00000  Uiso   1.00
O1211  O     0.83334   0.22774   0.87157   0.00000  Uiso   1.00
O1212  O     0.75725   0.16666   0.86261   0.00000  Uiso   1.00
O1213  O     0.90942   0.16667   0.80405   0.00000  Uiso   1.00
O1214  O     0.75725   0.16667   0.78617   0.00000  Uiso   1.00
O1215  O     0.90942   0.16666   0.88050   0.00000  Uiso   1.00
O1216  O     0.86548   0.03850   0.75853   0.00000  Uiso   1.00
Zn1217 Zn    0.83333   0.16666   0.88437   0.00000  Uiso   1.00
Zn1218 Zn    0.83333   0.16667   0.78229   0.00000  Uiso   1.00
C1219  C     0.16598   0.41994   0.83276   0.00000  Uiso   1.00
C1220  C     0.14144   0.35542   0.86536   0.00000  Uiso   1.00
C1221  C     0.16363   0.62390   0.83325   0.00000  Uiso   1.00
C1222  C     0.16320   0.37566   0.83105   0.00000  Uiso   1.00
C1223  C     0.20508   0.52032   0.69577   0.00000  Uiso   1.00
C1224  C     0.12811   0.47985   0.97088   0.00000  Uiso   1.00
C1225  C     0.20503   0.52036   0.98122   0.00000  Uiso   1.00
C1226  C     0.12795   0.48008   0.68540   0.00000  Uiso   1.00
C1227  C     0.15582   0.37680   0.72321   0.00000  Uiso   1.00
C1228  C     0.14193   0.33644   0.69570   0.00000  Uiso   1.00
C1229  C     0.09535   0.34303   0.99198   0.00000  Uiso   1.00
C1230  C     0.16614   0.57990   0.83355   0.00000  Uiso   1.00
C1231  C     0.06530   0.61065   0.87910   0.00000  Uiso   1.00
C1232  C     0.02360   0.64484   0.87585   0.00000  Uiso   1.00
C1233  C     0.30186   0.62649   0.86505   0.00000  Uiso   1.00
C1234  C     0.06709   0.50016   0.82142   0.00000  Uiso   1.00
C1235  C     0.26625   0.50029   0.84525   0.00000  Uiso   1.00
C1236  C     0.01209   0.50053   0.81501   0.00000  Uiso   1.00
C1237  C     0.32127   0.50075   0.85169   0.00000  Uiso   1.00
C1238  C     0.18141   0.35313   0.79545   0.00000  Uiso   1.00
C1239  C     0.13884   0.64593   0.86524   0.00000  Uiso   1.00
C1240  C     0.18502   0.64409   0.79897   0.00000  Uiso   1.00
H1241  H     0.32493   0.50037   0.78018   0.00000  Uiso   1.00
H1242  H     0.12033   0.38905   0.73630   0.00000  Uiso   1.00
H1243  H     0.17625   0.65911   0.68000   0.00000  Uiso   1.00
H1244  H     0.13061   0.64491   0.71800   0.00000  Uiso   1.00
H1245  H     0.06112   0.35481   0.67369   0.00000  Uiso   1.00
H1246  H     0.08425   0.64607   0.97491   0.00000  Uiso   1.00
H1247  H     0.10555   0.36561   0.96661   0.00000  Uiso   1.00
H1248  H     0.05465   0.58596   0.90209   0.00000  Uiso   1.00
H1249  H     0.06516   0.59549   0.84503   0.00000  Uiso   1.00
H1250  H     0.02667   0.66247   0.90856   0.00000  Uiso   1.00
H1251  H     0.02987   0.33364   0.84860   0.00000  Uiso   1.00
H1252  H     0.00842   0.50103   0.88653   0.00000  Uiso   1.00
H1253  H     0.29658   0.61045   0.83122   0.00000  Uiso   1.00
H1254  H     0.27299   0.65205   0.86453   0.00000  Uiso   1.00
H1255  H     0.29449   0.60400   0.89162   0.00000  Uiso   1.00
H1256  H     0.20379   0.62692   0.77410   0.00000  Uiso   1.00
H1257  H     0.12496   0.37282   0.89136   0.00000  Uiso   1.00
H1258  H     0.23583   0.53664   0.71795   0.00000  Uiso   1.00
H1259  H     0.09734   0.46354   0.94871   0.00000  Uiso   1.00
H1260  H     0.23572   0.53671   0.96729   0.00000  Uiso   1.00
H1261  H     0.09703   0.46400   0.69928   0.00000  Uiso   1.00
H1262  H     0.16746   0.40043   0.69955   0.00000  Uiso   1.00
N1263  N     0.16665   0.49999   0.95240   0.00000  Uiso   1.00
N1264  N     0.16668   0.50001   0.71427   0.00000  Uiso   1.00
O1265  O     0.16666   0.43892   0.87154   0.00000  Uiso   1.00
O1266  O     0.11524   0.62633   0.89833   0.00000  Uiso   1.00
O1267  O     0.16667   0.56108   0.79513   0.00000  Uiso   1.00
O1268  O     0.16666   0.43893   0.79510   0.00000  Uiso   1.00
O1269  O     0.16667   0.56107   0.87157   0.00000  Uiso   1.00
O1270  O     0.09058   0.50000   0.86261   0.00000  Uiso   1.00
O1271  O     0.24275   0.50000   0.80405   0.00000  Uiso   1.00
O1272  O     0.09058   0.50000   0.78617   0.00000  Uiso   1.00
O1273  O     0.24275   0.50000   0.88050   0.00000  Uiso   1.00
O1274  O     0.19881   0.37183   0.75853   0.00000  Uiso   1.00
Zn1275 Zn    0.16667   0.49999   0.88437   0.00000  Uiso   1.00
Zn1276 Zn    0.16667   0.50001   0.78229   0.00000  Uiso   1.00
C1277  C     0.49931   0.41994   0.83276   0.00000  Uiso   1.00
C1278  C     0.47477   0.35542   0.86536   0.00000  Uiso   1.00
C1279  C     0.49696   0.62390   0.83325   0.00000  Uiso   1.00
C1280  C     0.49653   0.37566   0.83105   0.00000  Uiso   1.00
C1281  C     0.53842   0.52032   0.69577   0.00000  Uiso   1.00
C1282  C     0.46144   0.47985   0.97088   0.00000  Uiso   1.00
C1283  C     0.53836   0.52036   0.98122   0.00000  Uiso   1.00
C1284  C     0.46129   0.48008   0.68540   0.00000  Uiso   1.00
C1285  C     0.48915   0.37680   0.72321   0.00000  Uiso   1.00
C1286  C     0.47527   0.33644   0.69570   0.00000  Uiso   1.00
C1287  C     0.42868   0.34303   0.99198   0.00000  Uiso   1.00
C1288  C     0.49947   0.57990   0.83355   0.00000  Uiso   1.00
C1289  C     0.39863   0.61065   0.87910   0.00000  Uiso   1.00
C1290  C     0.35693   0.64484   0.87585   0.00000  Uiso   1.00
C1291  C     0.63519   0.62649   0.86505   0.00000  Uiso   1.00
C1292  C     0.40042   0.50016   0.82142   0.00000  Uiso   1.00
C1293  C     0.59958   0.50029   0.84525   0.00000  Uiso   1.00
C1294  C     0.34542   0.50053   0.81501   0.00000  Uiso   1.00
C1295  C     0.65460   0.50075   0.85169   0.00000  Uiso   1.00
C1296  C     0.51474   0.35313   0.79545   0.00000  Uiso   1.00
C1297  C     0.47217   0.64593   0.86524   0.00000  Uiso   1.00
C1298  C     0.51835   0.64409   0.79897   0.00000  Uiso   1.00
H1299  H     0.65827   0.50037   0.78018   0.00000  Uiso   1.00
H1300  H     0.45366   0.38905   0.73630   0.00000  Uiso   1.00
H1301  H     0.50959   0.65911   0.68000   0.00000  Uiso   1.00
H1302  H     0.46395   0.64491   0.71800   0.00000  Uiso   1.00
H1303  H     0.39445   0.35481   0.67369   0.00000  Uiso   1.00
H1304  H     0.41758   0.64607   0.97491   0.00000  Uiso   1.00
H1305  H     0.43889   0.36561   0.96661   0.00000  Uiso   1.00
H1306  H     0.38798   0.58596   0.90209   0.00000  Uiso   1.00
H1307  H     0.39849   0.59549   0.84503   0.00000  Uiso   1.00
H1308  H     0.36000   0.66247   0.90856   0.00000  Uiso   1.00
H1309  H     0.36320   0.33364   0.84860   0.00000  Uiso   1.00
H1310  H     0.34175   0.50103   0.88653   0.00000  Uiso   1.00
H1311  H     0.62991   0.61045   0.83122   0.00000  Uiso   1.00
H1312  H     0.60632   0.65205   0.86453   0.00000  Uiso   1.00
H1313  H     0.62783   0.60400   0.89162   0.00000  Uiso   1.00
H1314  H     0.53712   0.62692   0.77410   0.00000  Uiso   1.00
H1315  H     0.45830   0.37282   0.89136   0.00000  Uiso   1.00
H1316  H     0.56917   0.53664   0.71795   0.00000  Uiso   1.00
H1317  H     0.43068   0.46354   0.94871   0.00000  Uiso   1.00
H1318  H     0.56905   0.53671   0.96729   0.00000  Uiso   1.00
H1319  H     0.43036   0.46400   0.69928   0.00000  Uiso   1.00
H1320  H     0.50079   0.40043   0.69955   0.00000  Uiso   1.00
N1321  N     0.49999   0.49999   0.95240   0.00000  Uiso   1.00
N1322  N     0.50001   0.50001   0.71427   0.00000  Uiso   1.00
O1323  O     0.50000   0.43892   0.87154   0.00000  Uiso   1.00
O1324  O     0.44858   0.62633   0.89833   0.00000  Uiso   1.00
O1325  O     0.50000   0.56108   0.79513   0.00000  Uiso   1.00
O1326  O     0.50000   0.43893   0.79510   0.00000  Uiso   1.00
O1327  O     0.50000   0.56107   0.87157   0.00000  Uiso   1.00
O1328  O     0.42392   0.50000   0.86261   0.00000  Uiso   1.00
O1329  O     0.57608   0.50000   0.80405   0.00000  Uiso   1.00
O1330  O     0.42392   0.50000   0.78617   0.00000  Uiso   1.00
O1331  O     0.57608   0.50000   0.88050   0.00000  Uiso   1.00
O1332  O     0.53215   0.37183   0.75853   0.00000  Uiso   1.00
Zn1333 Zn    0.50000   0.49999   0.88437   0.00000  Uiso   1.00
Zn1334 Zn    0.50000   0.50001   0.78229   0.00000  Uiso   1.00
C1335  C     0.83264   0.41994   0.83276   0.00000  Uiso   1.00
C1336  C     0.80810   0.35542   0.86536   0.00000  Uiso   1.00
C1337  C     0.83029   0.62390   0.83325   0.00000  Uiso   1.00
C1338  C     0.82986   0.37566   0.83105   0.00000  Uiso   1.00
C1339  C     0.87175   0.52032   0.69577   0.00000  Uiso   1.00
C1340  C     0.79478   0.47985   0.97088   0.00000  Uiso   1.00
C1341  C     0.87169   0.52036   0.98122   0.00000  Uiso   1.00
C1342  C     0.79462   0.48008   0.68540   0.00000  Uiso   1.00
C1343  C     0.82249   0.37680   0.72321   0.00000  Uiso   1.00
C1344  C     0.80860   0.33644   0.69570   0.00000  Uiso   1.00
C1345  C     0.76202   0.34303   0.99198   0.00000  Uiso   1.00
C1346  C     0.83281   0.57990   0.83355   0.00000  Uiso   1.00
C1347  C     0.73196   0.61065   0.87910   0.00000  Uiso   1.00
C1348  C     0.69026   0.64484   0.87585   0.00000  Uiso   1.00
C1349  C     0.96853   0.62649   0.86505   0.00000  Uiso   1.00
C1350  C     0.73376   0.50016   0.82142   0.00000  Uiso   1.00
C1351  C     0.93292   0.50029   0.84525   0.00000  Uiso   1.00
C1352  C     0.67875   0.50053   0.81501   0.00000  Uiso   1.00
C1353  C     0.98793   0.50075   0.85169   0.00000  Uiso   1.00
C1354  C     0.84807   0.35313   0.79545   0.00000  Uiso   1.00
C1355  C     0.80551   0.64593   0.86524   0.00000  Uiso   1.00
C1356  C     0.85169   0.64409   0.79897   0.00000  Uiso   1.00
H1357  H     0.99160   0.50037   0.78018   0.00000  Uiso   1.00
H1358  H     0.78699   0.38905   0.73630   0.00000  Uiso   1.00
H1359  H     0.84292   0.65911   0.68000   0.00000  Uiso   1.00
H1360  H     0.79728   0.64491   0.71800   0.00000  Uiso   1.00
H1361  H     0.72779   0.35481   0.67369   0.00000  Uiso   1.00
H1362  H     0.75092   0.64607   0.97491   0.00000  Uiso   1.00
H1363  H     0.77222   0.36561   0.96661   0.00000  Uiso   1.00
H1364  H     0.72132   0.58596   0.90209   0.00000  Uiso   1.00
H1365  H     0.73182   0.59549   0.84503   0.00000  Uiso   1.00
H1366  H     0.69333   0.66247   0.90856   0.00000  Uiso   1.00
H1367  H     0.69654   0.33364   0.84860   0.00000  Uiso   1.00
H1368  H     0.67509   0.50103   0.88653   0.00000  Uiso   1.00
H1369  H     0.96325   0.61045   0.83122   0.00000  Uiso   1.00
H1370  H     0.93966   0.65205   0.86453   0.00000  Uiso   1.00
H1371  H     0.96116   0.60400   0.89162   0.00000  Uiso   1.00
H1372  H     0.87045   0.62692   0.77410   0.00000  Uiso   1.00
H1373  H     0.79163   0.37282   0.89136   0.00000  Uiso   1.00
H1374  H     0.90250   0.53664   0.71795   0.00000  Uiso   1.00
H1375  H     0.76401   0.46354   0.94871   0.00000  Uiso   1.00
H1376  H     0.90239   0.53671   0.96729   0.00000  Uiso   1.00
H1377  H     0.76370   0.46400   0.69928   0.00000  Uiso   1.00
H1378  H     0.83412   0.40043   0.69955   0.00000  Uiso   1.00
N1379  N     0.83332   0.49999   0.95240   0.00000  Uiso   1.00
N1380  N     0.83335   0.50001   0.71427   0.00000  Uiso   1.00
O1381  O     0.83333   0.43892   0.87154   0.00000  Uiso   1.00
O1382  O     0.78191   0.62633   0.89833   0.00000  Uiso   1.00
O1383  O     0.83334   0.56108   0.79513   0.00000  Uiso   1.00
O1384  O     0.83333   0.43893   0.79510   0.00000  Uiso   1.00
O1385  O     0.83334   0.56107   0.87157   0.00000  Uiso   1.00
O1386  O     0.75725   0.50000   0.86261   0.00000  Uiso   1.00
O1387  O     0.90942   0.50000   0.80405   0.00000  Uiso   1.00
O1388  O     0.75725   0.50000   0.78617   0.00000  Uiso   1.00
O1389  O     0.90942   0.50000   0.88050   0.00000  Uiso   1.00
O1390  O     0.86548   0.37183   0.75853   0.00000  Uiso   1.00
Zn1391 Zn    0.83333   0.49999   0.88437   0.00000  Uiso   1.00
Zn1392 Zn    0.83333   0.50001   0.78229   0.00000  Uiso   1.00
C1393  C     0.16598   0.75328   0.83276   0.00000  Uiso   1.00
C1394  C     0.14144   0.68875   0.86536   0.00000  Uiso   1.00
C1395  C     0.16363   0.95724   0.83325   0.00000  Uiso   1.00
C1396  C     0.16320   0.70900   0.83105   0.00000  Uiso   1.00
C1397  C     0.20508   0.85366   0.69577   0.00000  Uiso   1.00
C1398  C     0.12811   0.81318   0.97088   0.00000  Uiso   1.00
C1399  C     0.20503   0.85370   0.98122   0.00000  Uiso   1.00
C1400  C     0.12795   0.81341   0.68540   0.00000  Uiso   1.00
C1401  C     0.15582   0.71013   0.72321   0.00000  Uiso   1.00
C1402  C     0.14193   0.66978   0.69570   0.00000  Uiso   1.00
C1403  C     0.09535   0.67636   0.99198   0.00000  Uiso   1.00
C1404  C     0.16614   0.91323   0.83355   0.00000  Uiso   1.00
C1405  C     0.06530   0.94399   0.87910   0.00000  Uiso   1.00
C1406  C     0.02360   0.97818   0.87585   0.00000  Uiso   1.00
C1407  C     0.30186   0.95982   0.86505   0.00000  Uiso   1.00
C1408  C     0.06709   0.83350   0.82142   0.00000  Uiso   1.00
C1409  C     0.26625   0.83362   0.84525   0.00000  Uiso   1.00
C1410  C     0.01209   0.83386   0.81501   0.00000  Uiso   1.00
C1411  C     0.32127   0.83408   0.85169   0.00000  Uiso   1.00
C1412  C     0.18141   0.68646   0.79545   0.00000  Uiso   1.00
C1413  C     0.13884   0.97926   0.86524   0.00000  Uiso   1.00
C1414  C     0.18502   0.97742   0.79897   0.00000  Uiso   1.00
H1415  H     0.32493   0.83370   0.78018   0.00000  Uiso   1.00
H1416  H     0.12033   0.72238   0.73630   0.00000  Uiso   1.00
H1417  H     0.17625   0.99245   0.68000   0.00000  Uiso   1.00
H1418  H     0.13061   0.97824   0.71800   0.00000  Uiso   1.00
H1419  H     0.06112   0.68814   0.67369   0.00000  Uiso   1.00
H1420  H     0.08425   0.97940   0.97491   0.00000  Uiso   1.00
H1421  H     0.10555   0.69895   0.96661   0.00000  Uiso   1.00
H1422  H     0.05465   0.91930   0.90209   0.00000  Uiso   1.00
H1423  H     0.06516   0.92882   0.84503   0.00000  Uiso   1.00
H1424  H     0.02667   0.99581   0.90856   0.00000  Uiso   1.00
H1425  H     0.02987   0.66697   0.84860   0.00000  Uiso   1.00
H1426  H     0.00842   0.83436   0.88653   0.00000  Uiso   1.00
H1427  H     0.29658   0.94379   0.83122   0.00000  Uiso   1.00
H1428  H     0.27299   0.98538   0.86453   0.00000  Uiso   1.00
H1429  H     0.29449   0.93733   0.89162   0.00000  Uiso   1.00
H1430  H     0.20379   0.96026   0.77410   0.00000  Uiso   1.00
H1431  H     0.12496   0.70615   0.89136   0.00000  Uiso   1.00
H1432  H     0.23583   0.86997   0.71795   0.00000  Uiso   1.00
H1433  H     0.09734   0.79687   0.94871   0.00000  Uiso   1.00
H1434  H     0.23572   0.87005   0.96729   0.00000  Uiso   1.00
H1435  H     0.09703   0.79733   0.69928   0.00000  Uiso   1.00
H1436  H     0.16746   0.73376   0.69955   0.00000  Uiso   1.00
N1437  N     0.16665   0.83332   0.95240   0.00000  Uiso   1.00
N1438  N     0.16668   0.83334   0.71427   0.00000  Uiso   1.00
O1439  O     0.16666   0.77225   0.87154   0.00000  Uiso   1.00
O1440  O     0.11524   0.95966   0.89833   0.00000  Uiso   1.00
O1441  O     0.16667   0.89442   0.79513   0.00000  Uiso   1.00
O1442  O     0.16666   0.77226   0.79510   0.00000  Uiso   1.00
O1443  O     0.16667   0.89441   0.87157   0.00000  Uiso   1.00
O1444  O     0.09058   0.83333   0.86261   0.00000  Uiso   1.00
O1445  O     0.24275   0.83334   0.80405   0.00000  Uiso   1.00
O1446  O     0.09058   0.83334   0.78617   0.00000  Uiso   1.00
O1447  O     0.24275   0.83333   0.88050   0.00000  Uiso   1.00
O1448  O     0.19881   0.70517   0.75853   0.00000  Uiso   1.00
Zn1449 Zn    0.16667   0.83333   0.88437   0.00000  Uiso   1.00
Zn1450 Zn    0.16667   0.83334   0.78229   0.00000  Uiso   1.00
C1451  C     0.49931   0.75328   0.83276   0.00000  Uiso   1.00
C1452  C     0.47477   0.68875   0.86536   0.00000  Uiso   1.00
C1453  C     0.49696   0.95724   0.83325   0.00000  Uiso   1.00
C1454  C     0.49653   0.70900   0.83105   0.00000  Uiso   1.00
C1455  C     0.53842   0.85366   0.69577   0.00000  Uiso   1.00
C1456  C     0.46144   0.81318   0.97088   0.00000  Uiso   1.00
C1457  C     0.53836   0.85370   0.98122   0.00000  Uiso   1.00
C1458  C     0.46129   0.81341   0.68540   0.00000  Uiso   1.00
C1459  C     0.48915   0.71013   0.72321   0.00000  Uiso   1.00
C1460  C     0.47527   0.66978   0.69570   0.00000  Uiso   1.00
C1461  C     0.42868   0.67636   0.99198   0.00000  Uiso   1.00
C1462  C     0.49947   0.91323   0.83355   0.00000  Uiso   1.00
C1463  C     0.39863   0.94399   0.87910   0.00000  Uiso   1.00
C1464  C     0.35693   0.97818   0.87585   0.00000  Uiso   1.00
C1465  C     0.63519   0.95982   0.86505   0.00000  Uiso   1.00
C1466  C     0.40042   0.83350   0.82142   0.00000  Uiso   1.00
C1467  C     0.59958   0.83362   0.84525   0.00000  Uiso   1.00
C1468  C     0.34542   0.83386   0.81501   0.00000  Uiso   1.00
C1469  C     0.65460   0.83408   0.85169   0.00000  Uiso   1.00
C1470  C     0.51474   0.68646   0.79545   0.00000  Uiso   1.00
C1471  C     0.47217   0.97926   0.86524   0.00000  Uiso   1.00
C1472  C     0.51835   0.97742   0.79897   0.00000  Uiso   1.00
H1473  H     0.65827   0.83370   0.78018   0.00000  Uiso   1.00
H1474  H     0.45366   0.72238   0.73630   0.00000  Uiso   1.00
H1475  H     0.50959   0.99245   0.68000   0.00000  Uiso   1.00
H1476  H     0.46395   0.97824   0.71800   0.00000  Uiso   1.00
H1477  H     0.39445   0.68814   0.67369   0.00000  Uiso   1.00
H1478  H     0.41758   0.97940   0.97491   0.00000  Uiso   1.00
H1479  H     0.43889   0.69895   0.96661   0.00000  Uiso   1.00
H1480  H     0.38798   0.91930   0.90209   0.00000  Uiso   1.00
H1481  H     0.39849   0.92882   0.84503   0.00000  Uiso   1.00
H1482  H     0.36000   0.99581   0.90856   0.00000  Uiso   1.00
H1483  H     0.36320   0.66697   0.84860   0.00000  Uiso   1.00
H1484  H     0.34175   0.83436   0.88653   0.00000  Uiso   1.00
H1485  H     0.62991   0.94379   0.83122   0.00000  Uiso   1.00
H1486  H     0.60632   0.98538   0.86453   0.00000  Uiso   1.00
H1487  H     0.62783   0.93733   0.89162   0.00000  Uiso   1.00
H1488  H     0.53712   0.96026   0.77410   0.00000  Uiso   1.00
H1489  H     0.45830   0.70615   0.89136   0.00000  Uiso   1.00
H1490  H     0.56917   0.86997   0.71795   0.00000  Uiso   1.00
H1491  H     0.43068   0.79687   0.94871   0.00000  Uiso   1.00
H1492  H     0.56905   0.87005   0.96729   0.00000  Uiso   1.00
H1493  H     0.43036   0.79733   0.69928   0.00000  Uiso   1.00
H1494  H     0.50079   0.73376   0.69955   0.00000  Uiso   1.00
N1495  N     0.49999   0.83332   0.95240   0.00000  Uiso   1.00
N1496  N     0.50001   0.83334   0.71427   0.00000  Uiso   1.00
O1497  O     0.50000   0.77225   0.87154   0.00000  Uiso   1.00
O1498  O     0.44858   0.95966   0.89833   0.00000  Uiso   1.00
O1499  O     0.50000   0.89442   0.79513   0.00000  Uiso   1.00
O1500  O     0.50000   0.77226   0.79510   0.00000  Uiso   1.00
O1501  O     0.50000   0.89441   0.87157   0.00000  Uiso   1.00
O1502  O     0.42392   0.83333   0.86261   0.00000  Uiso   1.00
O1503  O     0.57608   0.83334   0.80405   0.00000  Uiso   1.00
O1504  O     0.42392   0.83334   0.78617   0.00000  Uiso   1.00
O1505  O     0.57608   0.83333   0.88050   0.00000  Uiso   1.00
O1506  O     0.53215   0.70517   0.75853   0.00000  Uiso   1.00
Zn1507 Zn    0.50000   0.83333   0.88437   0.00000  Uiso   1.00
Zn1508 Zn    0.50000   0.83334   0.78229   0.00000  Uiso   1.00
C1509  C     0.83264   0.75328   0.83276   0.00000  Uiso   1.00
C1510  C     0.80810   0.68875   0.86536   0.00000  Uiso   1.00
C1511  C     0.83029   0.95724   0.83325   0.00000  Uiso   1.00
C1512  C     0.82986   0.70900   0.83105   0.00000  Uiso   1.00
C1513  C     0.87175   0.85366   0.69577   0.00000  Uiso   1.00
C1514  C     0.79478   0.81318   0.97088   0.00000  Uiso   1.00
C1515  C     0.87169   0.85370   0.98122   0.00000  Uiso   1.00
C1516  C     0.79462   0.81341   0.68540   0.00000  Uiso   1.00
C1517  C     0.82249   0.71013   0.72321   0.00000  Uiso   1.00
C1518  C     0.80860   0.66978   0.69570   0.00000  Uiso   1.00
C1519  C     0.76202   0.67636   0.99198   0.00000  Uiso   1.00
C1520  C     0.83281   0.91323   0.83355   0.00000  Uiso   1.00
C1521  C     0.73196   0.94399   0.87910   0.00000  Uiso   1.00
C1522  C     0.69026   0.97818   0.87585   0.00000  Uiso   1.00
C1523  C     0.96853   0.95982   0.86505   0.00000  Uiso   1.00
C1524  C     0.73376   0.83350   0.82142   0.00000  Uiso   1.00
C1525  C     0.93292   0.83362   0.84525   0.00000  Uiso   1.00
C1526  C     0.67875   0.83386   0.81501   0.00000  Uiso   1.00
C1527  C     0.98793   0.83408   0.85169   0.00000  Uiso   1.00
C1528  C     0.84807   0.68646   0.79545   0.00000  Uiso   1.00
C1529  C     0.80551   0.97926   0.86524   0.00000  Uiso   1.00
C1530  C     0.85169   0.97742   0.79897   0.00000  Uiso   1.00
H1531  H     0.99160   0.83370   0.78018   0.00000  Uiso   1.00
H1532  H     0.78699   0.72238   0.73630   0.00000  Uiso   1.00
H1533  H     0.84292   0.99245   0.68000   0.00000  Uiso   1.00
H1534  H     0.79728   0.97824   0.71800   0.00000  Uiso   1.00
H1535  H     0.72779   0.68814   0.67369   0.00000  Uiso   1.00
H1536  H     0.75092   0.97940   0.97491   0.00000  Uiso   1.00
H1537  H     0.77222   0.69895   0.96661   0.00000  Uiso   1.00
H1538  H     0.72132   0.91930   0.90209   0.00000  Uiso   1.00
H1539  H     0.73182   0.92882   0.84503   0.00000  Uiso   1.00
H1540  H     0.69333   0.99581   0.90856   0.00000  Uiso   1.00
H1541  H     0.69654   0.66697   0.84860   0.00000  Uiso   1.00
H1542  H     0.67509   0.83436   0.88653   0.00000  Uiso   1.00
H1543  H     0.96325   0.94379   0.83122   0.00000  Uiso   1.00
H1544  H     0.93966   0.98538   0.86453   0.00000  Uiso   1.00
H1545  H     0.96116   0.93733   0.89162   0.00000  Uiso   1.00
H1546  H     0.87045   0.96026   0.77410   0.00000  Uiso   1.00
H1547  H     0.79163   0.70615   0.89136   0.00000  Uiso   1.00
H1548  H     0.90250   0.86997   0.71795   0.00000  Uiso   1.00
H1549  H     0.76401   0.79687   0.94871   0.00000  Uiso   1.00
H1550  H     0.90239   0.87005   0.96729   0.00000  Uiso   1.00
H1551  H     0.76370   0.79733   0.69928   0.00000  Uiso   1.00
H1552  H     0.83412   0.73376   0.69955   0.00000  Uiso   1.00
N1553  N     0.83332   0.83332   0.95240   0.00000  Uiso   1.00
N1554  N     0.83335   0.83334   0.71427   0.00000  Uiso   1.00
O1555  O     0.83333   0.77225   0.87154   0.00000  Uiso   1.00
O1556  O     0.78191   0.95966   0.89833   0.00000  Uiso   1.00
O1557  O     0.83334   0.89442   0.79513   0.00000  Uiso   1.00
O1558  O     0.83333   0.77226   0.79510   0.00000  Uiso   1.00
O1559  O     0.83334   0.89441   0.87157   0.00000  Uiso   1.00
O1560  O     0.75725   0.83333   0.86261   0.00000  Uiso   1.00
O1561  O     0.90942   0.83334   0.80405   0.00000  Uiso   1.00
O1562  O     0.75725   0.83334   0.78617   0.00000  Uiso   1.00
O1563  O     0.90942   0.83333   0.88050   0.00000  Uiso   1.00
O1564  O     0.86548   0.70517   0.75853   0.00000  Uiso   1.00
Zn1565 Zn    0.83333   0.83333   0.88437   0.00000  Uiso   1.00
Zn1566 Zn    0.83333   0.83334   0.78229   0.00000  Uiso   1.00
loop_
_geom_bond_atom_site_label_1
_geom_bond_atom_site_label_2
_geom_bond_distance
_geom_bond_site_symmetry_2
_ccdc_geom_bond_type
C1     C4      1.424   .     S
C1     O50     1.280   .     A
C1     O47     1.291   .     A
C2     C4      1.397   .     A
C2     H39     1.083   .     S
C2     C369    1.377   1_545 S
C3     C21     1.404   .     A
C3     C12     1.415   .     S
C3     C22     1.390   .     A
C4     C20     1.409   .     A
C5     N46     1.367   .     A
C5     H40     1.082   .     S
C5     C1051   1.418   1_554 S
C6     N45     1.367   .     A
C6     H41     1.082   .     S
C6     C530    1.418   .     S
C7     N45     1.367   .     A
C7     H42     1.082   .     S
C7     C527    1.418   .     S
C8     H43     1.082   .     S
C8     N46     1.367   .     A
C8     C1050   1.418   1_554 S
C9     H24     1.116   .     S
C9     C10     1.535   .     S
C9     O56     1.419   .     S
C9     H44     1.110   .     S
C10    C1055   1.521   1_554 S
C10    H373    1.111   1_545 S
C10    H374    1.108   1_545 S
C11    H29     1.109   .     S
C11    C532    1.521   .     S
C11    H549    1.111   .     S
C11    H376    1.108   1_545 S
C12    O49     1.284   .     A
C12    O51     1.283   .     A
C13    O48     1.417   .     S
C13    C14     1.534   .     S
C13    H30     1.111   .     S
C13    H31     1.115   .     S
C14    H32     1.109   .     S
C14    C131    1.524   1_455 S
C14    H207    1.111   .     S
C15    H35     1.111   .     S
C15    H36     1.109   .     S
C15    H37     1.111   .     S
C15    C72     1.524   .     S
C16    O54     1.282   .     A
C16    C18     1.403   .     S
C16    O52     1.280   .     A
C17    O55     1.282   .     A
C17    C19     1.403   .     S
C17    O53     1.280   .     A
C18    C135    1.329   1_455 S
C18    H139    1.088   1_455 S
C19    C76     1.329   .     S
C19    H92     1.088   .     S
C20    O56     1.384   .     S
C20    C370    1.369   1_545 S
C21    O48     1.384   .     S
C21    C176    1.377   .     S
C22    H38     1.085   .     S
C22    C194    1.369   .     S
H23    C76     1.088   .     S
H25    C184    1.111   .     S
H26    C184    1.108   .     S
H27    C1055   1.111   1_554 S
H28    C185    1.108   .     S
H33    C362    1.111   1_545 S
H34    C135    1.088   1_455 S
N45    Zn57    2.015   .     S
N46    Zn58    2.015   .     S
O47    Zn57    1.994   .     S
O49    Zn58    1.994   .     S
O50    Zn58    2.003   .     S
O51    Zn57    2.003   .     S
O52    Zn57    1.973   .     S
O53    Zn58    1.973   .     S
O54    Zn58    1.982   .     S
O55    Zn57    1.982   .     S
C59    C62     1.424   .     S
C59    O108    1.280   .     A
C59    O105    1.291   .     A
C60    C62     1.397   .     A
C60    H97     1.083   .     S
C60    C427    1.377   1_545 S
C61    C79     1.404   .     A
C61    C70     1.415   .     S
C61    C80     1.390   .     A
C62    C78     1.409   .     A
C63    N104    1.367   .     A
C63    H98     1.082   .     S
C63    C1109   1.418   1_554 S
C64    N103    1.367   .     A
C64    H99     1.082   .     S
C64    C588    1.418   .     S
C65    N103    1.367   .     A
C65    H100    1.082   .     S
C65    C585    1.418   .     S
C66    H101    1.082   .     S
C66    N104    1.367   .     A
C66    C1108   1.418   1_554 S
C67    H82     1.116   .     S
C67    C68     1.535   .     S
C67    O114    1.419   .     S
C67    H102    1.110   .     S
C68    C1113   1.521   1_554 S
C68    H431    1.111   1_545 S
C68    H432    1.108   1_545 S
C69    H87     1.109   .     S
C69    C590    1.521   .     S
C69    H607    1.111   .     S
C69    H434    1.108   1_545 S
C70    O107    1.284   .     A
C70    O109    1.283   .     A
C71    O106    1.417   .     S
C71    C72     1.534   .     S
C71    H88     1.111   .     S
C71    H89     1.115   .     S
C72    H90     1.109   .     S
C72    H265    1.111   .     S
C73    H93     1.111   .     S
C73    H94     1.109   .     S
C73    H95     1.111   .     S
C73    C130    1.524   .     S
C74    O112    1.282   .     A
C74    C76     1.403   .     S
C74    O110    1.280   .     A
C75    O113    1.282   .     A
C75    C77     1.403   .     S
C75    O111    1.280   .     A
C77    C134    1.329   .     S
C77    H150    1.088   .     S
C78    O114    1.384   .     S
C78    C428    1.369   1_545 S
C79    O106    1.384   .     S
C79    C234    1.377   .     S
C80    H96     1.085   .     S
C80    C252    1.369   .     S
H81    C134    1.088   .     S
H83    C242    1.111   .     S
H84    C242    1.108   .     S
H85    C1113   1.111   1_554 S
H86    C243    1.108   .     S
H91    C420    1.111   1_545 S
N103   Zn115   2.015   .     S
N104   Zn116   2.015   .     S
O105   Zn115   1.994   .     S
O107   Zn116   1.994   .     S
O108   Zn116   2.003   .     S
O109   Zn115   2.003   .     S
O110   Zn115   1.973   .     S
O111   Zn116   1.973   .     S
O112   Zn116   1.982   .     S
O113   Zn115   1.982   .     S
C117   C120    1.424   .     S
C117   O166    1.280   .     A
C117   O163    1.291   .     A
C118   C120    1.397   .     A
C118   H155    1.083   .     S
C118   C485    1.377   1_545 S
C119   C137    1.404   .     A
C119   C128    1.415   .     S
C119   C138    1.390   .     A
C120   C136    1.409   .     A
C121   N162    1.367   .     A
C121   H156    1.082   .     S
C121   C1167   1.418   1_554 S
C122   N161    1.367   .     A
C122   H157    1.082   .     S
C122   C646    1.418   .     S
C123   N161    1.367   .     A
C123   H158    1.082   .     S
C123   C643    1.418   .     S
C124   H159    1.082   .     S
C124   N162    1.367   .     A
C124   C1166   1.418   1_554 S
C125   H140    1.116   .     S
C125   C126    1.535   .     S
C125   O172    1.419   .     S
C125   H160    1.110   .     S
C126   C1171   1.521   1_554 S
C126   H489    1.111   1_545 S
C126   H490    1.108   1_545 S
C127   H145    1.109   .     S
C127   C648    1.521   .     S
C127   H665    1.111   .     S
C127   H492    1.108   1_545 S
C128   O165    1.284   .     A
C128   O167    1.283   .     A
C129   O164    1.417   .     S
C129   C130    1.534   .     S
C129   H146    1.111   .     S
C129   H147    1.115   .     S
C130   H148    1.109   .     S
C130   H323    1.111   .     S
C131   H151    1.111   .     S
C131   H152    1.109   .     S
C131   H153    1.111   .     S
C131   C14     1.524   1_655 S
C132   O170    1.282   .     A
C132   C134    1.403   .     S
C132   O168    1.280   .     A
C133   O171    1.282   .     A
C133   C135    1.403   .     S
C133   O169    1.280   .     A
C135   C18     1.329   1_655 S
C135   H34     1.088   1_655 S
C136   O172    1.384   .     S
C136   C486    1.369   1_545 S
C137   O164    1.384   .     S
C137   C292    1.377   .     S
C138   H154    1.085   .     S
C138   C310    1.369   .     S
H139   C18     1.088   1_655 S
H141   C300    1.111   .     S
H142   C300    1.108   .     S
H143   C1171   1.111   1_554 S
H144   C301    1.108   .     S
H149   C478    1.111   1_545 S
N161   Zn173   2.015   .     S
N162   Zn174   2.015   .     S
O163   Zn173   1.994   .     S
O165   Zn174   1.994   .     S
O166   Zn174   2.003   .     S
O167   Zn173   2.003   .     S
O168   Zn173   1.973   .     S
O169   Zn174   1.973   .     S
O170   Zn174   1.982   .     S
O171   Zn173   1.982   .     S
C175   C178    1.424   .     S
C175   O224    1.280   .     A
C175   O221    1.291   .     A
C176   C178    1.397   .     A
C176   H213    1.083   .     S
C177   C195    1.404   .     A
C177   C186    1.415   .     S
C177   C196    1.390   .     A
C178   C194    1.409   .     A
C179   N220    1.367   .     A
C179   H214    1.082   .     S
C179   C1225   1.418   1_554 S
C180   N219    1.367   .     A
C180   H215    1.082   .     S
C180   C704    1.418   .     S
C181   N219    1.367   .     A
C181   H216    1.082   .     S
C181   C701    1.418   .     S
C182   H217    1.082   .     S
C182   N220    1.367   .     A
C182   C1224   1.418   1_554 S
C183   H198    1.116   .     S
C183   C184    1.535   .     S
C183   O230    1.419   .     S
C183   H218    1.110   .     S
C184   C1229   1.521   1_554 S
C185   H203    1.109   .     S
C185   C706    1.521   .     S
C185   H723    1.111   .     S
C186   O223    1.284   .     A
C186   O225    1.283   .     A
C187   O222    1.417   .     S
C187   C188    1.534   .     S
C187   H204    1.111   .     S
C187   H205    1.115   .     S
C188   H206    1.109   .     S
C188   C305    1.524   1_455 S
C188   H381    1.111   .     S
C189   H209    1.111   .     S
C189   H210    1.109   .     S
C189   H211    1.111   .     S
C189   C246    1.524   .     S
C190   O228    1.282   .     A
C190   C192    1.403   .     S
C190   O226    1.280   .     A
C191   O229    1.282   .     A
C191   C193    1.403   .     S
C191   O227    1.280   .     A
C192   C309    1.329   1_455 S
C192   H313    1.088   1_455 S
C193   C250    1.329   .     S
C193   H266    1.088   .     S
C194   O230    1.384   .     S
C195   O222    1.384   .     S
C195   C350    1.377   .     S
C196   H212    1.085   .     S
C196   C368    1.369   .     S
H197   C250    1.088   .     S
H199   C358    1.111   .     S
H200   C358    1.108   .     S
H201   C1229   1.111   1_554 S
H202   C359    1.108   .     S
H208   C309    1.088   1_455 S
N219   Zn231   2.015   .     S
N220   Zn232   2.015   .     S
O221   Zn231   1.994   .     S
O223   Zn232   1.994   .     S
O224   Zn232   2.003   .     S
O225   Zn231   2.003   .     S
O226   Zn231   1.973   .     S
O227   Zn232   1.973   .     S
O228   Zn232   1.982   .     S
O229   Zn231   1.982   .     S
C233   C236    1.424   .     S
C233   O282    1.280   .     A
C233   O279    1.291   .     A
C234   C236    1.397   .     A
C234   H271    1.083   .     S
C235   C253    1.404   .     A
C235   C244    1.415   .     S
C235   C254    1.390   .     A
C236   C252    1.409   .     A
C237   N278    1.367   .     A
C237   H272    1.082   .     S
C237   C1283   1.418   1_554 S
C238   N277    1.367   .     A
C238   H273    1.082   .     S
C238   C762    1.418   .     S
C239   N277    1.367   .     A
C239   H274    1.082   .     S
C239   C759    1.418   .     S
C240   H275    1.082   .     S
C240   N278    1.367   .     A
C240   C1282   1.418   1_554 S
C241   H256    1.116   .     S
C241   C242    1.535   .     S
C241   O288    1.419   .     S
C241   H276    1.110   .     S
C242   C1287   1.521   1_554 S
C243   H261    1.109   .     S
C243   C764    1.521   .     S
C243   H781    1.111   .     S
C244   O281    1.284   .     A
C244   O283    1.283   .     A
C245   O280    1.417   .     S
C245   C246    1.534   .     S
C245   H262    1.111   .     S
C245   H263    1.115   .     S
C246   H264    1.109   .     S
C246   H439    1.111   .     S
C247   H267    1.111   .     S
C247   H268    1.109   .     S
C247   H269    1.111   .     S
C247   C304    1.524   .     S
C248   O286    1.282   .     A
C248   C250    1.403   .     S
C248   O284    1.280   .     A
C249   O287    1.282   .     A
C249   C251    1.403   .     S
C249   O285    1.280   .     A
C251   C308    1.329   .     S
C251   H324    1.088   .     S
C252   O288    1.384   .     S
C253   O280    1.384   .     S
C253   C408    1.377   .     S
C254   H270    1.085   .     S
C254   C426    1.369   .     S
H255   C308    1.088   .     S
H257   C416    1.111   .     S
H258   C416    1.108   .     S
H259   C1287   1.111   1_554 S
H260   C417    1.108   .     S
N277   Zn289   2.015   .     S
N278   Zn290   2.015   .     S
O279   Zn289   1.994   .     S
O281   Zn290   1.994   .     S
O282   Zn290   2.003   .     S
O283   Zn289   2.003   .     S
O284   Zn289   1.973   .     S
O285   Zn290   1.973   .     S
O286   Zn290   1.982   .     S
O287   Zn289   1.982   .     S
C291   C294    1.424   .     S
C291   O340    1.280   .     A
C291   O337    1.291   .     A
C292   C294    1.397   .     A
C292   H329    1.083   .     S
C293   C311    1.404   .     A
C293   C302    1.415   .     S
C293   C312    1.390   .     A
C294   C310    1.409   .     A
C295   N336    1.367   .     A
C295   H330    1.082   .     S
C295   C1341   1.418   1_554 S
C296   N335    1.367   .     A
C296   H331    1.082   .     S
C296   C820    1.418   .     S
C297   N335    1.367   .     A
C297   H332    1.082   .     S
C297   C817    1.418   .     S
C298   H333    1.082   .     S
C298   N336    1.367   .     A
C298   C1340   1.418   1_554 S
C299   H314    1.116   .     S
C299   C300    1.535   .     S
C299   O346    1.419   .     S
C299   H334    1.110   .     S
C300   C1345   1.521   1_554 S
C301   H319    1.109   .     S
C301   C822    1.521   .     S
C301   H839    1.111   .     S
C302   O339    1.284   .     A
C302   O341    1.283   .     A
C303   O338    1.417   .     S
C303   C304    1.534   .     S
C303   H320    1.111   .     S
C303   H321    1.115   .     S
C304   H322    1.109   .     S
C304   H497    1.111   .     S
C305   H325    1.111   .     S
C305   H326    1.109   .     S
C305   H327    1.111   .     S
C305   C188    1.524   1_655 S
C306   O344    1.282   .     A
C306   C308    1.403   .     S
C306   O342    1.280   .     A
C307   O345    1.282   .     A
C307   C309    1.403   .     S
C307   O343    1.280   .     A
C309   C192    1.329   1_655 S
C309   H208    1.088   1_655 S
C310   O346    1.384   .     S
C311   O338    1.384   .     S
C311   C466    1.377   .     S
C312   H328    1.085   .     S
C312   C484    1.369   .     S
H313   C192    1.088   1_655 S
H315   C474    1.111   .     S
H316   C474    1.108   .     S
H317   C1345   1.111   1_554 S
H318   C475    1.108   .     S
N335   Zn347   2.015   .     S
N336   Zn348   2.015   .     S
O337   Zn347   1.994   .     S
O339   Zn348   1.994   .     S
O340   Zn348   2.003   .     S
O341   Zn347   2.003   .     S
O342   Zn347   1.973   .     S
O343   Zn348   1.973   .     S
O344   Zn348   1.982   .     S
O345   Zn347   1.982   .     S
C349   C352    1.424   .     S
C349   O398    1.280   .     A
C349   O395    1.291   .     A
C350   C352    1.397   .     A
C350   H387    1.083   .     S
C351   C369    1.404   .     A
C351   C360    1.415   .     S
C351   C370    1.390   .     A
C352   C368    1.409   .     A
C353   N394    1.367   .     A
C353   H388    1.082   .     S
C353   C1399   1.418   1_554 S
C354   N393    1.367   .     A
C354   H389    1.082   .     S
C354   C878    1.418   .     S
C355   N393    1.367   .     A
C355   H390    1.082   .     S
C355   C875    1.418   .     S
C356   H391    1.082   .     S
C356   N394    1.367   .     A
C356   C1398   1.418   1_554 S
C357   H372    1.116   .     S
C357   C358    1.535   .     S
C357   O404    1.419   .     S
C357   H392    1.110   .     S
C358   C1403   1.521   1_554 S
C359   H377    1.109   .     S
C359   C880    1.521   .     S
C359   H897    1.111   .     S
C360   O397    1.284   .     A
C360   O399    1.283   .     A
C361   O396    1.417   .     S
C361   C362    1.534   .     S
C361   H378    1.111   .     S
C361   H379    1.115   .     S
C362   H380    1.109   .     S
C362   C479    1.524   1_455 S
C362   H33     1.111   1_565 S
C363   H383    1.111   .     S
C363   H384    1.109   .     S
C363   H385    1.111   .     S
C363   C420    1.524   .     S
C364   O402    1.282   .     A
C364   C366    1.403   .     S
C364   O400    1.280   .     A
C365   O403    1.282   .     A
C365   C367    1.403   .     S
C365   O401    1.280   .     A
C366   C483    1.329   1_455 S
C366   H487    1.088   1_455 S
C367   C424    1.329   .     S
C367   H440    1.088   .     S
C368   O404    1.384   .     S
C369   O396    1.384   .     S
C369   C2      1.377   1_565 S
C370   H386    1.085   .     S
C370   C20     1.369   1_565 S
H371   C424    1.088   .     S
H373   C10     1.111   1_565 S
H374   C10     1.108   1_565 S
H375   C1403   1.111   1_554 S
H376   C11     1.108   1_565 S
H382   C483    1.088   1_455 S
N393   Zn405   2.015   .     S
N394   Zn406   2.015   .     S
O395   Zn405   1.994   .     S
O397   Zn406   1.994   .     S
O398   Zn406   2.003   .     S
O399   Zn405   2.003   .     S
O400   Zn405   1.973   .     S
O401   Zn406   1.973   .     S
O402   Zn406   1.982   .     S
O403   Zn405   1.982   .     S
C407   C410    1.424   .     S
C407   O456    1.280   .     A
C407   O453    1.291   .     A
C408   C410    1.397   .     A
C408   H445    1.083   .     S
C409   C427    1.404   .     A
C409   C418    1.415   .     S
C409   C428    1.390   .     A
C410   C426    1.409   .     A
C411   N452    1.367   .     A
C411   H446    1.082   .     S
C411   C1457   1.418   1_554 S
C412   N451    1.367   .     A
C412   H447    1.082   .     S
C412   C936    1.418   .     S
C413   N451    1.367   .     A
C413   H448    1.082   .     S
C413   C933    1.418   .     S
C414   H449    1.082   .     S
C414   N452    1.367   .     A
C414   C1456   1.418   1_554 S
C415   H430    1.116   .     S
C415   C416    1.535   .     S
C415   O462    1.419   .     S
C415   H450    1.110   .     S
C416   C1461   1.521   1_554 S
C417   H435    1.109   .     S
C417   C938    1.521   .     S
C417   H955    1.111   .     S
C418   O455    1.284   .     A
C418   O457    1.283   .     A
C419   O454    1.417   .     S
C419   C420    1.534   .     S
C419   H436    1.111   .     S
C419   H437    1.115   .     S
C420   H438    1.109   .     S
C420   H91     1.111   1_565 S
C421   H441    1.111   .     S
C421   H442    1.109   .     S
C421   H443    1.111   .     S
C421   C478    1.524   .     S
C422   O460    1.282   .     A
C422   C424    1.403   .     S
C422   O458    1.280   .     A
C423   O461    1.282   .     A
C423   C425    1.403   .     S
C423   O459    1.280   .     A
C425   C482    1.329   .     S
C425   H498    1.088   .     S
C426   O462    1.384   .     S
C427   O454    1.384   .     S
C427   C60     1.377   1_565 S
C428   H444    1.085   .     S
C428   C78     1.369   1_565 S
H429   C482    1.088   .     S
H431   C68     1.111   1_565 S
H432   C68     1.108   1_565 S
H433   C1461   1.111   1_554 S
H434   C69     1.108   1_565 S
N451   Zn463   2.015   .     S
N452   Zn464   2.015   .     S
O453   Zn463   1.994   .     S
O455   Zn464   1.994   .     S
O456   Zn464   2.003   .     S
O457   Zn463   2.003   .     S
O458   Zn463   1.973   .     S
O459   Zn464   1.973   .     S
O460   Zn464   1.982   .     S
O461   Zn463   1.982   .     S
C465   C468    1.424   .     S
C465   O514    1.280   .     A
C465   O511    1.291   .     A
C466   C468    1.397   .     A
C466   H503    1.083   .     S
C467   C485    1.404   .     A
C467   C476    1.415   .     S
C467   C486    1.390   .     A
C468   C484    1.409   .     A
C469   N510    1.367   .     A
C469   H504    1.082   .     S
C469   C1515   1.418   1_554 S
C470   N509    1.367   .     A
C470   H505    1.082   .     S
C470   C994    1.418   .     S
C471   N509    1.367   .     A
C471   H506    1.082   .     S
C471   C991    1.418   .     S
C472   H507    1.082   .     S
C472   N510    1.367   .     A
C472   C1514   1.418   1_554 S
C473   H488    1.116   .     S
C473   C474    1.535   .     S
C473   O520    1.419   .     S
C473   H508    1.110   .     S
C474   C1519   1.521   1_554 S
C475   H493    1.109   .     S
C475   C996    1.521   .     S
C475   H1013   1.111   .     S
C476   O513    1.284   .     A
C476   O515    1.283   .     A
C477   O512    1.417   .     S
C477   C478    1.534   .     S
C477   H494    1.111   .     S
C477   H495    1.115   .     S
C478   H496    1.109   .     S
C478   H149    1.111   1_565 S
C479   H499    1.111   .     S
C479   H500    1.109   .     S
C479   H501    1.111   .     S
C479   C362    1.524   1_655 S
C480   O518    1.282   .     A
C480   C482    1.403   .     S
C480   O516    1.280   .     A
C481   O519    1.282   .     A
C481   C483    1.403   .     S
C481   O517    1.280   .     A
C483   C366    1.329   1_655 S
C483   H382    1.088   1_655 S
C484   O520    1.384   .     S
C485   O512    1.384   .     S
C485   C118    1.377   1_565 S
C486   H502    1.085   .     S
C486   C136    1.369   1_565 S
H487   C366    1.088   1_655 S
H489   C126    1.111   1_565 S
H490   C126    1.108   1_565 S
H491   C1519   1.111   1_554 S
H492   C127    1.108   1_565 S
N509   Zn521   2.015   .     S
N510   Zn522   2.015   .     S
O511   Zn521   1.994   .     S
O513   Zn522   1.994   .     S
O514   Zn522   2.003   .     S
O515   Zn521   2.003   .     S
O516   Zn521   1.973   .     S
O517   Zn522   1.973   .     S
O518   Zn522   1.982   .     S
O519   Zn521   1.982   .     S
C523   C526    1.424   .     S
C523   O572    1.280   .     A
C523   O569    1.291   .     A
C524   C526    1.397   .     A
C524   H561    1.083   .     S
C524   C891    1.377   1_545 S
C525   C543    1.404   .     A
C525   C534    1.415   .     S
C525   C544    1.390   .     A
C526   C542    1.409   .     A
C527   N568    1.367   .     A
C527   H562    1.082   .     S
C528   N567    1.367   .     A
C528   H563    1.082   .     S
C528   C1052   1.418   .     S
C529   N567    1.367   .     A
C529   H564    1.082   .     S
C529   C1049   1.418   .     S
C530   H565    1.082   .     S
C530   N568    1.367   .     A
C531   H546    1.116   .     S
C531   C532    1.535   .     S
C531   O578    1.419   .     S
C531   H566    1.110   .     S
C532   H895    1.111   1_545 S
C532   H896    1.108   1_545 S
C533   H551    1.109   .     S
C533   C1054   1.521   .     S
C533   H1071   1.111   .     S
C533   H898    1.108   1_545 S
C534   O571    1.284   .     A
C534   O573    1.283   .     A
C535   O570    1.417   .     S
C535   C536    1.534   .     S
C535   H552    1.111   .     S
C535   H553    1.115   .     S
C536   H554    1.109   .     S
C536   C653    1.524   1_455 S
C536   H729    1.111   .     S
C537   H557    1.111   .     S
C537   H558    1.109   .     S
C537   H559    1.111   .     S
C537   C594    1.524   .     S
C538   O576    1.282   .     A
C538   C540    1.403   .     S
C538   O574    1.280   .     A
C539   O577    1.282   .     A
C539   C541    1.403   .     S
C539   O575    1.280   .     A
C540   C657    1.329   1_455 S
C540   H661    1.088   1_455 S
C541   C598    1.329   .     S
C541   H614    1.088   .     S
C542   O578    1.384   .     S
C542   C892    1.369   1_545 S
C543   O570    1.384   .     S
C543   C698    1.377   .     S
C544   H560    1.085   .     S
C544   C716    1.369   .     S
H545   C598    1.088   .     S
H547   C706    1.111   .     S
H548   C706    1.108   .     S
H550   C707    1.108   .     S
H555   C884    1.111   1_545 S
H556   C657    1.088   1_455 S
N567   Zn579   2.015   .     S
N568   Zn580   2.015   .     S
O569   Zn579   1.994   .     S
O571   Zn580   1.994   .     S
O572   Zn580   2.003   .     S
O573   Zn579   2.003   .     S
O574   Zn579   1.973   .     S
O575   Zn580   1.973   .     S
O576   Zn580   1.982   .     S
O577   Zn579   1.982   .     S
C581   C584    1.424   .     S
C581   O630    1.280   .     A
C581   O627    1.291   .     A
C582   C584    1.397   .     A
C582   H619    1.083   .     S
C582   C949    1.377   1_545 S
C583   C601    1.404   .     A
C583   C592    1.415   .     S
C583   C602    1.390   .     A
C584   C600    1.409   .     A
C585   N626    1.367   .     A
C585   H620    1.082   .     S
C586   N625    1.367   .     A
C586   H621    1.082   .     S
C586   C1110   1.418   .     S
C587   N625    1.367   .     A
C587   H622    1.082   .     S
C587   C1107   1.418   .     S
C588   H623    1.082   .     S
C588   N626    1.367   .     A
C589   H604    1.116   .     S
C589   C590    1.535   .     S
C589   O636    1.419   .     S
C589   H624    1.110   .     S
C590   H953    1.111   1_545 S
C590   H954    1.108   1_545 S
C591   H609    1.109   .     S
C591   C1112   1.521   .     S
C591   H1129   1.111   .     S
C591   H956    1.108   1_545 S
C592   O629    1.284   .     A
C592   O631    1.283   .     A
C593   O628    1.417   .     S
C593   C594    1.534   .     S
C593   H610    1.111   .     S
C593   H611    1.115   .     S
C594   H612    1.109   .     S
C594   H787    1.111   .     S
C595   H615    1.111   .     S
C595   H616    1.109   .     S
C595   H617    1.111   .     S
C595   C652    1.524   .     S
C596   O634    1.282   .     A
C596   C598    1.403   .     S
C596   O632    1.280   .     A
C597   O635    1.282   .     A
C597   C599    1.403   .     S
C597   O633    1.280   .     A
C599   C656    1.329   .     S
C599   H672    1.088   .     S
C600   O636    1.384   .     S
C600   C950    1.369   1_545 S
C601   O628    1.384   .     S
C601   C756    1.377   .     S
C602   H618    1.085   .     S
C602   C774    1.369   .     S
H603   C656    1.088   .     S
H605   C764    1.111   .     S
H606   C764    1.108   .     S
H608   C765    1.108   .     S
H613   C942    1.111   1_545 S
N625   Zn637   2.015   .     S
N626   Zn638   2.015   .     S
O627   Zn637   1.994   .     S
O629   Zn638   1.994   .     S
O630   Zn638   2.003   .     S
O631   Zn637   2.003   .     S
O632   Zn637   1.973   .     S
O633   Zn638   1.973   .     S
O634   Zn638   1.982   .     S
O635   Zn637   1.982   .     S
C639   C642    1.424   .     S
C639   O688    1.280   .     A
C639   O685    1.291   .     A
C640   C642    1.397   .     A
C640   H677    1.083   .     S
C640   C1007   1.377   1_545 S
C641   C659    1.404   .     A
C641   C650    1.415   .     S
C641   C660    1.390   .     A
C642   C658    1.409   .     A
C643   N684    1.367   .     A
C643   H678    1.082   .     S
C644   N683    1.367   .     A
C644   H679    1.082   .     S
C644   C1168   1.418   .     S
C645   N683    1.367   .     A
C645   H680    1.082   .     S
C645   C1165   1.418   .     S
C646   H681    1.082   .     S
C646   N684    1.367   .     A
C647   H662    1.116   .     S
C647   C648    1.535   .     S
C647   O694    1.419   .     S
C647   H682    1.110   .     S
C648   H1011   1.111   1_545 S
C648   H1012   1.108   1_545 S
C649   H667    1.109   .     S
C649   C1170   1.521   .     S
C649   H1187   1.111   .     S
C649   H1014   1.108   1_545 S
C650   O687    1.284   .     A
C650   O689    1.283   .     A
C651   O686    1.417   .     S
C651   C652    1.534   .     S
C651   H668    1.111   .     S
C651   H669    1.115   .     S
C652   H670    1.109   .     S
C652   H845    1.111   .     S
C653   H673    1.111   .     S
C653   H674    1.109   .     S
C653   H675    1.111   .     S
C653   C536    1.524   1_655 S
C654   O692    1.282   .     A
C654   C656    1.403   .     S
C654   O690    1.280   .     A
C655   O693    1.282   .     A
C655   C657    1.403   .     S
C655   O691    1.280   .     A
C657   C540    1.329   1_655 S
C657   H556    1.088   1_655 S
C658   O694    1.384   .     S
C658   C1008   1.369   1_545 S
C659   O686    1.384   .     S
C659   C814    1.377   .     S
C660   H676    1.085   .     S
C660   C832    1.369   .     S
H661   C540    1.088   1_655 S
H663   C822    1.111   .     S
H664   C822    1.108   .     S
H666   C823    1.108   .     S
H671   C1000   1.111   1_545 S
N683   Zn695   2.015   .     S
N684   Zn696   2.015   .     S
O685   Zn695   1.994   .     S
O687   Zn696   1.994   .     S
O688   Zn696   2.003   .     S
O689   Zn695   2.003   .     S
O690   Zn695   1.973   .     S
O691   Zn696   1.973   .     S
O692   Zn696   1.982   .     S
O693   Zn695   1.982   .     S
C697   C700    1.424   .     S
C697   O746    1.280   .     A
C697   O743    1.291   .     A
C698   C700    1.397   .     A
C698   H735    1.083   .     S
C699   C717    1.404   .     A
C699   C708    1.415   .     S
C699   C718    1.390   .     A
C700   C716    1.409   .     A
C701   N742    1.367   .     A
C701   H736    1.082   .     S
C702   N741    1.367   .     A
C702   H737    1.082   .     S
C702   C1226   1.418   .     S
C703   N741    1.367   .     A
C703   H738    1.082   .     S
C703   C1223   1.418   .     S
C704   H739    1.082   .     S
C704   N742    1.367   .     A
C705   H720    1.116   .     S
C705   C706    1.535   .     S
C705   O752    1.419   .     S
C705   H740    1.110   .     S
C707   H725    1.109   .     S
C707   C1228   1.521   .     S
C707   H1245   1.111   .     S
C708   O745    1.284   .     A
C708   O747    1.283   .     A
C709   O744    1.417   .     S
C709   C710    1.534   .     S
C709   H726    1.111   .     S
C709   H727    1.115   .     S
C710   H728    1.109   .     S
C710   C827    1.524   1_455 S
C710   H903    1.111   .     S
C711   H731    1.111   .     S
C711   H732    1.109   .     S
C711   H733    1.111   .     S
C711   C768    1.524   .     S
C712   O750    1.282   .     A
C712   C714    1.403   .     S
C712   O748    1.280   .     A
C713   O751    1.282   .     A
C713   C715    1.403   .     S
C713   O749    1.280   .     A
C714   C831    1.329   1_455 S
C714   H835    1.088   1_455 S
C715   C772    1.329   .     S
C715   H788    1.088   .     S
C716   O752    1.384   .     S
C717   O744    1.384   .     S
C717   C872    1.377   .     S
C718   H734    1.085   .     S
C718   C890    1.369   .     S
H719   C772    1.088   .     S
H721   C880    1.111   .     S
H722   C880    1.108   .     S
H724   C881    1.108   .     S
H730   C831    1.088   1_455 S
N741   Zn753   2.015   .     S
N742   Zn754   2.015   .     S
O743   Zn753   1.994   .     S
O745   Zn754   1.994   .     S
O746   Zn754   2.003   .     S
O747   Zn753   2.003   .     S
O748   Zn753   1.973   .     S
O749   Zn754   1.973   .     S
O750   Zn754   1.982   .     S
O751   Zn753   1.982   .     S
C755   C758    1.424   .     S
C755   O804    1.280   .     A
C755   O801    1.291   .     A
C756   C758    1.397   .     A
C756   H793    1.083   .     S
C757   C775    1.404   .     A
C757   C766    1.415   .     S
C757   C776    1.390   .     A
C758   C774    1.409   .     A
C759   N800    1.367   .     A
C759   H794    1.082   .     S
C760   N799    1.367   .     A
C760   H795    1.082   .     S
C760   C1284   1.418   .     S
C761   N799    1.367   .     A
C761   H796    1.082   .     S
C761   C1281   1.418   .     S
C762   H797    1.082   .     S
C762   N800    1.367   .     A
C763   H778    1.116   .     S
C763   C764    1.535   .     S
C763   O810    1.419   .     S
C763   H798    1.110   .     S
C765   H783    1.109   .     S
C765   C1286   1.521   .     S
C765   H1303   1.111   .     S
C766   O803    1.284   .     A
C766   O805    1.283   .     A
C767   O802    1.417   .     S
C767   C768    1.534   .     S
C767   H784    1.111   .     S
C767   H785    1.115   .     S
C768   H786    1.109   .     S
C768   H961    1.111   .     S
C769   H789    1.111   .     S
C769   H790    1.109   .     S
C769   H791    1.111   .     S
C769   C826    1.524   .     S
C770   O808    1.282   .     A
C770   C772    1.403   .     S
C770   O806    1.280   .     A
C771   O809    1.282   .     A
C771   C773    1.403   .     S
C771   O807    1.280   .     A
C773   C830    1.329   .     S
C773   H846    1.088   .     S
C774   O810    1.384   .     S
C775   O802    1.384   .     S
C775   C930    1.377   .     S
C776   H792    1.085   .     S
C776   C948    1.369   .     S
H777   C830    1.088   .     S
H779   C938    1.111   .     S
H780   C938    1.108   .     S
H782   C939    1.108   .     S
N799   Zn811   2.015   .     S
N800   Zn812   2.015   .     S
O801   Zn811   1.994   .     S
O803   Zn812   1.994   .     S
O804   Zn812   2.003   .     S
O805   Zn811   2.003   .     S
O806   Zn811   1.973   .     S
O807   Zn812   1.973   .     S
O808   Zn812   1.982   .     S
O809   Zn811   1.982   .     S
C813   C816    1.424   .     S
C813   O862    1.280   .     A
C813   O859    1.291   .     A
C814   C816    1.397   .     A
C814   H851    1.083   .     S
C815   C833    1.404   .     A
C815   C824    1.415   .     S
C815   C834    1.390   .     A
C816   C832    1.409   .     A
C817   N858    1.367   .     A
C817   H852    1.082   .     S
C818   N857    1.367   .     A
C818   H853    1.082   .     S
C818   C1342   1.418   .     S
C819   N857    1.367   .     A
C819   H854    1.082   .     S
C819   C1339   1.418   .     S
C820   H855    1.082   .     S
C820   N858    1.367   .     A
C821   H836    1.116   .     S
C821   C822    1.535   .     S
C821   O868    1.419   .     S
C821   H856    1.110   .     S
C823   H841    1.109   .     S
C823   C1344   1.521   .     S
C823   H1361   1.111   .     S
C824   O861    1.284   .     A
C824   O863    1.283   .     A
C825   O860    1.417   .     S
C825   C826    1.534   .     S
C825   H842    1.111   .     S
C825   H843    1.115   .     S
C826   H844    1.109   .     S
C826   H1019   1.111   .     S
C827   H847    1.111   .     S
C827   H848    1.109   .     S
C827   H849    1.111   .     S
C827   C710    1.524   1_655 S
C828   O866    1.282   .     A
C828   C830    1.403   .     S
C828   O864    1.280   .     A
C829   O867    1.282   .     A
C829   C831    1.403   .     S
C829   O865    1.280   .     A
C831   C714    1.329   1_655 S
C831   H730    1.088   1_655 S
C832   O868    1.384   .     S
C833   O860    1.384   .     S
C833   C988    1.377   .     S
C834   H850    1.085   .     S
C834   C1006   1.369   .     S
H835   C714    1.088   1_655 S
H837   C996    1.111   .     S
H838   C996    1.108   .     S
H840   C997    1.108   .     S
N857   Zn869   2.015   .     S
N858   Zn870   2.015   .     S
O859   Zn869   1.994   .     S
O861   Zn870   1.994   .     S
O862   Zn870   2.003   .     S
O863   Zn869   2.003   .     S
O864   Zn869   1.973   .     S
O865   Zn870   1.973   .     S
O866   Zn870   1.982   .     S
O867   Zn869   1.982   .     S
C871   C874    1.424   .     S
C871   O920    1.280   .     A
C871   O917    1.291   .     A
C872   C874    1.397   .     A
C872   H909    1.083   .     S
C873   C891    1.404   .     A
C873   C882    1.415   .     S
C873   C892    1.390   .     A
C874   C890    1.409   .     A
C875   N916    1.367   .     A
C875   H910    1.082   .     S
C876   N915    1.367   .     A
C876   H911    1.082   .     S
C876   C1400   1.418   .     S
C877   N915    1.367   .     A
C877   H912    1.082   .     S
C877   C1397   1.418   .     S
C878   H913    1.082   .     S
C878   N916    1.367   .     A
C879   H894    1.116   .     S
C879   C880    1.535   .     S
C879   O926    1.419   .     S
C879   H914    1.110   .     S
C881   H899    1.109   .     S
C881   C1402   1.521   .     S
C881   H1419   1.111   .     S
C882   O919    1.284   .     A
C882   O921    1.283   .     A
C883   O918    1.417   .     S
C883   C884    1.534   .     S
C883   H900    1.111   .     S
C883   H901    1.115   .     S
C884   H902    1.109   .     S
C884   C1001   1.524   1_455 S
C884   H555    1.111   1_565 S
C885   H905    1.111   .     S
C885   H906    1.109   .     S
C885   H907    1.111   .     S
C885   C942    1.524   .     S
C886   O924    1.282   .     A
C886   C888    1.403   .     S
C886   O922    1.280   .     A
C887   O925    1.282   .     A
C887   C889    1.403   .     S
C887   O923    1.280   .     A
C888   C1005   1.329   1_455 S
C888   H1009   1.088   1_455 S
C889   C946    1.329   .     S
C889   H962    1.088   .     S
C890   O926    1.384   .     S
C891   O918    1.384   .     S
C891   C524    1.377   1_565 S
C892   H908    1.085   .     S
C892   C542    1.369   1_565 S
H893   C946    1.088   .     S
H895   C532    1.111   1_565 S
H896   C532    1.108   1_565 S
H898   C533    1.108   1_565 S
H904   C1005   1.088   1_455 S
N915   Zn927   2.015   .     S
N916   Zn928   2.015   .     S
O917   Zn927   1.994   .     S
O919   Zn928   1.994   .     S
O920   Zn928   2.003   .     S
O921   Zn927   2.003   .     S
O922   Zn927   1.973   .     S
O923   Zn928   1.973   .     S
O924   Zn928   1.982   .     S
O925   Zn927   1.982   .     S
C929   C932    1.424   .     S
C929   O978    1.280   .     A
C929   O975    1.291   .     A
C930   C932    1.397   .     A
C930   H967    1.083   .     S
C931   C949    1.404   .     A
C931   C940    1.415   .     S
C931   C950    1.390   .     A
C932   C948    1.409   .     A
C933   N974    1.367   .     A
C933   H968    1.082   .     S
C934   N973    1.367   .     A
C934   H969    1.082   .     S
C934   C1458   1.418   .     S
C935   N973    1.367   .     A
C935   H970    1.082   .     S
C935   C1455   1.418   .     S
C936   H971    1.082   .     S
C936   N974    1.367   .     A
C937   H952    1.116   .     S
C937   C938    1.535   .     S
C937   O984    1.419   .     S
C937   H972    1.110   .     S
C939   H957    1.109   .     S
C939   C1460   1.521   .     S
C939   H1477   1.111   .     S
C940   O977    1.284   .     A
C940   O979    1.283   .     A
C941   O976    1.417   .     S
C941   C942    1.534   .     S
C941   H958    1.111   .     S
C941   H959    1.115   .     S
C942   H960    1.109   .     S
C942   H613    1.111   1_565 S
C943   H963    1.111   .     S
C943   H964    1.109   .     S
C943   H965    1.111   .     S
C943   C1000   1.524   .     S
C944   O982    1.282   .     A
C944   C946    1.403   .     S
C944   O980    1.280   .     A
C945   O983    1.282   .     A
C945   C947    1.403   .     S
C945   O981    1.280   .     A
C947   C1004   1.329   .     S
C947   H1020   1.088   .     S
C948   O984    1.384   .     S
C949   O976    1.384   .     S
C949   C582    1.377   1_565 S
C950   H966    1.085   .     S
C950   C600    1.369   1_565 S
H951   C1004   1.088   .     S
H953   C590    1.111   1_565 S
H954   C590    1.108   1_565 S
H956   C591    1.108   1_565 S
N973   Zn985   2.015   .     S
N974   Zn986   2.015   .     S
O975   Zn985   1.994   .     S
O977   Zn986   1.994   .     S
O978   Zn986   2.003   .     S
O979   Zn985   2.003   .     S
O980   Zn985   1.973   .     S
O981   Zn986   1.973   .     S
O982   Zn986   1.982   .     S
O983   Zn985   1.982   .     S
C987   C990    1.424   .     S
C987   O1036   1.280   .     A
C987   O1033   1.291   .     A
C988   C990    1.397   .     A
C988   H1025   1.083   .     S
C989   C1007   1.404   .     A
C989   C998    1.415   .     S
C989   C1008   1.390   .     A
C990   C1006   1.409   .     A
C991   N1032   1.367   .     A
C991   H1026   1.082   .     S
C992   N1031   1.367   .     A
C992   H1027   1.082   .     S
C992   C1516   1.418   .     S
C993   N1031   1.367   .     A
C993   H1028   1.082   .     S
C993   C1513   1.418   .     S
C994   H1029   1.082   .     S
C994   N1032   1.367   .     A
C995   H1010   1.116   .     S
C995   C996    1.535   .     S
C995   O1042   1.419   .     S
C995   H1030   1.110   .     S
C997   H1015   1.109   .     S
C997   C1518   1.521   .     S
C997   H1535   1.111   .     S
C998   O1035   1.284   .     A
C998   O1037   1.283   .     A
C999   O1034   1.417   .     S
C999   C1000   1.534   .     S
C999   H1016   1.111   .     S
C999   H1017   1.115   .     S
C1000  H1018   1.109   .     S
C1000  H671    1.111   1_565 S
C1001  H1021   1.111   .     S
C1001  H1022   1.109   .     S
C1001  H1023   1.111   .     S
C1001  C884    1.524   1_655 S
C1002  O1040   1.282   .     A
C1002  C1004   1.403   .     S
C1002  O1038   1.280   .     A
C1003  O1041   1.282   .     A
C1003  C1005   1.403   .     S
C1003  O1039   1.280   .     A
C1005  C888    1.329   1_655 S
C1005  H904    1.088   1_655 S
C1006  O1042   1.384   .     S
C1007  O1034   1.384   .     S
C1007  C640    1.377   1_565 S
C1008  H1024   1.085   .     S
C1008  C658    1.369   1_565 S
H1009  C888    1.088   1_655 S
H1011  C648    1.111   1_565 S
H1012  C648    1.108   1_565 S
H1014  C649    1.108   1_565 S
N1031  Zn1043  2.015   .     S
N1032  Zn1044  2.015   .     S
O1033  Zn1043  1.994   .     S
O1035  Zn1044  1.994   .     S
O1036  Zn1044  2.003   .     S
O1037  Zn1043  2.003   .     S
O1038  Zn1043  1.973   .     S
O1039  Zn1044  1.973   .     S
O1040  Zn1044  1.982   .     S
O1041  Zn1043  1.982   .     S
C1045  C1048   1.424   .     S
C1045  O1094   1.280   .     A
C1045  O1091   1.291   .     A
C1046  C1048   1.397   .     A
C1046  H1083   1.083   .     S
C1046  C1413   1.377   1_545 S
C1047  C1065   1.404   .     A
C1047  C1056   1.415   .     S
C1047  C1066   1.390   .     A
C1048  C1064   1.409   .     A
C1049  N1090   1.367   .     A
C1049  H1084   1.082   .     S
C1050  N1089   1.367   .     A
C1050  H1085   1.082   .     S
C1050  C8      1.418   1_556 S
C1051  N1089   1.367   .     A
C1051  H1086   1.082   .     S
C1051  C5      1.418   1_556 S
C1052  H1087   1.082   .     S
C1052  N1090   1.367   .     A
C1053  H1068   1.116   .     S
C1053  C1054   1.535   .     S
C1053  O1100   1.419   .     S
C1053  H1088   1.110   .     S
C1054  H1417   1.111   1_545 S
C1054  H1418   1.108   1_545 S
C1055  H1073   1.109   .     S
C1055  C10     1.521   1_556 S
C1055  H27     1.111   1_556 S
C1055  H1420   1.108   1_545 S
C1056  O1093   1.284   .     A
C1056  O1095   1.283   .     A
C1057  O1092   1.417   .     S
C1057  C1058   1.534   .     S
C1057  H1074   1.111   .     S
C1057  H1075   1.115   .     S
C1058  H1076   1.109   .     S
C1058  C1175   1.524   1_455 S
C1058  H1251   1.111   .     S
C1059  H1079   1.111   .     S
C1059  H1080   1.109   .     S
C1059  H1081   1.111   .     S
C1059  C1116   1.524   .     S
C1060  O1098   1.282   .     A
C1060  C1062   1.403   .     S
C1060  O1096   1.280   .     A
C1061  O1099   1.282   .     A
C1061  C1063   1.403   .     S
C1061  O1097   1.280   .     A
C1062  C1179   1.329   1_455 S
C1062  H1183   1.088   1_455 S
C1063  C1120   1.329   .     S
C1063  H1136   1.088   .     S
C1064  O1100   1.384   .     S
C1064  C1414   1.369   1_545 S
C1065  O1092   1.384   .     S
C1065  C1220   1.377   .     S
C1066  H1082   1.085   .     S
C1066  C1238   1.369   .     S
H1067  C1120   1.088   .     S
H1069  C1228   1.111   .     S
H1070  C1228   1.108   .     S
H1072  C1229   1.108   .     S
H1077  C1406   1.111   1_545 S
H1078  C1179   1.088   1_455 S
N1089  Zn1101  2.015   .     S
N1090  Zn1102  2.015   .     S
O1091  Zn1101  1.994   .     S
O1093  Zn1102  1.994   .     S
O1094  Zn1102  2.003   .     S
O1095  Zn1101  2.003   .     S
O1096  Zn1101  1.973   .     S
O1097  Zn1102  1.973   .     S
O1098  Zn1102  1.982   .     S
O1099  Zn1101  1.982   .     S
C1103  C1106   1.424   .     S
C1103  O1152   1.280   .     A
C1103  O1149   1.291   .     A
C1104  C1106   1.397   .     A
C1104  H1141   1.083   .     S
C1104  C1471   1.377   1_545 S
C1105  C1123   1.404   .     A
C1105  C1114   1.415   .     S
C1105  C1124   1.390   .     A
C1106  C1122   1.409   .     A
C1107  N1148   1.367   .     A
C1107  H1142   1.082   .     S
C1108  N1147   1.367   .     A
C1108  H1143   1.082   .     S
C1108  C66     1.418   1_556 S
C1109  N1147   1.367   .     A
C1109  H1144   1.082   .     S
C1109  C63     1.418   1_556 S
C1110  H1145   1.082   .     S
C1110  N1148   1.367   .     A
C1111  H1126   1.116   .     S
C1111  C1112   1.535   .     S
C1111  O1158   1.419   .     S
C1111  H1146   1.110   .     S
C1112  H1475   1.111   1_545 S
C1112  H1476   1.108   1_545 S
C1113  H1131   1.109   .     S
C1113  C68     1.521   1_556 S
C1113  H85     1.111   1_556 S
C1113  H1478   1.108   1_545 S
C1114  O1151   1.284   .     A
C1114  O1153   1.283   .     A
C1115  O1150   1.417   .     S
C1115  C1116   1.534   .     S
C1115  H1132   1.111   .     S
C1115  H1133   1.115   .     S
C1116  H1134   1.109   .     S
C1116  H1309   1.111   .     S
C1117  H1137   1.111   .     S
C1117  H1138   1.109   .     S
C1117  H1139   1.111   .     S
C1117  C1174   1.524   .     S
C1118  O1156   1.282   .     A
C1118  C1120   1.403   .     S
C1118  O1154   1.280   .     A
C1119  O1157   1.282   .     A
C1119  C1121   1.403   .     S
C1119  O1155   1.280   .     A
C1121  C1178   1.329   .     S
C1121  H1194   1.088   .     S
C1122  O1158   1.384   .     S
C1122  C1472   1.369   1_545 S
C1123  O1150   1.384   .     S
C1123  C1278   1.377   .     S
C1124  H1140   1.085   .     S
C1124  C1296   1.369   .     S
H1125  C1178   1.088   .     S
H1127  C1286   1.111   .     S
H1128  C1286   1.108   .     S
H1130  C1287   1.108   .     S
H1135  C1464   1.111   1_545 S
N1147  Zn1159  2.015   .     S
N1148  Zn1160  2.015   .     S
O1149  Zn1159  1.994   .     S
O1151  Zn1160  1.994   .     S
O1152  Zn1160  2.003   .     S
O1153  Zn1159  2.003   .     S
O1154  Zn1159  1.973   .     S
O1155  Zn1160  1.973   .     S
O1156  Zn1160  1.982   .     S
O1157  Zn1159  1.982   .     S
C1161  C1164   1.424   .     S
C1161  O1210   1.280   .     A
C1161  O1207   1.291   .     A
C1162  C1164   1.397   .     A
C1162  H1199   1.083   .     S
C1162  C1529   1.377   1_545 S
C1163  C1181   1.404   .     A
C1163  C1172   1.415   .     S
C1163  C1182   1.390   .     A
C1164  C1180   1.409   .     A
C1165  N1206   1.367   .     A
C1165  H1200   1.082   .     S
C1166  N1205   1.367   .     A
C1166  H1201   1.082   .     S
C1166  C124    1.418   1_556 S
C1167  N1205   1.367   .     A
C1167  H1202   1.082   .     S
C1167  C121    1.418   1_556 S
C1168  H1203   1.082   .     S
C1168  N1206   1.367   .     A
C1169  H1184   1.116   .     S
C1169  C1170   1.535   .     S
C1169  O1216   1.419   .     S
C1169  H1204   1.110   .     S
C1170  H1533   1.111   1_545 S
C1170  H1534   1.108   1_545 S
C1171  H1189   1.109   .     S
C1171  C126    1.521   1_556 S
C1171  H143    1.111   1_556 S
C1171  H1536   1.108   1_545 S
C1172  O1209   1.284   .     A
C1172  O1211   1.283   .     A
C1173  O1208   1.417   .     S
C1173  C1174   1.534   .     S
C1173  H1190   1.111   .     S
C1173  H1191   1.115   .     S
C1174  H1192   1.109   .     S
C1174  H1367   1.111   .     S
C1175  H1195   1.111   .     S
C1175  H1196   1.109   .     S
C1175  H1197   1.111   .     S
C1175  C1058   1.524   1_655 S
C1176  O1214   1.282   .     A
C1176  C1178   1.403   .     S
C1176  O1212   1.280   .     A
C1177  O1215   1.282   .     A
C1177  C1179   1.403   .     S
C1177  O1213   1.280   .     A
C1179  C1062   1.329   1_655 S
C1179  H1078   1.088   1_655 S
C1180  O1216   1.384   .     S
C1180  C1530   1.369   1_545 S
C1181  O1208   1.384   .     S
C1181  C1336   1.377   .     S
C1182  H1198   1.085   .     S
C1182  C1354   1.369   .     S
H1183  C1062   1.088   1_655 S
H1185  C1344   1.111   .     S
H1186  C1344   1.108   .     S
H1188  C1345   1.108   .     S
H1193  C1522   1.111   1_545 S
N1205  Zn1217  2.015   .     S
N1206  Zn1218  2.015   .     S
O1207  Zn1217  1.994   .     S
O1209  Zn1218  1.994   .     S
O1210  Zn1218  2.003   .     S
O1211  Zn1217  2.003   .     S
O1212  Zn1217  1.973   .     S
O1213  Zn1218  1.973   .     S
O1214  Zn1218  1.982   .     S
O1215  Zn1217  1.982   .     S
C1219  C1222   1.424   .     S
C1219  O1268   1.280   .     A
C1219  O1265   1.291   .     A
C1220  C1222   1.397   .     A
C1220  H1257   1.083   .     S
C1221  C1239   1.404   .     A
C1221  C1230   1.415   .     S
C1221  C1240   1.390   .     A
C1222  C1238   1.409   .     A
C1223  N1264   1.367   .     A
C1223  H1258   1.082   .     S
C1224  N1263   1.367   .     A
C1224  H1259   1.082   .     S
C1224  C182    1.418   1_556 S
C1225  N1263   1.367   .     A
C1225  H1260   1.082   .     S
C1225  C179    1.418   1_556 S
C1226  H1261   1.082   .     S
C1226  N1264   1.367   .     A
C1227  H1242   1.116   .     S
C1227  C1228   1.535   .     S
C1227  O1274   1.419   .     S
C1227  H1262   1.110   .     S
C1229  H1247   1.109   .     S
C1229  C184    1.521   1_556 S
C1229  H201    1.111   1_556 S
C1230  O1267   1.284   .     A
C1230  O1269   1.283   .     A
C1231  O1266   1.417   .     S
C1231  C1232   1.534   .     S
C1231  H1248   1.111   .     S
C1231  H1249   1.115   .     S
C1232  H1250   1.109   .     S
C1232  C1349   1.524   1_455 S
C1232  H1425   1.111   .     S
C1233  H1253   1.111   .     S
C1233  H1254   1.109   .     S
C1233  H1255   1.111   .     S
C1233  C1290   1.524   .     S
C1234  O1272   1.282   .     A
C1234  C1236   1.403   .     S
C1234  O1270   1.280   .     A
C1235  O1273   1.282   .     A
C1235  C1237   1.403   .     S
C1235  O1271   1.280   .     A
C1236  C1353   1.329   1_455 S
C1236  H1357   1.088   1_455 S
C1237  C1294   1.329   .     S
C1237  H1310   1.088   .     S
C1238  O1274   1.384   .     S
C1239  O1266   1.384   .     S
C1239  C1394   1.377   .     S
C1240  H1256   1.085   .     S
C1240  C1412   1.369   .     S
H1241  C1294   1.088   .     S
H1243  C1402   1.111   .     S
H1244  C1402   1.108   .     S
H1246  C1403   1.108   .     S
H1252  C1353   1.088   1_455 S
N1263  Zn1275  2.015   .     S
N1264  Zn1276  2.015   .     S
O1265  Zn1275  1.994   .     S
O1267  Zn1276  1.994   .     S
O1268  Zn1276  2.003   .     S
O1269  Zn1275  2.003   .     S
O1270  Zn1275  1.973   .     S
O1271  Zn1276  1.973   .     S
O1272  Zn1276  1.982   .     S
O1273  Zn1275  1.982   .     S
C1277  C1280   1.424   .     S
C1277  O1326   1.280   .     A
C1277  O1323   1.291   .     A
C1278  C1280   1.397   .     A
C1278  H1315   1.083   .     S
C1279  C1297   1.404   .     A
C1279  C1288   1.415   .     S
C1279  C1298   1.390   .     A
C1280  C1296   1.409   .     A
C1281  N1322   1.367   .     A
C1281  H1316   1.082   .     S
C1282  N1321   1.367   .     A
C1282  H1317   1.082   .     S
C1282  C240    1.418   1_556 S
C1283  N1321   1.367   .     A
C1283  H1318   1.082   .     S
C1283  C237    1.418   1_556 S
C1284  H1319   1.082   .     S
C1284  N1322   1.367   .     A
C1285  H1300   1.116   .     S
C1285  C1286   1.535   .     S
C1285  O1332   1.419   .     S
C1285  H1320   1.110   .     S
C1287  H1305   1.109   .     S
C1287  C242    1.521   1_556 S
C1287  H259    1.111   1_556 S
C1288  O1325   1.284   .     A
C1288  O1327   1.283   .     A
C1289  O1324   1.417   .     S
C1289  C1290   1.534   .     S
C1289  H1306   1.111   .     S
C1289  H1307   1.115   .     S
C1290  H1308   1.109   .     S
C1290  H1483   1.111   .     S
C1291  H1311   1.111   .     S
C1291  H1312   1.109   .     S
C1291  H1313   1.111   .     S
C1291  C1348   1.524   .     S
C1292  O1330   1.282   .     A
C1292  C1294   1.403   .     S
C1292  O1328   1.280   .     A
C1293  O1331   1.282   .     A
C1293  C1295   1.403   .     S
C1293  O1329   1.280   .     A
C1295  C1352   1.329   .     S
C1295  H1368   1.088   .     S
C1296  O1332   1.384   .     S
C1297  O1324   1.384   .     S
C1297  C1452   1.377   .     S
C1298  H1314   1.085   .     S
C1298  C1470   1.369   .     S
H1299  C1352   1.088   .     S
H1301  C1460   1.111   .     S
H1302  C1460   1.108   .     S
H1304  C1461   1.108   .     S
N1321  Zn1333  2.015   .     S
N1322  Zn1334  2.015   .     S
O1323  Zn1333  1.994   .     S
O1325  Zn1334  1.994   .     S
O1326  Zn1334  2.003   .     S
O1327  Zn1333  2.003   .     S
O1328  Zn1333  1.973   .     S
O1329  Zn1334  1.973   .     S
O1330  Zn1334  1.982   .     S
O1331  Zn1333  1.982   .     S
C1335  C1338   1.424   .     S
C1335  O1384   1.280   .     A
C1335  O1381   1.291   .     A
C1336  C1338   1.397   .     A
C1336  H1373   1.083   .     S
C1337  C1355   1.404   .     A
C1337  C1346   1.415   .     S
C1337  C1356   1.390   .     A
C1338  C1354   1.409   .     A
C1339  N1380   1.367   .     A
C1339  H1374   1.082   .     S
C1340  N1379   1.367   .     A
C1340  H1375   1.082   .     S
C1340  C298    1.418   1_556 S
C1341  N1379   1.367   .     A
C1341  H1376   1.082   .     S
C1341  C295    1.418   1_556 S
C1342  H1377   1.082   .     S
C1342  N1380   1.367   .     A
C1343  H1358   1.116   .     S
C1343  C1344   1.535   .     S
C1343  O1390   1.419   .     S
C1343  H1378   1.110   .     S
C1345  H1363   1.109   .     S
C1345  C300    1.521   1_556 S
C1345  H317    1.111   1_556 S
C1346  O1383   1.284   .     A
C1346  O1385   1.283   .     A
C1347  O1382   1.417   .     S
C1347  C1348   1.534   .     S
C1347  H1364   1.111   .     S
C1347  H1365   1.115   .     S
C1348  H1366   1.109   .     S
C1348  H1541   1.111   .     S
C1349  H1369   1.111   .     S
C1349  H1370   1.109   .     S
C1349  H1371   1.111   .     S
C1349  C1232   1.524   1_655 S
C1350  O1388   1.282   .     A
C1350  C1352   1.403   .     S
C1350  O1386   1.280   .     A
C1351  O1389   1.282   .     A
C1351  C1353   1.403   .     S
C1351  O1387   1.280   .     A
C1353  C1236   1.329   1_655 S
C1353  H1252   1.088   1_655 S
C1354  O1390   1.384   .     S
C1355  O1382   1.384   .     S
C1355  C1510   1.377   .     S
C1356  H1372   1.085   .     S
C1356  C1528   1.369   .     S
H1357  C1236   1.088   1_655 S
H1359  C1518   1.111   .     S
H1360  C1518   1.108   .     S
H1362  C1519   1.108   .     S
N1379  Zn1391  2.015   .     S
N1380  Zn1392  2.015   .     S
O1381  Zn1391  1.994   .     S
O1383  Zn1392  1.994   .     S
O1384  Zn1392  2.003   .     S
O1385  Zn1391  2.003   .     S
O1386  Zn1391  1.973   .     S
O1387  Zn1392  1.973   .     S
O1388  Zn1392  1.982   .     S
O1389  Zn1391  1.982   .     S
C1393  C1396   1.424   .     S
C1393  O1442   1.280   .     A
C1393  O1439   1.291   .     A
C1394  C1396   1.397   .     A
C1394  H1431   1.083   .     S
C1395  C1413   1.404   .     A
C1395  C1404   1.415   .     S
C1395  C1414   1.390   .     A
C1396  C1412   1.409   .     A
C1397  N1438   1.367   .     A
C1397  H1432   1.082   .     S
C1398  N1437   1.367   .     A
C1398  H1433   1.082   .     S
C1398  C356    1.418   1_556 S
C1399  N1437   1.367   .     A
C1399  H1434   1.082   .     S
C1399  C353    1.418   1_556 S
C1400  H1435   1.082   .     S
C1400  N1438   1.367   .     A
C1401  H1416   1.116   .     S
C1401  C1402   1.535   .     S
C1401  O1448   1.419   .     S
C1401  H1436   1.110   .     S
C1403  H1421   1.109   .     S
C1403  C358    1.521   1_556 S
C1403  H375    1.111   1_556 S
C1404  O1441   1.284   .     A
C1404  O1443   1.283   .     A
C1405  O1440   1.417   .     S
C1405  C1406   1.534   .     S
C1405  H1422   1.111   .     S
C1405  H1423   1.115   .     S
C1406  H1424   1.109   .     S
C1406  C1523   1.524   1_455 S
C1406  H1077   1.111   1_565 S
C1407  H1427   1.111   .     S
C1407  H1428   1.109   .     S
C1407  H1429   1.111   .     S
C1407  C1464   1.524   .     S
C1408  O1446   1.282   .     A
C1408  C1410   1.403   .     S
C1408  O1444   1.280   .     A
C1409  O1447   1.282   .     A
C1409  C1411   1.403   .     S
C1409  O1445   1.280   .     A
C1410  C1527   1.329   1_455 S
C1410  H1531   1.088   1_455 S
C1411  C1468   1.329   .     S
C1411  H1484   1.088   .     S
C1412  O1448   1.384   .     S
C1413  O1440   1.384   .     S
C1413  C1046   1.377   1_565 S
C1414  H1430   1.085   .     S
C1414  C1064   1.369   1_565 S
H1415  C1468   1.088   .     S
H1417  C1054   1.111   1_565 S
H1418  C1054   1.108   1_565 S
H1420  C1055   1.108   1_565 S
H1426  C1527   1.088   1_455 S
N1437  Zn1449  2.015   .     S
N1438  Zn1450  2.015   .     S
O1439  Zn1449  1.994   .     S
O1441  Zn1450  1.994   .     S
O1442  Zn1450  2.003   .     S
O1443  Zn1449  2.003   .     S
O1444  Zn1449  1.973   .     S
O1445  Zn1450  1.973   .     S
O1446  Zn1450  1.982   .     S
O1447  Zn1449  1.982   .     S
C1451  C1454   1.424   .     S
C1451  O1500   1.280   .     A
C1451  O1497   1.291   .     A
C1452  C1454   1.397   .     A
C1452  H1489   1.083   .     S
C1453  C1471   1.404   .     A
C1453  C1462   1.415   .     S
C1453  C1472   1.390   .     A
C1454  C1470   1.409   .     A
C1455  N1496   1.367   .     A
C1455  H1490   1.082   .     S
C1456  N1495   1.367   .     A
C1456  H1491   1.082   .     S
C1456  C414    1.418   1_556 S
C1457  N1495   1.367   .     A
C1457  H1492   1.082   .     S
C1457  C411    1.418   1_556 S
C1458  H1493   1.082   .     S
C1458  N1496   1.367   .     A
C1459  H1474   1.116   .     S
C1459  C1460   1.535   .     S
C1459  O1506   1.419   .     S
C1459  H1494   1.110   .     S
C1461  H1479   1.109   .     S
C1461  C416    1.521   1_556 S
C1461  H433    1.111   1_556 S
C1462  O1499   1.284   .     A
C1462  O1501   1.283   .     A
C1463  O1498   1.417   .     S
C1463  C1464   1.534   .     S
C1463  H1480   1.111   .     S
C1463  H1481   1.115   .     S
C1464  H1482   1.109   .     S
C1464  H1135   1.111   1_565 S
C1465  H1485   1.111   .     S
C1465  H1486   1.109   .     S
C1465  H1487   1.111   .     S
C1465  C1522   1.524   .     S
C1466  O1504   1.282   .     A
C1466  C1468   1.403   .     S
C1466  O1502   1.280   .     A
C1467  O1505   1.282   .     A
C1467  C1469   1.403   .     S
C1467  O1503   1.280   .     A
C1469  C1526   1.329   .     S
C1469  H1542   1.088   .     S
C1470  O1506   1.384   .     S
C1471  O1498   1.384   .     S
C1471  C1104   1.377   1_565 S
C1472  H1488   1.085   .     S
C1472  C1122   1.369   1_565 S
H1473  C1526   1.088   .     S
H1475  C1112   1.111   1_565 S
H1476  C1112   1.108   1_565 S
H1478  C1113   1.108   1_565 S
N1495  Zn1507  2.015   .     S
N1496  Zn1508  2.015   .     S
O1497  Zn1507  1.994   .     S
O1499  Zn1508  1.994   .     S
O1500  Zn1508  2.003   .     S
O1501  Zn1507  2.003   .     S
O1502  Zn1507  1.973   .     S
O1503  Zn1508  1.973   .     S
O1504  Zn1508  1.982   .     S
O1505  Zn1507  1.982   .     S
C1509  C1512   1.424   .     S
C1509  O1558   1.280   .     A
C1509  O1555   1.291   .     A
C1510  C1512   1.397   .     A
C1510  H1547   1.083   .     S
C1511  C1529   1.404   .     A
C1511  C1520   1.415   .     S
C1511  C1530   1.390   .     A
C1512  C1528   1.409   .     A
C1513  N1554   1.367   .     A
C1513  H1548   1.082   .     S
C1514  N1553   1.367   .     A
C1514  H1549   1.082   .     S
C1514  C472    1.418   1_556 S
C1515  N1553   1.367   .     A
C1515  H1550   1.082   .     S
C1515  C469    1.418   1_556 S
C1516  H1551   1.082   .     S
C1516  N1554   1.367   .     A
C1517  H1532   1.116   .     S
C1517  C1518   1.535   .     S
C1517  O1564   1.419   .     S
C1517  H1552   1.110   .     S
C1519  H1537   1.109   .     S
C1519  C474    1.521   1_556 S
C1519  H491    1.111   1_556 S
C1520  O1557   1.284   .     A
C1520  O1559   1.283   .     A
C1521  O1556   1.417   .     S
C1521  C1522   1.534   .     S
C1521  H1538   1.111   .     S
C1521  H1539   1.115   .     S
C1522  H1540   1.109   .     S
C1522  H1193   1.111   1_565 S
C1523  H1543   1.111   .     S
C1523  H1544   1.109   .     S
C1523  H1545   1.111   .     S
C1523  C1406   1.524   1_655 S
C1524  O1562   1.282   .     A
C1524  C1526   1.403   .     S
C1524  O1560   1.280   .     A
C1525  O1563   1.282   .     A
C1525  C1527   1.403   .     S
C1525  O1561   1.280   .     A
C1527  C1410   1.329   1_655 S
C1527  H1426   1.088   1_655 S
C1528  O1564   1.384   .     S
C1529  O1556   1.384   .     S
C1529  C1162   1.377   1_565 S
C1530  H1546   1.085   .     S
C1530  C1180   1.369   1_565 S
H1531  C1410   1.088   1_655 S
H1533  C1170   1.111   1_565 S
H1534  C1170   1.108   1_565 S
H1536  C1171   1.108   1_565 S
N1553  Zn1565  2.015   .     S
N1554  Zn1566  2.015   .     S
O1555  Zn1565  1.994   .     S
O1557  Zn1566  1.994   .     S
O1558  Zn1566  2.003   .     S
O1559  Zn1565  2.003   .     S
O1560  Zn1565  1.973   .     S
O1561  Zn1566  1.973   .     S
O1562  Zn1566  1.982   .     S
O1563  Zn1565  1.982   .     S
