data_str_m3_o1_o10_pcu_sym.84
_audit_creation_date              2020-01-03
_audit_creation_method            'Materials Studio'
_symmetry_space_group_name_H-M    'P1'
_symmetry_Int_Tables_number       1
_symmetry_cell_setting            triclinic
loop_
_symmetry_equiv_pos_as_xyz
  x,y,z
_cell_length_a                    25.7566
_cell_length_b                    32.0942
_cell_length_c                    29.5386
_cell_angle_alpha                 90.5925
_cell_angle_beta                  98.5781
_cell_angle_gamma                 90.1495
loop_
_atom_site_label
_atom_site_type_symbol
_atom_site_fract_x
_atom_site_fract_y
_atom_site_fract_z
_atom_site_U_iso_or_equiv
_atom_site_adp_type
_atom_site_occupancy
C1     C     0.16645   0.08669   0.16632   0.00000  Uiso   1.00
C2     C     0.13368   0.02167   0.19351   0.00000  Uiso   1.00
C3     C     0.16631   0.29073   0.16702   0.00000  Uiso   1.00
C4     C     0.16422   0.04252   0.16501   0.00000  Uiso   1.00
C5     C     0.19947   0.19249   0.02862   0.00000  Uiso   1.00
C6     C     0.13381   0.14089   0.30471   0.00000  Uiso   1.00
C7     C     0.20010   0.19227   0.31380   0.00000  Uiso   1.00
C8     C     0.13295   0.14131   0.01949   0.00000  Uiso   1.00
C9     C     0.20095   0.03967   0.06240   0.00000  Uiso   1.00
C10    C     0.06207   0.27641   0.20787   0.00000  Uiso   1.00
C11    C     0.27663   0.28470   0.13500   0.00000  Uiso   1.00
C12    C     0.16684   0.24660   0.16693   0.00000  Uiso   1.00
C13    C     0.05660   0.05578   0.19536   0.00000  Uiso   1.00
C14    C     0.28482   0.21038   0.30902   0.00000  Uiso   1.00
C15    C     0.04770   0.12449   0.02375   0.00000  Uiso   1.00
C16    C     0.06704   0.16710   0.15470   0.00000  Uiso   1.00
C17    C     0.26630   0.16684   0.17864   0.00000  Uiso   1.00
C18    C     0.01201   0.16750   0.14825   0.00000  Uiso   1.00
C19    C     0.32133   0.16710   0.18509   0.00000  Uiso   1.00
C20    C     0.19321   0.02113   0.13550   0.00000  Uiso   1.00
C21    C     0.13571   0.31206   0.19530   0.00000  Uiso   1.00
C22    C     0.19563   0.31151   0.13771   0.00000  Uiso   1.00
H23    H     0.22481   0.21353   0.05072   0.00000  Uiso   1.00
H24    H     0.03169   0.29987   0.21229   0.00000  Uiso   1.00
H25    H     0.29654   0.31531   0.14246   0.00000  Uiso   1.00
H26    H     0.27574   0.26724   0.16725   0.00000  Uiso   1.00
H27    H     0.30024   0.26622   0.11358   0.00000  Uiso   1.00
H28    H     0.03538   0.02950   0.17589   0.00000  Uiso   1.00
H29    H     0.03068   0.06872   0.21880   0.00000  Uiso   1.00
H30    H     0.06342   0.08069   0.17117   0.00000  Uiso   1.00
H31    H     0.30908   0.22802   0.28768   0.00000  Uiso   1.00
H32    H     0.29314   0.17668   0.30446   0.00000  Uiso   1.00
H33    H     0.29718   0.22032   0.01185   0.00000  Uiso   1.00
H34    H     0.10840   0.11990   0.28261   0.00000  Uiso   1.00
H35    H     0.03547   0.11448   0.32093   0.00000  Uiso   1.00
H36    H     0.04006   0.15834   0.02807   0.00000  Uiso   1.00
H37    H     0.02282   0.10735   0.04497   0.00000  Uiso   1.00
H38    H     0.32475   0.16790   0.11330   0.00000  Uiso   1.00
H39    H     0.00860   0.16676   0.22004   0.00000  Uiso   1.00
H40    H     0.20965   0.00913   0.04729   0.00000  Uiso   1.00
H41    H     0.15773   0.04486   0.05761   0.00000  Uiso   1.00
H42    H     0.21832   0.06422   0.04305   0.00000  Uiso   1.00
H43    H     0.05291   0.24816   0.22656   0.00000  Uiso   1.00
H44    H     0.05956   0.26738   0.17105   0.00000  Uiso   1.00
N45    N     0.16665   0.16666   0.28573   0.00000  Uiso   1.00
N46    N     0.16668   0.16668   0.04760   0.00000  Uiso   1.00
O47    O     0.16666   0.10558   0.20487   0.00000  Uiso   1.00
O48    O     0.11191   0.29144   0.22780   0.00000  Uiso   1.00
O49    O     0.22585   0.28981   0.11042   0.00000  Uiso   1.00
O50    O     0.10407   0.04292   0.22169   0.00000  Uiso   1.00
O51    O     0.23154   0.21976   0.29429   0.00000  Uiso   1.00
O52    O     0.10069   0.11446   0.03892   0.00000  Uiso   1.00
O53    O     0.16667   0.22775   0.12846   0.00000  Uiso   1.00
O54    O     0.16666   0.10559   0.12843   0.00000  Uiso   1.00
O55    O     0.16667   0.22774   0.20490   0.00000  Uiso   1.00
O56    O     0.09058   0.16666   0.19595   0.00000  Uiso   1.00
O57    O     0.24275   0.16667   0.13739   0.00000  Uiso   1.00
O58    O     0.09058   0.16667   0.11950   0.00000  Uiso   1.00
O59    O     0.24275   0.16666   0.21383   0.00000  Uiso   1.00
O60    O     0.22407   0.04258   0.10880   0.00000  Uiso   1.00
Zn61   Zn    0.16667   0.16666   0.21771   0.00000  Uiso   1.00
Zn62   Zn    0.16667   0.16667   0.11563   0.00000  Uiso   1.00
C63    C     0.49978   0.08669   0.16632   0.00000  Uiso   1.00
C64    C     0.46701   0.02167   0.19351   0.00000  Uiso   1.00
C65    C     0.49964   0.29073   0.16702   0.00000  Uiso   1.00
C66    C     0.49756   0.04252   0.16501   0.00000  Uiso   1.00
C67    C     0.53281   0.19249   0.02862   0.00000  Uiso   1.00
C68    C     0.46714   0.14089   0.30471   0.00000  Uiso   1.00
C69    C     0.53344   0.19227   0.31380   0.00000  Uiso   1.00
C70    C     0.46628   0.14131   0.01949   0.00000  Uiso   1.00
C71    C     0.53429   0.03967   0.06240   0.00000  Uiso   1.00
C72    C     0.39540   0.27641   0.20787   0.00000  Uiso   1.00
C73    C     0.60996   0.28470   0.13500   0.00000  Uiso   1.00
C74    C     0.50017   0.24660   0.16693   0.00000  Uiso   1.00
C75    C     0.38994   0.05578   0.19536   0.00000  Uiso   1.00
C76    C     0.61815   0.21038   0.30902   0.00000  Uiso   1.00
C77    C     0.38104   0.12449   0.02375   0.00000  Uiso   1.00
C78    C     0.40037   0.16710   0.15470   0.00000  Uiso   1.00
C79    C     0.59964   0.16684   0.17864   0.00000  Uiso   1.00
C80    C     0.34534   0.16750   0.14825   0.00000  Uiso   1.00
C81    C     0.65466   0.16710   0.18509   0.00000  Uiso   1.00
C82    C     0.52654   0.02113   0.13550   0.00000  Uiso   1.00
C83    C     0.46904   0.31206   0.19530   0.00000  Uiso   1.00
C84    C     0.52897   0.31151   0.13771   0.00000  Uiso   1.00
H85    H     0.55814   0.21353   0.05072   0.00000  Uiso   1.00
H86    H     0.36503   0.29987   0.21229   0.00000  Uiso   1.00
H87    H     0.62988   0.31531   0.14246   0.00000  Uiso   1.00
H88    H     0.60907   0.26724   0.16725   0.00000  Uiso   1.00
H89    H     0.63358   0.26622   0.11358   0.00000  Uiso   1.00
H90    H     0.36871   0.02950   0.17589   0.00000  Uiso   1.00
H91    H     0.36401   0.06872   0.21880   0.00000  Uiso   1.00
H92    H     0.39676   0.08069   0.17117   0.00000  Uiso   1.00
H93    H     0.64241   0.22802   0.28768   0.00000  Uiso   1.00
H94    H     0.62647   0.17668   0.30446   0.00000  Uiso   1.00
H95    H     0.63051   0.22032   0.01185   0.00000  Uiso   1.00
H96    H     0.44174   0.11990   0.28261   0.00000  Uiso   1.00
H97    H     0.36880   0.11448   0.32093   0.00000  Uiso   1.00
H98    H     0.37340   0.15834   0.02807   0.00000  Uiso   1.00
H99    H     0.35616   0.10735   0.04497   0.00000  Uiso   1.00
H100   H     0.65808   0.16790   0.11330   0.00000  Uiso   1.00
H101   H     0.34193   0.16676   0.22004   0.00000  Uiso   1.00
H102   H     0.54298   0.00913   0.04729   0.00000  Uiso   1.00
H103   H     0.49107   0.04486   0.05761   0.00000  Uiso   1.00
H104   H     0.55165   0.06422   0.04305   0.00000  Uiso   1.00
H105   H     0.38624   0.24816   0.22656   0.00000  Uiso   1.00
H106   H     0.39289   0.26738   0.17105   0.00000  Uiso   1.00
N107   N     0.49999   0.16666   0.28573   0.00000  Uiso   1.00
N108   N     0.50001   0.16668   0.04760   0.00000  Uiso   1.00
O109   O     0.50000   0.10558   0.20487   0.00000  Uiso   1.00
O110   O     0.44524   0.29144   0.22780   0.00000  Uiso   1.00
O111   O     0.55918   0.28981   0.11042   0.00000  Uiso   1.00
O112   O     0.43741   0.04292   0.22169   0.00000  Uiso   1.00
O113   O     0.56487   0.21976   0.29429   0.00000  Uiso   1.00
O114   O     0.43402   0.11446   0.03892   0.00000  Uiso   1.00
O115   O     0.50000   0.22775   0.12846   0.00000  Uiso   1.00
O116   O     0.50000   0.10559   0.12843   0.00000  Uiso   1.00
O117   O     0.50000   0.22774   0.20490   0.00000  Uiso   1.00
O118   O     0.42392   0.16666   0.19595   0.00000  Uiso   1.00
O119   O     0.57608   0.16667   0.13739   0.00000  Uiso   1.00
O120   O     0.42392   0.16667   0.11950   0.00000  Uiso   1.00
O121   O     0.57608   0.16666   0.21383   0.00000  Uiso   1.00
O122   O     0.55741   0.04258   0.10880   0.00000  Uiso   1.00
Zn123  Zn    0.50000   0.16666   0.21771   0.00000  Uiso   1.00
Zn124  Zn    0.50000   0.16667   0.11563   0.00000  Uiso   1.00
C125   C     0.83311   0.08669   0.16632   0.00000  Uiso   1.00
C126   C     0.80035   0.02167   0.19351   0.00000  Uiso   1.00
C127   C     0.83298   0.29073   0.16702   0.00000  Uiso   1.00
C128   C     0.83089   0.04252   0.16501   0.00000  Uiso   1.00
C129   C     0.86614   0.19249   0.02862   0.00000  Uiso   1.00
C130   C     0.80048   0.14089   0.30471   0.00000  Uiso   1.00
C131   C     0.86677   0.19227   0.31380   0.00000  Uiso   1.00
C132   C     0.79961   0.14131   0.01949   0.00000  Uiso   1.00
C133   C     0.86762   0.03967   0.06240   0.00000  Uiso   1.00
C134   C     0.72874   0.27641   0.20787   0.00000  Uiso   1.00
C135   C     0.94329   0.28470   0.13500   0.00000  Uiso   1.00
C136   C     0.83350   0.24660   0.16693   0.00000  Uiso   1.00
C137   C     0.72327   0.05578   0.19536   0.00000  Uiso   1.00
C138   C     0.95148   0.21038   0.30902   0.00000  Uiso   1.00
C139   C     0.71437   0.12449   0.02375   0.00000  Uiso   1.00
C140   C     0.73371   0.16710   0.15470   0.00000  Uiso   1.00
C141   C     0.93297   0.16684   0.17864   0.00000  Uiso   1.00
C142   C     0.67868   0.16750   0.14825   0.00000  Uiso   1.00
C143   C     0.98800   0.16710   0.18509   0.00000  Uiso   1.00
C144   C     0.85987   0.02113   0.13550   0.00000  Uiso   1.00
C145   C     0.80238   0.31206   0.19530   0.00000  Uiso   1.00
C146   C     0.86230   0.31151   0.13771   0.00000  Uiso   1.00
H147   H     0.89148   0.21353   0.05072   0.00000  Uiso   1.00
H148   H     0.69836   0.29987   0.21229   0.00000  Uiso   1.00
H149   H     0.96321   0.31531   0.14246   0.00000  Uiso   1.00
H150   H     0.94240   0.26724   0.16725   0.00000  Uiso   1.00
H151   H     0.96691   0.26622   0.11358   0.00000  Uiso   1.00
H152   H     0.70204   0.02950   0.17589   0.00000  Uiso   1.00
H153   H     0.69735   0.06872   0.21880   0.00000  Uiso   1.00
H154   H     0.73009   0.08069   0.17117   0.00000  Uiso   1.00
H155   H     0.97575   0.22802   0.28768   0.00000  Uiso   1.00
H156   H     0.95980   0.17668   0.30446   0.00000  Uiso   1.00
H157   H     0.96385   0.22032   0.01185   0.00000  Uiso   1.00
H158   H     0.77507   0.11990   0.28261   0.00000  Uiso   1.00
H159   H     0.70213   0.11448   0.32093   0.00000  Uiso   1.00
H160   H     0.70673   0.15834   0.02807   0.00000  Uiso   1.00
H161   H     0.68949   0.10735   0.04497   0.00000  Uiso   1.00
H162   H     0.99142   0.16790   0.11330   0.00000  Uiso   1.00
H163   H     0.67526   0.16676   0.22004   0.00000  Uiso   1.00
H164   H     0.87631   0.00913   0.04729   0.00000  Uiso   1.00
H165   H     0.82440   0.04486   0.05761   0.00000  Uiso   1.00
H166   H     0.88499   0.06422   0.04305   0.00000  Uiso   1.00
H167   H     0.71957   0.24816   0.22656   0.00000  Uiso   1.00
H168   H     0.72622   0.26738   0.17105   0.00000  Uiso   1.00
N169   N     0.83332   0.16666   0.28573   0.00000  Uiso   1.00
N170   N     0.83335   0.16668   0.04760   0.00000  Uiso   1.00
O171   O     0.83333   0.10558   0.20487   0.00000  Uiso   1.00
O172   O     0.77858   0.29144   0.22780   0.00000  Uiso   1.00
O173   O     0.89252   0.28981   0.11042   0.00000  Uiso   1.00
O174   O     0.77074   0.04292   0.22169   0.00000  Uiso   1.00
O175   O     0.89820   0.21976   0.29429   0.00000  Uiso   1.00
O176   O     0.76735   0.11446   0.03892   0.00000  Uiso   1.00
O177   O     0.83334   0.22775   0.12846   0.00000  Uiso   1.00
O178   O     0.83333   0.10559   0.12843   0.00000  Uiso   1.00
O179   O     0.83334   0.22774   0.20490   0.00000  Uiso   1.00
O180   O     0.75725   0.16666   0.19595   0.00000  Uiso   1.00
O181   O     0.90942   0.16667   0.13739   0.00000  Uiso   1.00
O182   O     0.75725   0.16667   0.11950   0.00000  Uiso   1.00
O183   O     0.90942   0.16666   0.21383   0.00000  Uiso   1.00
O184   O     0.89074   0.04258   0.10880   0.00000  Uiso   1.00
Zn185  Zn    0.83333   0.16666   0.21771   0.00000  Uiso   1.00
Zn186  Zn    0.83333   0.16667   0.11563   0.00000  Uiso   1.00
C187   C     0.16645   0.42003   0.16632   0.00000  Uiso   1.00
C188   C     0.13368   0.35500   0.19351   0.00000  Uiso   1.00
C189   C     0.16631   0.62406   0.16702   0.00000  Uiso   1.00
C190   C     0.16422   0.37586   0.16501   0.00000  Uiso   1.00
C191   C     0.19947   0.52582   0.02862   0.00000  Uiso   1.00
C192   C     0.13381   0.47423   0.30471   0.00000  Uiso   1.00
C193   C     0.20010   0.52560   0.31380   0.00000  Uiso   1.00
C194   C     0.13295   0.47465   0.01949   0.00000  Uiso   1.00
C195   C     0.20095   0.37300   0.06240   0.00000  Uiso   1.00
C196   C     0.06207   0.60975   0.20787   0.00000  Uiso   1.00
C197   C     0.27663   0.61803   0.13500   0.00000  Uiso   1.00
C198   C     0.16684   0.57993   0.16693   0.00000  Uiso   1.00
C199   C     0.05660   0.38911   0.19536   0.00000  Uiso   1.00
C200   C     0.28482   0.54372   0.30902   0.00000  Uiso   1.00
C201   C     0.04770   0.45782   0.02375   0.00000  Uiso   1.00
C202   C     0.06704   0.50044   0.15470   0.00000  Uiso   1.00
C203   C     0.26630   0.50017   0.17864   0.00000  Uiso   1.00
C204   C     0.01201   0.50083   0.14825   0.00000  Uiso   1.00
C205   C     0.32133   0.50044   0.18509   0.00000  Uiso   1.00
C206   C     0.19321   0.35446   0.13550   0.00000  Uiso   1.00
C207   C     0.13571   0.64539   0.19530   0.00000  Uiso   1.00
C208   C     0.19563   0.64485   0.13771   0.00000  Uiso   1.00
H209   H     0.22481   0.54686   0.05072   0.00000  Uiso   1.00
H210   H     0.03169   0.63321   0.21229   0.00000  Uiso   1.00
H211   H     0.29654   0.64864   0.14246   0.00000  Uiso   1.00
H212   H     0.27574   0.60057   0.16725   0.00000  Uiso   1.00
H213   H     0.30024   0.59955   0.11358   0.00000  Uiso   1.00
H214   H     0.03538   0.36284   0.17589   0.00000  Uiso   1.00
H215   H     0.03068   0.40205   0.21880   0.00000  Uiso   1.00
H216   H     0.06342   0.41402   0.17117   0.00000  Uiso   1.00
H217   H     0.30908   0.56135   0.28768   0.00000  Uiso   1.00
H218   H     0.29314   0.51001   0.30446   0.00000  Uiso   1.00
H219   H     0.29718   0.55365   0.01185   0.00000  Uiso   1.00
H220   H     0.10840   0.45324   0.28261   0.00000  Uiso   1.00
H221   H     0.03547   0.44781   0.32093   0.00000  Uiso   1.00
H222   H     0.04006   0.49168   0.02807   0.00000  Uiso   1.00
H223   H     0.02282   0.44069   0.04497   0.00000  Uiso   1.00
H224   H     0.32475   0.50124   0.11330   0.00000  Uiso   1.00
H225   H     0.00860   0.50009   0.22004   0.00000  Uiso   1.00
H226   H     0.20965   0.34246   0.04729   0.00000  Uiso   1.00
H227   H     0.15773   0.37820   0.05761   0.00000  Uiso   1.00
H228   H     0.21832   0.39755   0.04305   0.00000  Uiso   1.00
H229   H     0.05291   0.58150   0.22656   0.00000  Uiso   1.00
H230   H     0.05956   0.60072   0.17105   0.00000  Uiso   1.00
N231   N     0.16665   0.49999   0.28573   0.00000  Uiso   1.00
N232   N     0.16668   0.50001   0.04760   0.00000  Uiso   1.00
O233   O     0.16666   0.43892   0.20487   0.00000  Uiso   1.00
O234   O     0.11191   0.62478   0.22780   0.00000  Uiso   1.00
O235   O     0.22585   0.62314   0.11042   0.00000  Uiso   1.00
O236   O     0.10407   0.37625   0.22169   0.00000  Uiso   1.00
O237   O     0.23154   0.55309   0.29429   0.00000  Uiso   1.00
O238   O     0.10069   0.44779   0.03892   0.00000  Uiso   1.00
O239   O     0.16667   0.56108   0.12846   0.00000  Uiso   1.00
O240   O     0.16666   0.43893   0.12843   0.00000  Uiso   1.00
O241   O     0.16667   0.56107   0.20490   0.00000  Uiso   1.00
O242   O     0.09058   0.50000   0.19595   0.00000  Uiso   1.00
O243   O     0.24275   0.50000   0.13739   0.00000  Uiso   1.00
O244   O     0.09058   0.50000   0.11950   0.00000  Uiso   1.00
O245   O     0.24275   0.50000   0.21383   0.00000  Uiso   1.00
O246   O     0.22407   0.37591   0.10880   0.00000  Uiso   1.00
Zn247  Zn    0.16667   0.49999   0.21771   0.00000  Uiso   1.00
Zn248  Zn    0.16667   0.50001   0.11563   0.00000  Uiso   1.00
C249   C     0.49978   0.42003   0.16632   0.00000  Uiso   1.00
C250   C     0.46701   0.35500   0.19351   0.00000  Uiso   1.00
C251   C     0.49964   0.62406   0.16702   0.00000  Uiso   1.00
C252   C     0.49756   0.37586   0.16501   0.00000  Uiso   1.00
C253   C     0.53281   0.52582   0.02862   0.00000  Uiso   1.00
C254   C     0.46714   0.47423   0.30471   0.00000  Uiso   1.00
C255   C     0.53344   0.52560   0.31380   0.00000  Uiso   1.00
C256   C     0.46628   0.47465   0.01949   0.00000  Uiso   1.00
C257   C     0.53429   0.37300   0.06240   0.00000  Uiso   1.00
C258   C     0.39540   0.60975   0.20787   0.00000  Uiso   1.00
C259   C     0.60996   0.61803   0.13500   0.00000  Uiso   1.00
C260   C     0.50017   0.57993   0.16693   0.00000  Uiso   1.00
C261   C     0.38994   0.38911   0.19536   0.00000  Uiso   1.00
C262   C     0.61815   0.54372   0.30902   0.00000  Uiso   1.00
C263   C     0.38104   0.45782   0.02375   0.00000  Uiso   1.00
C264   C     0.40037   0.50044   0.15470   0.00000  Uiso   1.00
C265   C     0.59964   0.50017   0.17864   0.00000  Uiso   1.00
C266   C     0.34534   0.50083   0.14825   0.00000  Uiso   1.00
C267   C     0.65466   0.50044   0.18509   0.00000  Uiso   1.00
C268   C     0.52654   0.35446   0.13550   0.00000  Uiso   1.00
C269   C     0.46904   0.64539   0.19530   0.00000  Uiso   1.00
C270   C     0.52897   0.64485   0.13771   0.00000  Uiso   1.00
H271   H     0.55814   0.54686   0.05072   0.00000  Uiso   1.00
H272   H     0.36503   0.63321   0.21229   0.00000  Uiso   1.00
H273   H     0.62988   0.64864   0.14246   0.00000  Uiso   1.00
H274   H     0.60907   0.60057   0.16725   0.00000  Uiso   1.00
H275   H     0.63358   0.59955   0.11358   0.00000  Uiso   1.00
H276   H     0.36871   0.36284   0.17589   0.00000  Uiso   1.00
H277   H     0.36401   0.40205   0.21880   0.00000  Uiso   1.00
H278   H     0.39676   0.41402   0.17117   0.00000  Uiso   1.00
H279   H     0.64241   0.56135   0.28768   0.00000  Uiso   1.00
H280   H     0.62647   0.51001   0.30446   0.00000  Uiso   1.00
H281   H     0.63051   0.55365   0.01185   0.00000  Uiso   1.00
H282   H     0.44174   0.45324   0.28261   0.00000  Uiso   1.00
H283   H     0.36880   0.44781   0.32093   0.00000  Uiso   1.00
H284   H     0.37340   0.49168   0.02807   0.00000  Uiso   1.00
H285   H     0.35616   0.44069   0.04497   0.00000  Uiso   1.00
H286   H     0.65808   0.50124   0.11330   0.00000  Uiso   1.00
H287   H     0.34193   0.50009   0.22004   0.00000  Uiso   1.00
H288   H     0.54298   0.34246   0.04729   0.00000  Uiso   1.00
H289   H     0.49107   0.37820   0.05761   0.00000  Uiso   1.00
H290   H     0.55165   0.39755   0.04305   0.00000  Uiso   1.00
H291   H     0.38624   0.58150   0.22656   0.00000  Uiso   1.00
H292   H     0.39289   0.60072   0.17105   0.00000  Uiso   1.00
N293   N     0.49999   0.49999   0.28573   0.00000  Uiso   1.00
N294   N     0.50001   0.50001   0.04760   0.00000  Uiso   1.00
O295   O     0.50000   0.43892   0.20487   0.00000  Uiso   1.00
O296   O     0.44524   0.62478   0.22780   0.00000  Uiso   1.00
O297   O     0.55918   0.62314   0.11042   0.00000  Uiso   1.00
O298   O     0.43741   0.37625   0.22169   0.00000  Uiso   1.00
O299   O     0.56487   0.55309   0.29429   0.00000  Uiso   1.00
O300   O     0.43402   0.44779   0.03892   0.00000  Uiso   1.00
O301   O     0.50000   0.56108   0.12846   0.00000  Uiso   1.00
O302   O     0.50000   0.43893   0.12843   0.00000  Uiso   1.00
O303   O     0.50000   0.56107   0.20490   0.00000  Uiso   1.00
O304   O     0.42392   0.50000   0.19595   0.00000  Uiso   1.00
O305   O     0.57608   0.50000   0.13739   0.00000  Uiso   1.00
O306   O     0.42392   0.50000   0.11950   0.00000  Uiso   1.00
O307   O     0.57608   0.50000   0.21383   0.00000  Uiso   1.00
O308   O     0.55741   0.37591   0.10880   0.00000  Uiso   1.00
Zn309  Zn    0.50000   0.49999   0.21771   0.00000  Uiso   1.00
Zn310  Zn    0.50000   0.50001   0.11563   0.00000  Uiso   1.00
C311   C     0.83311   0.42003   0.16632   0.00000  Uiso   1.00
C312   C     0.80035   0.35500   0.19351   0.00000  Uiso   1.00
C313   C     0.83298   0.62406   0.16702   0.00000  Uiso   1.00
C314   C     0.83089   0.37586   0.16501   0.00000  Uiso   1.00
C315   C     0.86614   0.52582   0.02862   0.00000  Uiso   1.00
C316   C     0.80048   0.47423   0.30471   0.00000  Uiso   1.00
C317   C     0.86677   0.52560   0.31380   0.00000  Uiso   1.00
C318   C     0.79961   0.47465   0.01949   0.00000  Uiso   1.00
C319   C     0.86762   0.37300   0.06240   0.00000  Uiso   1.00
C320   C     0.72874   0.60975   0.20787   0.00000  Uiso   1.00
C321   C     0.94329   0.61803   0.13500   0.00000  Uiso   1.00
C322   C     0.83350   0.57993   0.16693   0.00000  Uiso   1.00
C323   C     0.72327   0.38911   0.19536   0.00000  Uiso   1.00
C324   C     0.95148   0.54372   0.30902   0.00000  Uiso   1.00
C325   C     0.71437   0.45782   0.02375   0.00000  Uiso   1.00
C326   C     0.73371   0.50044   0.15470   0.00000  Uiso   1.00
C327   C     0.93297   0.50017   0.17864   0.00000  Uiso   1.00
C328   C     0.67868   0.50083   0.14825   0.00000  Uiso   1.00
C329   C     0.98800   0.50044   0.18509   0.00000  Uiso   1.00
C330   C     0.85987   0.35446   0.13550   0.00000  Uiso   1.00
C331   C     0.80238   0.64539   0.19530   0.00000  Uiso   1.00
C332   C     0.86230   0.64485   0.13771   0.00000  Uiso   1.00
H333   H     0.89148   0.54686   0.05072   0.00000  Uiso   1.00
H334   H     0.69836   0.63321   0.21229   0.00000  Uiso   1.00
H335   H     0.96321   0.64864   0.14246   0.00000  Uiso   1.00
H336   H     0.94240   0.60057   0.16725   0.00000  Uiso   1.00
H337   H     0.96691   0.59955   0.11358   0.00000  Uiso   1.00
H338   H     0.70204   0.36284   0.17589   0.00000  Uiso   1.00
H339   H     0.69735   0.40205   0.21880   0.00000  Uiso   1.00
H340   H     0.73009   0.41402   0.17117   0.00000  Uiso   1.00
H341   H     0.97575   0.56135   0.28768   0.00000  Uiso   1.00
H342   H     0.95980   0.51001   0.30446   0.00000  Uiso   1.00
H343   H     0.96385   0.55365   0.01185   0.00000  Uiso   1.00
H344   H     0.77507   0.45324   0.28261   0.00000  Uiso   1.00
H345   H     0.70213   0.44781   0.32093   0.00000  Uiso   1.00
H346   H     0.70673   0.49168   0.02807   0.00000  Uiso   1.00
H347   H     0.68949   0.44069   0.04497   0.00000  Uiso   1.00
H348   H     0.99142   0.50124   0.11330   0.00000  Uiso   1.00
H349   H     0.67526   0.50009   0.22004   0.00000  Uiso   1.00
H350   H     0.87631   0.34246   0.04729   0.00000  Uiso   1.00
H351   H     0.82440   0.37820   0.05761   0.00000  Uiso   1.00
H352   H     0.88499   0.39755   0.04305   0.00000  Uiso   1.00
H353   H     0.71957   0.58150   0.22656   0.00000  Uiso   1.00
H354   H     0.72622   0.60072   0.17105   0.00000  Uiso   1.00
N355   N     0.83332   0.49999   0.28573   0.00000  Uiso   1.00
N356   N     0.83335   0.50001   0.04760   0.00000  Uiso   1.00
O357   O     0.83333   0.43892   0.20487   0.00000  Uiso   1.00
O358   O     0.77858   0.62478   0.22780   0.00000  Uiso   1.00
O359   O     0.89252   0.62314   0.11042   0.00000  Uiso   1.00
O360   O     0.77074   0.37625   0.22169   0.00000  Uiso   1.00
O361   O     0.89820   0.55309   0.29429   0.00000  Uiso   1.00
O362   O     0.76735   0.44779   0.03892   0.00000  Uiso   1.00
O363   O     0.83334   0.56108   0.12846   0.00000  Uiso   1.00
O364   O     0.83333   0.43893   0.12843   0.00000  Uiso   1.00
O365   O     0.83334   0.56107   0.20490   0.00000  Uiso   1.00
O366   O     0.75725   0.50000   0.19595   0.00000  Uiso   1.00
O367   O     0.90942   0.50000   0.13739   0.00000  Uiso   1.00
O368   O     0.75725   0.50000   0.11950   0.00000  Uiso   1.00
O369   O     0.90942   0.50000   0.21383   0.00000  Uiso   1.00
O370   O     0.89074   0.37591   0.10880   0.00000  Uiso   1.00
Zn371  Zn    0.83333   0.49999   0.21771   0.00000  Uiso   1.00
Zn372  Zn    0.83333   0.50001   0.11563   0.00000  Uiso   1.00
C373   C     0.16645   0.75336   0.16632   0.00000  Uiso   1.00
C374   C     0.13368   0.68834   0.19351   0.00000  Uiso   1.00
C375   C     0.16631   0.95739   0.16702   0.00000  Uiso   1.00
C376   C     0.16422   0.70919   0.16501   0.00000  Uiso   1.00
C377   C     0.19947   0.85915   0.02862   0.00000  Uiso   1.00
C378   C     0.13381   0.80756   0.30471   0.00000  Uiso   1.00
C379   C     0.20010   0.85893   0.31380   0.00000  Uiso   1.00
C380   C     0.13295   0.80798   0.01949   0.00000  Uiso   1.00
C381   C     0.20095   0.70634   0.06240   0.00000  Uiso   1.00
C382   C     0.06207   0.94308   0.20787   0.00000  Uiso   1.00
C383   C     0.27663   0.95137   0.13500   0.00000  Uiso   1.00
C384   C     0.16684   0.91327   0.16693   0.00000  Uiso   1.00
C385   C     0.05660   0.72245   0.19536   0.00000  Uiso   1.00
C386   C     0.28482   0.87705   0.30902   0.00000  Uiso   1.00
C387   C     0.04770   0.79116   0.02375   0.00000  Uiso   1.00
C388   C     0.06704   0.83377   0.15470   0.00000  Uiso   1.00
C389   C     0.26630   0.83350   0.17864   0.00000  Uiso   1.00
C390   C     0.01201   0.83417   0.14825   0.00000  Uiso   1.00
C391   C     0.32133   0.83377   0.18509   0.00000  Uiso   1.00
C392   C     0.19321   0.68780   0.13550   0.00000  Uiso   1.00
C393   C     0.13571   0.97873   0.19530   0.00000  Uiso   1.00
C394   C     0.19563   0.97818   0.13771   0.00000  Uiso   1.00
H395   H     0.22481   0.88019   0.05072   0.00000  Uiso   1.00
H396   H     0.03169   0.96654   0.21229   0.00000  Uiso   1.00
H397   H     0.29654   0.98198   0.14246   0.00000  Uiso   1.00
H398   H     0.27574   0.93391   0.16725   0.00000  Uiso   1.00
H399   H     0.30024   0.93288   0.11358   0.00000  Uiso   1.00
H400   H     0.03538   0.69617   0.17589   0.00000  Uiso   1.00
H401   H     0.03068   0.73538   0.21880   0.00000  Uiso   1.00
H402   H     0.06342   0.74735   0.17117   0.00000  Uiso   1.00
H403   H     0.30908   0.89469   0.28768   0.00000  Uiso   1.00
H404   H     0.29314   0.84335   0.30446   0.00000  Uiso   1.00
H405   H     0.29718   0.88698   0.01185   0.00000  Uiso   1.00
H406   H     0.10840   0.78657   0.28261   0.00000  Uiso   1.00
H407   H     0.03547   0.78115   0.32093   0.00000  Uiso   1.00
H408   H     0.04006   0.82501   0.02807   0.00000  Uiso   1.00
H409   H     0.02282   0.77402   0.04497   0.00000  Uiso   1.00
H410   H     0.32475   0.83457   0.11330   0.00000  Uiso   1.00
H411   H     0.00860   0.83343   0.22004   0.00000  Uiso   1.00
H412   H     0.20965   0.67579   0.04729   0.00000  Uiso   1.00
H413   H     0.15773   0.71153   0.05761   0.00000  Uiso   1.00
H414   H     0.21832   0.73088   0.04305   0.00000  Uiso   1.00
H415   H     0.05291   0.91483   0.22656   0.00000  Uiso   1.00
H416   H     0.05956   0.93405   0.17105   0.00000  Uiso   1.00
N417   N     0.16665   0.83332   0.28573   0.00000  Uiso   1.00
N418   N     0.16668   0.83334   0.04760   0.00000  Uiso   1.00
O419   O     0.16666   0.77225   0.20487   0.00000  Uiso   1.00
O420   O     0.11191   0.95811   0.22780   0.00000  Uiso   1.00
O421   O     0.22585   0.95647   0.11042   0.00000  Uiso   1.00
O422   O     0.10407   0.70959   0.22169   0.00000  Uiso   1.00
O423   O     0.23154   0.88642   0.29429   0.00000  Uiso   1.00
O424   O     0.10069   0.78112   0.03892   0.00000  Uiso   1.00
O425   O     0.16667   0.89442   0.12846   0.00000  Uiso   1.00
O426   O     0.16666   0.77226   0.12843   0.00000  Uiso   1.00
O427   O     0.16667   0.89441   0.20490   0.00000  Uiso   1.00
O428   O     0.09058   0.83333   0.19595   0.00000  Uiso   1.00
O429   O     0.24275   0.83334   0.13739   0.00000  Uiso   1.00
O430   O     0.09058   0.83334   0.11950   0.00000  Uiso   1.00
O431   O     0.24275   0.83333   0.21383   0.00000  Uiso   1.00
O432   O     0.22407   0.70925   0.10880   0.00000  Uiso   1.00
Zn433  Zn    0.16667   0.83333   0.21771   0.00000  Uiso   1.00
Zn434  Zn    0.16667   0.83334   0.11563   0.00000  Uiso   1.00
C435   C     0.49978   0.75336   0.16632   0.00000  Uiso   1.00
C436   C     0.46701   0.68834   0.19351   0.00000  Uiso   1.00
C437   C     0.49964   0.95739   0.16702   0.00000  Uiso   1.00
C438   C     0.49756   0.70919   0.16501   0.00000  Uiso   1.00
C439   C     0.53281   0.85915   0.02862   0.00000  Uiso   1.00
C440   C     0.46714   0.80756   0.30471   0.00000  Uiso   1.00
C441   C     0.53344   0.85893   0.31380   0.00000  Uiso   1.00
C442   C     0.46628   0.80798   0.01949   0.00000  Uiso   1.00
C443   C     0.53429   0.70634   0.06240   0.00000  Uiso   1.00
C444   C     0.39540   0.94308   0.20787   0.00000  Uiso   1.00
C445   C     0.60996   0.95137   0.13500   0.00000  Uiso   1.00
C446   C     0.50017   0.91327   0.16693   0.00000  Uiso   1.00
C447   C     0.38994   0.72245   0.19536   0.00000  Uiso   1.00
C448   C     0.61815   0.87705   0.30902   0.00000  Uiso   1.00
C449   C     0.38104   0.79116   0.02375   0.00000  Uiso   1.00
C450   C     0.40037   0.83377   0.15470   0.00000  Uiso   1.00
C451   C     0.59964   0.83350   0.17864   0.00000  Uiso   1.00
C452   C     0.34534   0.83417   0.14825   0.00000  Uiso   1.00
C453   C     0.65466   0.83377   0.18509   0.00000  Uiso   1.00
C454   C     0.52654   0.68780   0.13550   0.00000  Uiso   1.00
C455   C     0.46904   0.97873   0.19530   0.00000  Uiso   1.00
C456   C     0.52897   0.97818   0.13771   0.00000  Uiso   1.00
H457   H     0.55814   0.88019   0.05072   0.00000  Uiso   1.00
H458   H     0.36503   0.96654   0.21229   0.00000  Uiso   1.00
H459   H     0.62988   0.98198   0.14246   0.00000  Uiso   1.00
H460   H     0.60907   0.93391   0.16725   0.00000  Uiso   1.00
H461   H     0.63358   0.93288   0.11358   0.00000  Uiso   1.00
H462   H     0.36871   0.69617   0.17589   0.00000  Uiso   1.00
H463   H     0.36401   0.73538   0.21880   0.00000  Uiso   1.00
H464   H     0.39676   0.74735   0.17117   0.00000  Uiso   1.00
H465   H     0.64241   0.89469   0.28768   0.00000  Uiso   1.00
H466   H     0.62647   0.84335   0.30446   0.00000  Uiso   1.00
H467   H     0.63051   0.88698   0.01185   0.00000  Uiso   1.00
H468   H     0.44174   0.78657   0.28261   0.00000  Uiso   1.00
H469   H     0.36880   0.78115   0.32093   0.00000  Uiso   1.00
H470   H     0.37340   0.82501   0.02807   0.00000  Uiso   1.00
H471   H     0.35616   0.77402   0.04497   0.00000  Uiso   1.00
H472   H     0.65808   0.83457   0.11330   0.00000  Uiso   1.00
H473   H     0.34193   0.83343   0.22004   0.00000  Uiso   1.00
H474   H     0.54298   0.67579   0.04729   0.00000  Uiso   1.00
H475   H     0.49107   0.71153   0.05761   0.00000  Uiso   1.00
H476   H     0.55165   0.73088   0.04305   0.00000  Uiso   1.00
H477   H     0.38624   0.91483   0.22656   0.00000  Uiso   1.00
H478   H     0.39289   0.93405   0.17105   0.00000  Uiso   1.00
N479   N     0.49999   0.83332   0.28573   0.00000  Uiso   1.00
N480   N     0.50001   0.83334   0.04760   0.00000  Uiso   1.00
O481   O     0.50000   0.77225   0.20487   0.00000  Uiso   1.00
O482   O     0.44524   0.95811   0.22780   0.00000  Uiso   1.00
O483   O     0.55918   0.95647   0.11042   0.00000  Uiso   1.00
O484   O     0.43741   0.70959   0.22169   0.00000  Uiso   1.00
O485   O     0.56487   0.88642   0.29429   0.00000  Uiso   1.00
O486   O     0.43402   0.78112   0.03892   0.00000  Uiso   1.00
O487   O     0.50000   0.89442   0.12846   0.00000  Uiso   1.00
O488   O     0.50000   0.77226   0.12843   0.00000  Uiso   1.00
O489   O     0.50000   0.89441   0.20490   0.00000  Uiso   1.00
O490   O     0.42392   0.83333   0.19595   0.00000  Uiso   1.00
O491   O     0.57608   0.83334   0.13739   0.00000  Uiso   1.00
O492   O     0.42392   0.83334   0.11950   0.00000  Uiso   1.00
O493   O     0.57608   0.83333   0.21383   0.00000  Uiso   1.00
O494   O     0.55741   0.70925   0.10880   0.00000  Uiso   1.00
Zn495  Zn    0.50000   0.83333   0.21771   0.00000  Uiso   1.00
Zn496  Zn    0.50000   0.83334   0.11563   0.00000  Uiso   1.00
C497   C     0.83311   0.75336   0.16632   0.00000  Uiso   1.00
C498   C     0.80035   0.68834   0.19351   0.00000  Uiso   1.00
C499   C     0.83298   0.95739   0.16702   0.00000  Uiso   1.00
C500   C     0.83089   0.70919   0.16501   0.00000  Uiso   1.00
C501   C     0.86614   0.85915   0.02862   0.00000  Uiso   1.00
C502   C     0.80048   0.80756   0.30471   0.00000  Uiso   1.00
C503   C     0.86677   0.85893   0.31380   0.00000  Uiso   1.00
C504   C     0.79961   0.80798   0.01949   0.00000  Uiso   1.00
C505   C     0.86762   0.70634   0.06240   0.00000  Uiso   1.00
C506   C     0.72874   0.94308   0.20787   0.00000  Uiso   1.00
C507   C     0.94329   0.95137   0.13500   0.00000  Uiso   1.00
C508   C     0.83350   0.91327   0.16693   0.00000  Uiso   1.00
C509   C     0.72327   0.72245   0.19536   0.00000  Uiso   1.00
C510   C     0.95148   0.87705   0.30902   0.00000  Uiso   1.00
C511   C     0.71437   0.79116   0.02375   0.00000  Uiso   1.00
C512   C     0.73371   0.83377   0.15470   0.00000  Uiso   1.00
C513   C     0.93297   0.83350   0.17864   0.00000  Uiso   1.00
C514   C     0.67868   0.83417   0.14825   0.00000  Uiso   1.00
C515   C     0.98800   0.83377   0.18509   0.00000  Uiso   1.00
C516   C     0.85987   0.68780   0.13550   0.00000  Uiso   1.00
C517   C     0.80238   0.97873   0.19530   0.00000  Uiso   1.00
C518   C     0.86230   0.97818   0.13771   0.00000  Uiso   1.00
H519   H     0.89148   0.88019   0.05072   0.00000  Uiso   1.00
H520   H     0.69836   0.96654   0.21229   0.00000  Uiso   1.00
H521   H     0.96321   0.98198   0.14246   0.00000  Uiso   1.00
H522   H     0.94240   0.93391   0.16725   0.00000  Uiso   1.00
H523   H     0.96691   0.93288   0.11358   0.00000  Uiso   1.00
H524   H     0.70204   0.69617   0.17589   0.00000  Uiso   1.00
H525   H     0.69735   0.73538   0.21880   0.00000  Uiso   1.00
H526   H     0.73009   0.74735   0.17117   0.00000  Uiso   1.00
H527   H     0.97575   0.89469   0.28768   0.00000  Uiso   1.00
H528   H     0.95980   0.84335   0.30446   0.00000  Uiso   1.00
H529   H     0.96385   0.88698   0.01185   0.00000  Uiso   1.00
H530   H     0.77507   0.78657   0.28261   0.00000  Uiso   1.00
H531   H     0.70213   0.78115   0.32093   0.00000  Uiso   1.00
H532   H     0.70673   0.82501   0.02807   0.00000  Uiso   1.00
H533   H     0.68949   0.77402   0.04497   0.00000  Uiso   1.00
H534   H     0.99142   0.83457   0.11330   0.00000  Uiso   1.00
H535   H     0.67526   0.83343   0.22004   0.00000  Uiso   1.00
H536   H     0.87631   0.67579   0.04729   0.00000  Uiso   1.00
H537   H     0.82440   0.71153   0.05761   0.00000  Uiso   1.00
H538   H     0.88499   0.73088   0.04305   0.00000  Uiso   1.00
H539   H     0.71957   0.91483   0.22656   0.00000  Uiso   1.00
H540   H     0.72622   0.93405   0.17105   0.00000  Uiso   1.00
N541   N     0.83332   0.83332   0.28573   0.00000  Uiso   1.00
N542   N     0.83335   0.83334   0.04760   0.00000  Uiso   1.00
O543   O     0.83333   0.77225   0.20487   0.00000  Uiso   1.00
O544   O     0.77858   0.95811   0.22780   0.00000  Uiso   1.00
O545   O     0.89252   0.95647   0.11042   0.00000  Uiso   1.00
O546   O     0.77074   0.70959   0.22169   0.00000  Uiso   1.00
O547   O     0.89820   0.88642   0.29429   0.00000  Uiso   1.00
O548   O     0.76735   0.78112   0.03892   0.00000  Uiso   1.00
O549   O     0.83334   0.89442   0.12846   0.00000  Uiso   1.00
O550   O     0.83333   0.77226   0.12843   0.00000  Uiso   1.00
O551   O     0.83334   0.89441   0.20490   0.00000  Uiso   1.00
O552   O     0.75725   0.83333   0.19595   0.00000  Uiso   1.00
O553   O     0.90942   0.83334   0.13739   0.00000  Uiso   1.00
O554   O     0.75725   0.83334   0.11950   0.00000  Uiso   1.00
O555   O     0.90942   0.83333   0.21383   0.00000  Uiso   1.00
O556   O     0.89074   0.70925   0.10880   0.00000  Uiso   1.00
Zn557  Zn    0.83333   0.83333   0.21771   0.00000  Uiso   1.00
Zn558  Zn    0.83333   0.83334   0.11563   0.00000  Uiso   1.00
C559   C     0.16645   0.08669   0.49965   0.00000  Uiso   1.00
C560   C     0.13368   0.02167   0.52684   0.00000  Uiso   1.00
C561   C     0.16631   0.29073   0.50035   0.00000  Uiso   1.00
C562   C     0.16422   0.04252   0.49835   0.00000  Uiso   1.00
C563   C     0.19947   0.19249   0.36195   0.00000  Uiso   1.00
C564   C     0.13381   0.14089   0.63804   0.00000  Uiso   1.00
C565   C     0.20010   0.19227   0.64713   0.00000  Uiso   1.00
C566   C     0.13295   0.14131   0.35283   0.00000  Uiso   1.00
C567   C     0.20095   0.03967   0.39573   0.00000  Uiso   1.00
C568   C     0.06207   0.27641   0.54121   0.00000  Uiso   1.00
C569   C     0.27663   0.28470   0.46833   0.00000  Uiso   1.00
C570   C     0.16684   0.24660   0.50026   0.00000  Uiso   1.00
C571   C     0.05660   0.05578   0.52870   0.00000  Uiso   1.00
C572   C     0.28482   0.21038   0.64236   0.00000  Uiso   1.00
C573   C     0.04770   0.12449   0.35708   0.00000  Uiso   1.00
C574   C     0.06704   0.16710   0.48803   0.00000  Uiso   1.00
C575   C     0.26630   0.16684   0.51197   0.00000  Uiso   1.00
C576   C     0.01201   0.16750   0.48158   0.00000  Uiso   1.00
C577   C     0.32133   0.16710   0.51842   0.00000  Uiso   1.00
C578   C     0.19321   0.02113   0.46884   0.00000  Uiso   1.00
C579   C     0.13571   0.31206   0.52863   0.00000  Uiso   1.00
C580   C     0.19563   0.31151   0.47104   0.00000  Uiso   1.00
H581   H     0.22481   0.21353   0.38405   0.00000  Uiso   1.00
H582   H     0.03169   0.29987   0.54562   0.00000  Uiso   1.00
H583   H     0.29654   0.31531   0.47579   0.00000  Uiso   1.00
H584   H     0.27574   0.26724   0.50058   0.00000  Uiso   1.00
H585   H     0.30024   0.26622   0.44692   0.00000  Uiso   1.00
H586   H     0.03538   0.02950   0.50922   0.00000  Uiso   1.00
H587   H     0.03068   0.06872   0.55213   0.00000  Uiso   1.00
H588   H     0.06342   0.08069   0.50450   0.00000  Uiso   1.00
H589   H     0.30908   0.22802   0.62102   0.00000  Uiso   1.00
H590   H     0.29314   0.17668   0.63780   0.00000  Uiso   1.00
H591   H     0.29718   0.22032   0.34518   0.00000  Uiso   1.00
H592   H     0.10840   0.11990   0.61594   0.00000  Uiso   1.00
H593   H     0.03547   0.11448   0.65426   0.00000  Uiso   1.00
H594   H     0.04006   0.15834   0.36140   0.00000  Uiso   1.00
H595   H     0.02282   0.10735   0.37830   0.00000  Uiso   1.00
H596   H     0.32475   0.16790   0.44663   0.00000  Uiso   1.00
H597   H     0.00860   0.16676   0.55338   0.00000  Uiso   1.00
H598   H     0.20965   0.00913   0.38062   0.00000  Uiso   1.00
H599   H     0.15773   0.04486   0.39095   0.00000  Uiso   1.00
H600   H     0.21832   0.06422   0.37638   0.00000  Uiso   1.00
H601   H     0.05291   0.24816   0.55989   0.00000  Uiso   1.00
H602   H     0.05956   0.26738   0.50438   0.00000  Uiso   1.00
N603   N     0.16665   0.16666   0.61907   0.00000  Uiso   1.00
N604   N     0.16668   0.16668   0.38093   0.00000  Uiso   1.00
O605   O     0.16666   0.10558   0.53821   0.00000  Uiso   1.00
O606   O     0.11191   0.29144   0.56114   0.00000  Uiso   1.00
O607   O     0.22585   0.28981   0.44375   0.00000  Uiso   1.00
O608   O     0.10407   0.04292   0.55503   0.00000  Uiso   1.00
O609   O     0.23154   0.21976   0.62762   0.00000  Uiso   1.00
O610   O     0.10069   0.11446   0.37225   0.00000  Uiso   1.00
O611   O     0.16667   0.22775   0.46179   0.00000  Uiso   1.00
O612   O     0.16666   0.10559   0.46176   0.00000  Uiso   1.00
O613   O     0.16667   0.22774   0.53824   0.00000  Uiso   1.00
O614   O     0.09058   0.16666   0.52928   0.00000  Uiso   1.00
O615   O     0.24275   0.16667   0.47072   0.00000  Uiso   1.00
O616   O     0.09058   0.16667   0.45284   0.00000  Uiso   1.00
O617   O     0.24275   0.16666   0.54716   0.00000  Uiso   1.00
O618   O     0.22407   0.04258   0.44213   0.00000  Uiso   1.00
Zn619  Zn    0.16667   0.16666   0.55104   0.00000  Uiso   1.00
Zn620  Zn    0.16667   0.16667   0.44896   0.00000  Uiso   1.00
C621   C     0.49978   0.08669   0.49965   0.00000  Uiso   1.00
C622   C     0.46701   0.02167   0.52684   0.00000  Uiso   1.00
C623   C     0.49964   0.29073   0.50035   0.00000  Uiso   1.00
C624   C     0.49756   0.04252   0.49835   0.00000  Uiso   1.00
C625   C     0.53281   0.19249   0.36195   0.00000  Uiso   1.00
C626   C     0.46714   0.14089   0.63804   0.00000  Uiso   1.00
C627   C     0.53344   0.19227   0.64713   0.00000  Uiso   1.00
C628   C     0.46628   0.14131   0.35283   0.00000  Uiso   1.00
C629   C     0.53429   0.03967   0.39573   0.00000  Uiso   1.00
C630   C     0.39540   0.27641   0.54121   0.00000  Uiso   1.00
C631   C     0.60996   0.28470   0.46833   0.00000  Uiso   1.00
C632   C     0.50017   0.24660   0.50026   0.00000  Uiso   1.00
C633   C     0.38994   0.05578   0.52870   0.00000  Uiso   1.00
C634   C     0.61815   0.21038   0.64236   0.00000  Uiso   1.00
C635   C     0.38104   0.12449   0.35708   0.00000  Uiso   1.00
C636   C     0.40037   0.16710   0.48803   0.00000  Uiso   1.00
C637   C     0.59964   0.16684   0.51197   0.00000  Uiso   1.00
C638   C     0.34534   0.16750   0.48158   0.00000  Uiso   1.00
C639   C     0.65466   0.16710   0.51842   0.00000  Uiso   1.00
C640   C     0.52654   0.02113   0.46884   0.00000  Uiso   1.00
C641   C     0.46904   0.31206   0.52863   0.00000  Uiso   1.00
C642   C     0.52897   0.31151   0.47104   0.00000  Uiso   1.00
H643   H     0.55814   0.21353   0.38405   0.00000  Uiso   1.00
H644   H     0.36503   0.29987   0.54562   0.00000  Uiso   1.00
H645   H     0.62988   0.31531   0.47579   0.00000  Uiso   1.00
H646   H     0.60907   0.26724   0.50058   0.00000  Uiso   1.00
H647   H     0.63358   0.26622   0.44692   0.00000  Uiso   1.00
H648   H     0.36871   0.02950   0.50922   0.00000  Uiso   1.00
H649   H     0.36401   0.06872   0.55213   0.00000  Uiso   1.00
H650   H     0.39676   0.08069   0.50450   0.00000  Uiso   1.00
H651   H     0.64241   0.22802   0.62102   0.00000  Uiso   1.00
H652   H     0.62647   0.17668   0.63780   0.00000  Uiso   1.00
H653   H     0.63051   0.22032   0.34518   0.00000  Uiso   1.00
H654   H     0.44174   0.11990   0.61594   0.00000  Uiso   1.00
H655   H     0.36880   0.11448   0.65426   0.00000  Uiso   1.00
H656   H     0.37340   0.15834   0.36140   0.00000  Uiso   1.00
H657   H     0.35616   0.10735   0.37830   0.00000  Uiso   1.00
H658   H     0.65808   0.16790   0.44663   0.00000  Uiso   1.00
H659   H     0.34193   0.16676   0.55338   0.00000  Uiso   1.00
H660   H     0.54298   0.00913   0.38062   0.00000  Uiso   1.00
H661   H     0.49107   0.04486   0.39095   0.00000  Uiso   1.00
H662   H     0.55165   0.06422   0.37638   0.00000  Uiso   1.00
H663   H     0.38624   0.24816   0.55989   0.00000  Uiso   1.00
H664   H     0.39289   0.26738   0.50438   0.00000  Uiso   1.00
N665   N     0.49999   0.16666   0.61907   0.00000  Uiso   1.00
N666   N     0.50001   0.16668   0.38093   0.00000  Uiso   1.00
O667   O     0.50000   0.10558   0.53821   0.00000  Uiso   1.00
O668   O     0.44524   0.29144   0.56114   0.00000  Uiso   1.00
O669   O     0.55918   0.28981   0.44375   0.00000  Uiso   1.00
O670   O     0.43741   0.04292   0.55503   0.00000  Uiso   1.00
O671   O     0.56487   0.21976   0.62762   0.00000  Uiso   1.00
O672   O     0.43402   0.11446   0.37225   0.00000  Uiso   1.00
O673   O     0.50000   0.22775   0.46179   0.00000  Uiso   1.00
O674   O     0.50000   0.10559   0.46176   0.00000  Uiso   1.00
O675   O     0.50000   0.22774   0.53824   0.00000  Uiso   1.00
O676   O     0.42392   0.16666   0.52928   0.00000  Uiso   1.00
O677   O     0.57608   0.16667   0.47072   0.00000  Uiso   1.00
O678   O     0.42392   0.16667   0.45284   0.00000  Uiso   1.00
O679   O     0.57608   0.16666   0.54716   0.00000  Uiso   1.00
O680   O     0.55741   0.04258   0.44213   0.00000  Uiso   1.00
Zn681  Zn    0.50000   0.16666   0.55104   0.00000  Uiso   1.00
Zn682  Zn    0.50000   0.16667   0.44896   0.00000  Uiso   1.00
C683   C     0.83311   0.08669   0.49965   0.00000  Uiso   1.00
C684   C     0.80035   0.02167   0.52684   0.00000  Uiso   1.00
C685   C     0.83298   0.29073   0.50035   0.00000  Uiso   1.00
C686   C     0.83089   0.04252   0.49835   0.00000  Uiso   1.00
C687   C     0.86614   0.19249   0.36195   0.00000  Uiso   1.00
C688   C     0.80048   0.14089   0.63804   0.00000  Uiso   1.00
C689   C     0.86677   0.19227   0.64713   0.00000  Uiso   1.00
C690   C     0.79961   0.14131   0.35283   0.00000  Uiso   1.00
C691   C     0.86762   0.03967   0.39573   0.00000  Uiso   1.00
C692   C     0.72874   0.27641   0.54121   0.00000  Uiso   1.00
C693   C     0.94329   0.28470   0.46833   0.00000  Uiso   1.00
C694   C     0.83350   0.24660   0.50026   0.00000  Uiso   1.00
C695   C     0.72327   0.05578   0.52870   0.00000  Uiso   1.00
C696   C     0.95148   0.21038   0.64236   0.00000  Uiso   1.00
C697   C     0.71437   0.12449   0.35708   0.00000  Uiso   1.00
C698   C     0.73371   0.16710   0.48803   0.00000  Uiso   1.00
C699   C     0.93297   0.16684   0.51197   0.00000  Uiso   1.00
C700   C     0.67868   0.16750   0.48158   0.00000  Uiso   1.00
C701   C     0.98800   0.16710   0.51842   0.00000  Uiso   1.00
C702   C     0.85987   0.02113   0.46884   0.00000  Uiso   1.00
C703   C     0.80238   0.31206   0.52863   0.00000  Uiso   1.00
C704   C     0.86230   0.31151   0.47104   0.00000  Uiso   1.00
H705   H     0.89148   0.21353   0.38405   0.00000  Uiso   1.00
H706   H     0.69836   0.29987   0.54562   0.00000  Uiso   1.00
H707   H     0.96321   0.31531   0.47579   0.00000  Uiso   1.00
H708   H     0.94240   0.26724   0.50058   0.00000  Uiso   1.00
H709   H     0.96691   0.26622   0.44692   0.00000  Uiso   1.00
H710   H     0.70204   0.02950   0.50922   0.00000  Uiso   1.00
H711   H     0.69735   0.06872   0.55213   0.00000  Uiso   1.00
H712   H     0.73009   0.08069   0.50450   0.00000  Uiso   1.00
H713   H     0.97575   0.22802   0.62102   0.00000  Uiso   1.00
H714   H     0.95980   0.17668   0.63780   0.00000  Uiso   1.00
H715   H     0.96385   0.22032   0.34518   0.00000  Uiso   1.00
H716   H     0.77507   0.11990   0.61594   0.00000  Uiso   1.00
H717   H     0.70213   0.11448   0.65426   0.00000  Uiso   1.00
H718   H     0.70673   0.15834   0.36140   0.00000  Uiso   1.00
H719   H     0.68949   0.10735   0.37830   0.00000  Uiso   1.00
H720   H     0.99142   0.16790   0.44663   0.00000  Uiso   1.00
H721   H     0.67526   0.16676   0.55338   0.00000  Uiso   1.00
H722   H     0.87631   0.00913   0.38062   0.00000  Uiso   1.00
H723   H     0.82440   0.04486   0.39095   0.00000  Uiso   1.00
H724   H     0.88499   0.06422   0.37638   0.00000  Uiso   1.00
H725   H     0.71957   0.24816   0.55989   0.00000  Uiso   1.00
H726   H     0.72622   0.26738   0.50438   0.00000  Uiso   1.00
N727   N     0.83332   0.16666   0.61907   0.00000  Uiso   1.00
N728   N     0.83335   0.16668   0.38093   0.00000  Uiso   1.00
O729   O     0.83333   0.10558   0.53821   0.00000  Uiso   1.00
O730   O     0.77858   0.29144   0.56114   0.00000  Uiso   1.00
O731   O     0.89252   0.28981   0.44375   0.00000  Uiso   1.00
O732   O     0.77074   0.04292   0.55503   0.00000  Uiso   1.00
O733   O     0.89820   0.21976   0.62762   0.00000  Uiso   1.00
O734   O     0.76735   0.11446   0.37225   0.00000  Uiso   1.00
O735   O     0.83334   0.22775   0.46179   0.00000  Uiso   1.00
O736   O     0.83333   0.10559   0.46176   0.00000  Uiso   1.00
O737   O     0.83334   0.22774   0.53824   0.00000  Uiso   1.00
O738   O     0.75725   0.16666   0.52928   0.00000  Uiso   1.00
O739   O     0.90942   0.16667   0.47072   0.00000  Uiso   1.00
O740   O     0.75725   0.16667   0.45284   0.00000  Uiso   1.00
O741   O     0.90942   0.16666   0.54716   0.00000  Uiso   1.00
O742   O     0.89074   0.04258   0.44213   0.00000  Uiso   1.00
Zn743  Zn    0.83333   0.16666   0.55104   0.00000  Uiso   1.00
Zn744  Zn    0.83333   0.16667   0.44896   0.00000  Uiso   1.00
C745   C     0.16645   0.42003   0.49965   0.00000  Uiso   1.00
C746   C     0.13368   0.35500   0.52684   0.00000  Uiso   1.00
C747   C     0.16631   0.62406   0.50035   0.00000  Uiso   1.00
C748   C     0.16422   0.37586   0.49835   0.00000  Uiso   1.00
C749   C     0.19947   0.52582   0.36195   0.00000  Uiso   1.00
C750   C     0.13381   0.47423   0.63804   0.00000  Uiso   1.00
C751   C     0.20010   0.52560   0.64713   0.00000  Uiso   1.00
C752   C     0.13295   0.47465   0.35283   0.00000  Uiso   1.00
C753   C     0.20095   0.37300   0.39573   0.00000  Uiso   1.00
C754   C     0.06207   0.60975   0.54121   0.00000  Uiso   1.00
C755   C     0.27663   0.61803   0.46833   0.00000  Uiso   1.00
C756   C     0.16684   0.57993   0.50026   0.00000  Uiso   1.00
C757   C     0.05660   0.38911   0.52870   0.00000  Uiso   1.00
C758   C     0.28482   0.54372   0.64236   0.00000  Uiso   1.00
C759   C     0.04770   0.45782   0.35708   0.00000  Uiso   1.00
C760   C     0.06704   0.50044   0.48803   0.00000  Uiso   1.00
C761   C     0.26630   0.50017   0.51197   0.00000  Uiso   1.00
C762   C     0.01201   0.50083   0.48158   0.00000  Uiso   1.00
C763   C     0.32133   0.50044   0.51842   0.00000  Uiso   1.00
C764   C     0.19321   0.35446   0.46884   0.00000  Uiso   1.00
C765   C     0.13571   0.64539   0.52863   0.00000  Uiso   1.00
C766   C     0.19563   0.64485   0.47104   0.00000  Uiso   1.00
H767   H     0.22481   0.54686   0.38405   0.00000  Uiso   1.00
H768   H     0.03169   0.63321   0.54562   0.00000  Uiso   1.00
H769   H     0.29654   0.64864   0.47579   0.00000  Uiso   1.00
H770   H     0.27574   0.60057   0.50058   0.00000  Uiso   1.00
H771   H     0.30024   0.59955   0.44692   0.00000  Uiso   1.00
H772   H     0.03538   0.36284   0.50922   0.00000  Uiso   1.00
H773   H     0.03068   0.40205   0.55213   0.00000  Uiso   1.00
H774   H     0.06342   0.41402   0.50450   0.00000  Uiso   1.00
H775   H     0.30908   0.56135   0.62102   0.00000  Uiso   1.00
H776   H     0.29314   0.51001   0.63780   0.00000  Uiso   1.00
H777   H     0.29718   0.55365   0.34518   0.00000  Uiso   1.00
H778   H     0.10840   0.45324   0.61594   0.00000  Uiso   1.00
H779   H     0.03547   0.44781   0.65426   0.00000  Uiso   1.00
H780   H     0.04006   0.49168   0.36140   0.00000  Uiso   1.00
H781   H     0.02282   0.44069   0.37830   0.00000  Uiso   1.00
H782   H     0.32475   0.50124   0.44663   0.00000  Uiso   1.00
H783   H     0.00860   0.50009   0.55338   0.00000  Uiso   1.00
H784   H     0.20965   0.34246   0.38062   0.00000  Uiso   1.00
H785   H     0.15773   0.37820   0.39095   0.00000  Uiso   1.00
H786   H     0.21832   0.39755   0.37638   0.00000  Uiso   1.00
H787   H     0.05291   0.58150   0.55989   0.00000  Uiso   1.00
H788   H     0.05956   0.60072   0.50438   0.00000  Uiso   1.00
N789   N     0.16665   0.49999   0.61907   0.00000  Uiso   1.00
N790   N     0.16668   0.50001   0.38093   0.00000  Uiso   1.00
O791   O     0.16666   0.43892   0.53821   0.00000  Uiso   1.00
O792   O     0.11191   0.62478   0.56114   0.00000  Uiso   1.00
O793   O     0.22585   0.62314   0.44375   0.00000  Uiso   1.00
O794   O     0.10407   0.37625   0.55503   0.00000  Uiso   1.00
O795   O     0.23154   0.55309   0.62762   0.00000  Uiso   1.00
O796   O     0.10069   0.44779   0.37225   0.00000  Uiso   1.00
O797   O     0.16667   0.56108   0.46179   0.00000  Uiso   1.00
O798   O     0.16666   0.43893   0.46176   0.00000  Uiso   1.00
O799   O     0.16667   0.56107   0.53824   0.00000  Uiso   1.00
O800   O     0.09058   0.50000   0.52928   0.00000  Uiso   1.00
O801   O     0.24275   0.50000   0.47072   0.00000  Uiso   1.00
O802   O     0.09058   0.50000   0.45284   0.00000  Uiso   1.00
O803   O     0.24275   0.50000   0.54716   0.00000  Uiso   1.00
O804   O     0.22407   0.37591   0.44213   0.00000  Uiso   1.00
Zn805  Zn    0.16667   0.49999   0.55104   0.00000  Uiso   1.00
Zn806  Zn    0.16667   0.50001   0.44896   0.00000  Uiso   1.00
C807   C     0.49978   0.42003   0.49965   0.00000  Uiso   1.00
C808   C     0.46701   0.35500   0.52684   0.00000  Uiso   1.00
C809   C     0.49964   0.62406   0.50035   0.00000  Uiso   1.00
C810   C     0.49756   0.37586   0.49835   0.00000  Uiso   1.00
C811   C     0.53281   0.52582   0.36195   0.00000  Uiso   1.00
C812   C     0.46714   0.47423   0.63804   0.00000  Uiso   1.00
C813   C     0.53344   0.52560   0.64713   0.00000  Uiso   1.00
C814   C     0.46628   0.47465   0.35283   0.00000  Uiso   1.00
C815   C     0.53429   0.37300   0.39573   0.00000  Uiso   1.00
C816   C     0.39540   0.60975   0.54121   0.00000  Uiso   1.00
C817   C     0.60996   0.61803   0.46833   0.00000  Uiso   1.00
C818   C     0.50017   0.57993   0.50026   0.00000  Uiso   1.00
C819   C     0.38994   0.38911   0.52870   0.00000  Uiso   1.00
C820   C     0.61815   0.54372   0.64236   0.00000  Uiso   1.00
C821   C     0.38104   0.45782   0.35708   0.00000  Uiso   1.00
C822   C     0.40037   0.50044   0.48803   0.00000  Uiso   1.00
C823   C     0.59964   0.50017   0.51197   0.00000  Uiso   1.00
C824   C     0.34534   0.50083   0.48158   0.00000  Uiso   1.00
C825   C     0.65466   0.50044   0.51842   0.00000  Uiso   1.00
C826   C     0.52654   0.35446   0.46884   0.00000  Uiso   1.00
C827   C     0.46904   0.64539   0.52863   0.00000  Uiso   1.00
C828   C     0.52897   0.64485   0.47104   0.00000  Uiso   1.00
H829   H     0.55814   0.54686   0.38405   0.00000  Uiso   1.00
H830   H     0.36503   0.63321   0.54562   0.00000  Uiso   1.00
H831   H     0.62988   0.64864   0.47579   0.00000  Uiso   1.00
H832   H     0.60907   0.60057   0.50058   0.00000  Uiso   1.00
H833   H     0.63358   0.59955   0.44692   0.00000  Uiso   1.00
H834   H     0.36871   0.36284   0.50922   0.00000  Uiso   1.00
H835   H     0.36401   0.40205   0.55213   0.00000  Uiso   1.00
H836   H     0.39676   0.41402   0.50450   0.00000  Uiso   1.00
H837   H     0.64241   0.56135   0.62102   0.00000  Uiso   1.00
H838   H     0.62647   0.51001   0.63780   0.00000  Uiso   1.00
H839   H     0.63051   0.55365   0.34518   0.00000  Uiso   1.00
H840   H     0.44174   0.45324   0.61594   0.00000  Uiso   1.00
H841   H     0.36880   0.44781   0.65426   0.00000  Uiso   1.00
H842   H     0.37340   0.49168   0.36140   0.00000  Uiso   1.00
H843   H     0.35616   0.44069   0.37830   0.00000  Uiso   1.00
H844   H     0.65808   0.50124   0.44663   0.00000  Uiso   1.00
H845   H     0.34193   0.50009   0.55338   0.00000  Uiso   1.00
H846   H     0.54298   0.34246   0.38062   0.00000  Uiso   1.00
H847   H     0.49107   0.37820   0.39095   0.00000  Uiso   1.00
H848   H     0.55165   0.39755   0.37638   0.00000  Uiso   1.00
H849   H     0.38624   0.58150   0.55989   0.00000  Uiso   1.00
H850   H     0.39289   0.60072   0.50438   0.00000  Uiso   1.00
N851   N     0.49999   0.49999   0.61907   0.00000  Uiso   1.00
N852   N     0.50001   0.50001   0.38093   0.00000  Uiso   1.00
O853   O     0.50000   0.43892   0.53821   0.00000  Uiso   1.00
O854   O     0.44524   0.62478   0.56114   0.00000  Uiso   1.00
O855   O     0.55918   0.62314   0.44375   0.00000  Uiso   1.00
O856   O     0.43741   0.37625   0.55503   0.00000  Uiso   1.00
O857   O     0.56487   0.55309   0.62762   0.00000  Uiso   1.00
O858   O     0.43402   0.44779   0.37225   0.00000  Uiso   1.00
O859   O     0.50000   0.56108   0.46179   0.00000  Uiso   1.00
O860   O     0.50000   0.43893   0.46176   0.00000  Uiso   1.00
O861   O     0.50000   0.56107   0.53824   0.00000  Uiso   1.00
O862   O     0.42392   0.50000   0.52928   0.00000  Uiso   1.00
O863   O     0.57608   0.50000   0.47072   0.00000  Uiso   1.00
O864   O     0.42392   0.50000   0.45284   0.00000  Uiso   1.00
O865   O     0.57608   0.50000   0.54716   0.00000  Uiso   1.00
O866   O     0.55741   0.37591   0.44213   0.00000  Uiso   1.00
Zn867  Zn    0.50000   0.49999   0.55104   0.00000  Uiso   1.00
Zn868  Zn    0.50000   0.50001   0.44896   0.00000  Uiso   1.00
C869   C     0.83311   0.42003   0.49965   0.00000  Uiso   1.00
C870   C     0.80035   0.35500   0.52684   0.00000  Uiso   1.00
C871   C     0.83298   0.62406   0.50035   0.00000  Uiso   1.00
C872   C     0.83089   0.37586   0.49835   0.00000  Uiso   1.00
C873   C     0.86614   0.52582   0.36195   0.00000  Uiso   1.00
C874   C     0.80048   0.47423   0.63804   0.00000  Uiso   1.00
C875   C     0.86677   0.52560   0.64713   0.00000  Uiso   1.00
C876   C     0.79961   0.47465   0.35283   0.00000  Uiso   1.00
C877   C     0.86762   0.37300   0.39573   0.00000  Uiso   1.00
C878   C     0.72874   0.60975   0.54121   0.00000  Uiso   1.00
C879   C     0.94329   0.61803   0.46833   0.00000  Uiso   1.00
C880   C     0.83350   0.57993   0.50026   0.00000  Uiso   1.00
C881   C     0.72327   0.38911   0.52870   0.00000  Uiso   1.00
C882   C     0.95148   0.54372   0.64236   0.00000  Uiso   1.00
C883   C     0.71437   0.45782   0.35708   0.00000  Uiso   1.00
C884   C     0.73371   0.50044   0.48803   0.00000  Uiso   1.00
C885   C     0.93297   0.50017   0.51197   0.00000  Uiso   1.00
C886   C     0.67868   0.50083   0.48158   0.00000  Uiso   1.00
C887   C     0.98800   0.50044   0.51842   0.00000  Uiso   1.00
C888   C     0.85987   0.35446   0.46884   0.00000  Uiso   1.00
C889   C     0.80238   0.64539   0.52863   0.00000  Uiso   1.00
C890   C     0.86230   0.64485   0.47104   0.00000  Uiso   1.00
H891   H     0.89148   0.54686   0.38405   0.00000  Uiso   1.00
H892   H     0.69836   0.63321   0.54562   0.00000  Uiso   1.00
H893   H     0.96321   0.64864   0.47579   0.00000  Uiso   1.00
H894   H     0.94240   0.60057   0.50058   0.00000  Uiso   1.00
H895   H     0.96691   0.59955   0.44692   0.00000  Uiso   1.00
H896   H     0.70204   0.36284   0.50922   0.00000  Uiso   1.00
H897   H     0.69735   0.40205   0.55213   0.00000  Uiso   1.00
H898   H     0.73009   0.41402   0.50450   0.00000  Uiso   1.00
H899   H     0.97575   0.56135   0.62102   0.00000  Uiso   1.00
H900   H     0.95980   0.51001   0.63780   0.00000  Uiso   1.00
H901   H     0.96385   0.55365   0.34518   0.00000  Uiso   1.00
H902   H     0.77507   0.45324   0.61594   0.00000  Uiso   1.00
H903   H     0.70213   0.44781   0.65426   0.00000  Uiso   1.00
H904   H     0.70673   0.49168   0.36140   0.00000  Uiso   1.00
H905   H     0.68949   0.44069   0.37830   0.00000  Uiso   1.00
H906   H     0.99142   0.50124   0.44663   0.00000  Uiso   1.00
H907   H     0.67526   0.50009   0.55338   0.00000  Uiso   1.00
H908   H     0.87631   0.34246   0.38062   0.00000  Uiso   1.00
H909   H     0.82440   0.37820   0.39095   0.00000  Uiso   1.00
H910   H     0.88499   0.39755   0.37638   0.00000  Uiso   1.00
H911   H     0.71957   0.58150   0.55989   0.00000  Uiso   1.00
H912   H     0.72622   0.60072   0.50438   0.00000  Uiso   1.00
N913   N     0.83332   0.49999   0.61907   0.00000  Uiso   1.00
N914   N     0.83335   0.50001   0.38093   0.00000  Uiso   1.00
O915   O     0.83333   0.43892   0.53821   0.00000  Uiso   1.00
O916   O     0.77858   0.62478   0.56114   0.00000  Uiso   1.00
O917   O     0.89252   0.62314   0.44375   0.00000  Uiso   1.00
O918   O     0.77074   0.37625   0.55503   0.00000  Uiso   1.00
O919   O     0.89820   0.55309   0.62762   0.00000  Uiso   1.00
O920   O     0.76735   0.44779   0.37225   0.00000  Uiso   1.00
O921   O     0.83334   0.56108   0.46179   0.00000  Uiso   1.00
O922   O     0.83333   0.43893   0.46176   0.00000  Uiso   1.00
O923   O     0.83334   0.56107   0.53824   0.00000  Uiso   1.00
O924   O     0.75725   0.50000   0.52928   0.00000  Uiso   1.00
O925   O     0.90942   0.50000   0.47072   0.00000  Uiso   1.00
O926   O     0.75725   0.50000   0.45284   0.00000  Uiso   1.00
O927   O     0.90942   0.50000   0.54716   0.00000  Uiso   1.00
O928   O     0.89074   0.37591   0.44213   0.00000  Uiso   1.00
Zn929  Zn    0.83333   0.49999   0.55104   0.00000  Uiso   1.00
Zn930  Zn    0.83333   0.50001   0.44896   0.00000  Uiso   1.00
C931   C     0.16645   0.75336   0.49965   0.00000  Uiso   1.00
C932   C     0.13368   0.68834   0.52684   0.00000  Uiso   1.00
C933   C     0.16631   0.95739   0.50035   0.00000  Uiso   1.00
C934   C     0.16422   0.70919   0.49835   0.00000  Uiso   1.00
C935   C     0.19947   0.85915   0.36195   0.00000  Uiso   1.00
C936   C     0.13381   0.80756   0.63804   0.00000  Uiso   1.00
C937   C     0.20010   0.85893   0.64713   0.00000  Uiso   1.00
C938   C     0.13295   0.80798   0.35283   0.00000  Uiso   1.00
C939   C     0.20095   0.70634   0.39573   0.00000  Uiso   1.00
C940   C     0.06207   0.94308   0.54121   0.00000  Uiso   1.00
C941   C     0.27663   0.95137   0.46833   0.00000  Uiso   1.00
C942   C     0.16684   0.91327   0.50026   0.00000  Uiso   1.00
C943   C     0.05660   0.72245   0.52870   0.00000  Uiso   1.00
C944   C     0.28482   0.87705   0.64236   0.00000  Uiso   1.00
C945   C     0.04770   0.79116   0.35708   0.00000  Uiso   1.00
C946   C     0.06704   0.83377   0.48803   0.00000  Uiso   1.00
C947   C     0.26630   0.83350   0.51197   0.00000  Uiso   1.00
C948   C     0.01201   0.83417   0.48158   0.00000  Uiso   1.00
C949   C     0.32133   0.83377   0.51842   0.00000  Uiso   1.00
C950   C     0.19321   0.68780   0.46884   0.00000  Uiso   1.00
C951   C     0.13571   0.97873   0.52863   0.00000  Uiso   1.00
C952   C     0.19563   0.97818   0.47104   0.00000  Uiso   1.00
H953   H     0.22481   0.88019   0.38405   0.00000  Uiso   1.00
H954   H     0.03169   0.96654   0.54562   0.00000  Uiso   1.00
H955   H     0.29654   0.98198   0.47579   0.00000  Uiso   1.00
H956   H     0.27574   0.93391   0.50058   0.00000  Uiso   1.00
H957   H     0.30024   0.93288   0.44692   0.00000  Uiso   1.00
H958   H     0.03538   0.69617   0.50922   0.00000  Uiso   1.00
H959   H     0.03068   0.73538   0.55213   0.00000  Uiso   1.00
H960   H     0.06342   0.74735   0.50450   0.00000  Uiso   1.00
H961   H     0.30908   0.89469   0.62102   0.00000  Uiso   1.00
H962   H     0.29314   0.84335   0.63780   0.00000  Uiso   1.00
H963   H     0.29718   0.88698   0.34518   0.00000  Uiso   1.00
H964   H     0.10840   0.78657   0.61594   0.00000  Uiso   1.00
H965   H     0.03547   0.78115   0.65426   0.00000  Uiso   1.00
H966   H     0.04006   0.82501   0.36140   0.00000  Uiso   1.00
H967   H     0.02282   0.77402   0.37830   0.00000  Uiso   1.00
H968   H     0.32475   0.83457   0.44663   0.00000  Uiso   1.00
H969   H     0.00860   0.83343   0.55338   0.00000  Uiso   1.00
H970   H     0.20965   0.67579   0.38062   0.00000  Uiso   1.00
H971   H     0.15773   0.71153   0.39095   0.00000  Uiso   1.00
H972   H     0.21832   0.73088   0.37638   0.00000  Uiso   1.00
H973   H     0.05291   0.91483   0.55989   0.00000  Uiso   1.00
H974   H     0.05956   0.93405   0.50438   0.00000  Uiso   1.00
N975   N     0.16665   0.83332   0.61907   0.00000  Uiso   1.00
N976   N     0.16668   0.83334   0.38093   0.00000  Uiso   1.00
O977   O     0.16666   0.77225   0.53821   0.00000  Uiso   1.00
O978   O     0.11191   0.95811   0.56114   0.00000  Uiso   1.00
O979   O     0.22585   0.95647   0.44375   0.00000  Uiso   1.00
O980   O     0.10407   0.70959   0.55503   0.00000  Uiso   1.00
O981   O     0.23154   0.88642   0.62762   0.00000  Uiso   1.00
O982   O     0.10069   0.78112   0.37225   0.00000  Uiso   1.00
O983   O     0.16667   0.89442   0.46179   0.00000  Uiso   1.00
O984   O     0.16666   0.77226   0.46176   0.00000  Uiso   1.00
O985   O     0.16667   0.89441   0.53824   0.00000  Uiso   1.00
O986   O     0.09058   0.83333   0.52928   0.00000  Uiso   1.00
O987   O     0.24275   0.83334   0.47072   0.00000  Uiso   1.00
O988   O     0.09058   0.83334   0.45284   0.00000  Uiso   1.00
O989   O     0.24275   0.83333   0.54716   0.00000  Uiso   1.00
O990   O     0.22407   0.70925   0.44213   0.00000  Uiso   1.00
Zn991  Zn    0.16667   0.83333   0.55104   0.00000  Uiso   1.00
Zn992  Zn    0.16667   0.83334   0.44896   0.00000  Uiso   1.00
C993   C     0.49978   0.75336   0.49965   0.00000  Uiso   1.00
C994   C     0.46701   0.68834   0.52684   0.00000  Uiso   1.00
C995   C     0.49964   0.95739   0.50035   0.00000  Uiso   1.00
C996   C     0.49756   0.70919   0.49835   0.00000  Uiso   1.00
C997   C     0.53281   0.85915   0.36195   0.00000  Uiso   1.00
C998   C     0.46714   0.80756   0.63804   0.00000  Uiso   1.00
C999   C     0.53344   0.85893   0.64713   0.00000  Uiso   1.00
C1000  C     0.46628   0.80798   0.35283   0.00000  Uiso   1.00
C1001  C     0.53429   0.70634   0.39573   0.00000  Uiso   1.00
C1002  C     0.39540   0.94308   0.54121   0.00000  Uiso   1.00
C1003  C     0.60996   0.95137   0.46833   0.00000  Uiso   1.00
C1004  C     0.50017   0.91327   0.50026   0.00000  Uiso   1.00
C1005  C     0.38994   0.72245   0.52870   0.00000  Uiso   1.00
C1006  C     0.61815   0.87705   0.64236   0.00000  Uiso   1.00
C1007  C     0.38104   0.79116   0.35708   0.00000  Uiso   1.00
C1008  C     0.40037   0.83377   0.48803   0.00000  Uiso   1.00
C1009  C     0.59964   0.83350   0.51197   0.00000  Uiso   1.00
C1010  C     0.34534   0.83417   0.48158   0.00000  Uiso   1.00
C1011  C     0.65466   0.83377   0.51842   0.00000  Uiso   1.00
C1012  C     0.52654   0.68780   0.46884   0.00000  Uiso   1.00
C1013  C     0.46904   0.97873   0.52863   0.00000  Uiso   1.00
C1014  C     0.52897   0.97818   0.47104   0.00000  Uiso   1.00
H1015  H     0.55814   0.88019   0.38405   0.00000  Uiso   1.00
H1016  H     0.36503   0.96654   0.54562   0.00000  Uiso   1.00
H1017  H     0.62988   0.98198   0.47579   0.00000  Uiso   1.00
H1018  H     0.60907   0.93391   0.50058   0.00000  Uiso   1.00
H1019  H     0.63358   0.93288   0.44692   0.00000  Uiso   1.00
H1020  H     0.36871   0.69617   0.50922   0.00000  Uiso   1.00
H1021  H     0.36401   0.73538   0.55213   0.00000  Uiso   1.00
H1022  H     0.39676   0.74735   0.50450   0.00000  Uiso   1.00
H1023  H     0.64241   0.89469   0.62102   0.00000  Uiso   1.00
H1024  H     0.62647   0.84335   0.63780   0.00000  Uiso   1.00
H1025  H     0.63051   0.88698   0.34518   0.00000  Uiso   1.00
H1026  H     0.44174   0.78657   0.61594   0.00000  Uiso   1.00
H1027  H     0.36880   0.78115   0.65426   0.00000  Uiso   1.00
H1028  H     0.37340   0.82501   0.36140   0.00000  Uiso   1.00
H1029  H     0.35616   0.77402   0.37830   0.00000  Uiso   1.00
H1030  H     0.65808   0.83457   0.44663   0.00000  Uiso   1.00
H1031  H     0.34193   0.83343   0.55338   0.00000  Uiso   1.00
H1032  H     0.54298   0.67579   0.38062   0.00000  Uiso   1.00
H1033  H     0.49107   0.71153   0.39095   0.00000  Uiso   1.00
H1034  H     0.55165   0.73088   0.37638   0.00000  Uiso   1.00
H1035  H     0.38624   0.91483   0.55989   0.00000  Uiso   1.00
H1036  H     0.39289   0.93405   0.50438   0.00000  Uiso   1.00
N1037  N     0.49999   0.83332   0.61907   0.00000  Uiso   1.00
N1038  N     0.50001   0.83334   0.38093   0.00000  Uiso   1.00
O1039  O     0.50000   0.77225   0.53821   0.00000  Uiso   1.00
O1040  O     0.44524   0.95811   0.56114   0.00000  Uiso   1.00
O1041  O     0.55918   0.95647   0.44375   0.00000  Uiso   1.00
O1042  O     0.43741   0.70959   0.55503   0.00000  Uiso   1.00
O1043  O     0.56487   0.88642   0.62762   0.00000  Uiso   1.00
O1044  O     0.43402   0.78112   0.37225   0.00000  Uiso   1.00
O1045  O     0.50000   0.89442   0.46179   0.00000  Uiso   1.00
O1046  O     0.50000   0.77226   0.46176   0.00000  Uiso   1.00
O1047  O     0.50000   0.89441   0.53824   0.00000  Uiso   1.00
O1048  O     0.42392   0.83333   0.52928   0.00000  Uiso   1.00
O1049  O     0.57608   0.83334   0.47072   0.00000  Uiso   1.00
O1050  O     0.42392   0.83334   0.45284   0.00000  Uiso   1.00
O1051  O     0.57608   0.83333   0.54716   0.00000  Uiso   1.00
O1052  O     0.55741   0.70925   0.44213   0.00000  Uiso   1.00
Zn1053 Zn    0.50000   0.83333   0.55104   0.00000  Uiso   1.00
Zn1054 Zn    0.50000   0.83334   0.44896   0.00000  Uiso   1.00
C1055  C     0.83311   0.75336   0.49965   0.00000  Uiso   1.00
C1056  C     0.80035   0.68834   0.52684   0.00000  Uiso   1.00
C1057  C     0.83298   0.95739   0.50035   0.00000  Uiso   1.00
C1058  C     0.83089   0.70919   0.49835   0.00000  Uiso   1.00
C1059  C     0.86614   0.85915   0.36195   0.00000  Uiso   1.00
C1060  C     0.80048   0.80756   0.63804   0.00000  Uiso   1.00
C1061  C     0.86677   0.85893   0.64713   0.00000  Uiso   1.00
C1062  C     0.79961   0.80798   0.35283   0.00000  Uiso   1.00
C1063  C     0.86762   0.70634   0.39573   0.00000  Uiso   1.00
C1064  C     0.72874   0.94308   0.54121   0.00000  Uiso   1.00
C1065  C     0.94329   0.95137   0.46833   0.00000  Uiso   1.00
C1066  C     0.83350   0.91327   0.50026   0.00000  Uiso   1.00
C1067  C     0.72327   0.72245   0.52870   0.00000  Uiso   1.00
C1068  C     0.95148   0.87705   0.64236   0.00000  Uiso   1.00
C1069  C     0.71437   0.79116   0.35708   0.00000  Uiso   1.00
C1070  C     0.73371   0.83377   0.48803   0.00000  Uiso   1.00
C1071  C     0.93297   0.83350   0.51197   0.00000  Uiso   1.00
C1072  C     0.67868   0.83417   0.48158   0.00000  Uiso   1.00
C1073  C     0.98800   0.83377   0.51842   0.00000  Uiso   1.00
C1074  C     0.85987   0.68780   0.46884   0.00000  Uiso   1.00
C1075  C     0.80238   0.97873   0.52863   0.00000  Uiso   1.00
C1076  C     0.86230   0.97818   0.47104   0.00000  Uiso   1.00
H1077  H     0.89148   0.88019   0.38405   0.00000  Uiso   1.00
H1078  H     0.69836   0.96654   0.54562   0.00000  Uiso   1.00
H1079  H     0.96321   0.98198   0.47579   0.00000  Uiso   1.00
H1080  H     0.94240   0.93391   0.50058   0.00000  Uiso   1.00
H1081  H     0.96691   0.93288   0.44692   0.00000  Uiso   1.00
H1082  H     0.70204   0.69617   0.50922   0.00000  Uiso   1.00
H1083  H     0.69735   0.73538   0.55213   0.00000  Uiso   1.00
H1084  H     0.73009   0.74735   0.50450   0.00000  Uiso   1.00
H1085  H     0.97575   0.89469   0.62102   0.00000  Uiso   1.00
H1086  H     0.95980   0.84335   0.63780   0.00000  Uiso   1.00
H1087  H     0.96385   0.88698   0.34518   0.00000  Uiso   1.00
H1088  H     0.77507   0.78657   0.61594   0.00000  Uiso   1.00
H1089  H     0.70213   0.78115   0.65426   0.00000  Uiso   1.00
H1090  H     0.70673   0.82501   0.36140   0.00000  Uiso   1.00
H1091  H     0.68949   0.77402   0.37830   0.00000  Uiso   1.00
H1092  H     0.99142   0.83457   0.44663   0.00000  Uiso   1.00
H1093  H     0.67526   0.83343   0.55338   0.00000  Uiso   1.00
H1094  H     0.87631   0.67579   0.38062   0.00000  Uiso   1.00
H1095  H     0.82440   0.71153   0.39095   0.00000  Uiso   1.00
H1096  H     0.88499   0.73088   0.37638   0.00000  Uiso   1.00
H1097  H     0.71957   0.91483   0.55989   0.00000  Uiso   1.00
H1098  H     0.72622   0.93405   0.50438   0.00000  Uiso   1.00
N1099  N     0.83332   0.83332   0.61907   0.00000  Uiso   1.00
N1100  N     0.83335   0.83334   0.38093   0.00000  Uiso   1.00
O1101  O     0.83333   0.77225   0.53821   0.00000  Uiso   1.00
O1102  O     0.77858   0.95811   0.56114   0.00000  Uiso   1.00
O1103  O     0.89252   0.95647   0.44375   0.00000  Uiso   1.00
O1104  O     0.77074   0.70959   0.55503   0.00000  Uiso   1.00
O1105  O     0.89820   0.88642   0.62762   0.00000  Uiso   1.00
O1106  O     0.76735   0.78112   0.37225   0.00000  Uiso   1.00
O1107  O     0.83334   0.89442   0.46179   0.00000  Uiso   1.00
O1108  O     0.83333   0.77226   0.46176   0.00000  Uiso   1.00
O1109  O     0.83334   0.89441   0.53824   0.00000  Uiso   1.00
O1110  O     0.75725   0.83333   0.52928   0.00000  Uiso   1.00
O1111  O     0.90942   0.83334   0.47072   0.00000  Uiso   1.00
O1112  O     0.75725   0.83334   0.45284   0.00000  Uiso   1.00
O1113  O     0.90942   0.83333   0.54716   0.00000  Uiso   1.00
O1114  O     0.89074   0.70925   0.44213   0.00000  Uiso   1.00
Zn1115 Zn    0.83333   0.83333   0.55104   0.00000  Uiso   1.00
Zn1116 Zn    0.83333   0.83334   0.44896   0.00000  Uiso   1.00
C1117  C     0.16645   0.08669   0.83299   0.00000  Uiso   1.00
C1118  C     0.13368   0.02167   0.86017   0.00000  Uiso   1.00
C1119  C     0.16631   0.29073   0.83368   0.00000  Uiso   1.00
C1120  C     0.16422   0.04252   0.83168   0.00000  Uiso   1.00
C1121  C     0.19947   0.19249   0.69529   0.00000  Uiso   1.00
C1122  C     0.13381   0.14089   0.97138   0.00000  Uiso   1.00
C1123  C     0.20010   0.19227   0.98046   0.00000  Uiso   1.00
C1124  C     0.13295   0.14131   0.68616   0.00000  Uiso   1.00
C1125  C     0.20095   0.03967   0.72906   0.00000  Uiso   1.00
C1126  C     0.06207   0.27641   0.87454   0.00000  Uiso   1.00
C1127  C     0.27663   0.28470   0.80166   0.00000  Uiso   1.00
C1128  C     0.16684   0.24660   0.83360   0.00000  Uiso   1.00
C1129  C     0.05660   0.05578   0.86203   0.00000  Uiso   1.00
C1130  C     0.28482   0.21038   0.97569   0.00000  Uiso   1.00
C1131  C     0.04770   0.12449   0.69041   0.00000  Uiso   1.00
C1132  C     0.06704   0.16710   0.82137   0.00000  Uiso   1.00
C1133  C     0.26630   0.16684   0.84530   0.00000  Uiso   1.00
C1134  C     0.01201   0.16750   0.81492   0.00000  Uiso   1.00
C1135  C     0.32133   0.16710   0.85176   0.00000  Uiso   1.00
C1136  C     0.19321   0.02113   0.80217   0.00000  Uiso   1.00
C1137  C     0.13571   0.31206   0.86197   0.00000  Uiso   1.00
C1138  C     0.19563   0.31151   0.80438   0.00000  Uiso   1.00
H1139  H     0.22481   0.21353   0.71739   0.00000  Uiso   1.00
H1140  H     0.03169   0.29987   0.87895   0.00000  Uiso   1.00
H1141  H     0.29654   0.31531   0.80912   0.00000  Uiso   1.00
H1142  H     0.27574   0.26724   0.83391   0.00000  Uiso   1.00
H1143  H     0.30024   0.26622   0.78025   0.00000  Uiso   1.00
H1144  H     0.03538   0.02950   0.84256   0.00000  Uiso   1.00
H1145  H     0.03068   0.06872   0.88546   0.00000  Uiso   1.00
H1146  H     0.06342   0.08069   0.83783   0.00000  Uiso   1.00
H1147  H     0.30908   0.22802   0.95435   0.00000  Uiso   1.00
H1148  H     0.29314   0.17668   0.97113   0.00000  Uiso   1.00
H1149  H     0.29718   0.22032   0.67851   0.00000  Uiso   1.00
H1150  H     0.10840   0.11990   0.94927   0.00000  Uiso   1.00
H1151  H     0.03547   0.11448   0.98760   0.00000  Uiso   1.00
H1152  H     0.04006   0.15834   0.69474   0.00000  Uiso   1.00
H1153  H     0.02282   0.10735   0.71163   0.00000  Uiso   1.00
H1154  H     0.32475   0.16790   0.77997   0.00000  Uiso   1.00
H1155  H     0.00860   0.16676   0.88671   0.00000  Uiso   1.00
H1156  H     0.20965   0.00913   0.71396   0.00000  Uiso   1.00
H1157  H     0.15773   0.04486   0.72428   0.00000  Uiso   1.00
H1158  H     0.21832   0.06422   0.70971   0.00000  Uiso   1.00
H1159  H     0.05291   0.24816   0.89323   0.00000  Uiso   1.00
H1160  H     0.05956   0.26738   0.83771   0.00000  Uiso   1.00
N1161  N     0.16665   0.16666   0.95240   0.00000  Uiso   1.00
N1162  N     0.16668   0.16668   0.71427   0.00000  Uiso   1.00
O1163  O     0.16666   0.10558   0.87154   0.00000  Uiso   1.00
O1164  O     0.11191   0.29144   0.89447   0.00000  Uiso   1.00
O1165  O     0.22585   0.28981   0.77709   0.00000  Uiso   1.00
O1166  O     0.10407   0.04292   0.88836   0.00000  Uiso   1.00
O1167  O     0.23154   0.21976   0.96096   0.00000  Uiso   1.00
O1168  O     0.10069   0.11446   0.70558   0.00000  Uiso   1.00
O1169  O     0.16667   0.22775   0.79513   0.00000  Uiso   1.00
O1170  O     0.16666   0.10559   0.79510   0.00000  Uiso   1.00
O1171  O     0.16667   0.22774   0.87157   0.00000  Uiso   1.00
O1172  O     0.09058   0.16666   0.86261   0.00000  Uiso   1.00
O1173  O     0.24275   0.16667   0.80405   0.00000  Uiso   1.00
O1174  O     0.09058   0.16667   0.78617   0.00000  Uiso   1.00
O1175  O     0.24275   0.16666   0.88050   0.00000  Uiso   1.00
O1176  O     0.22407   0.04258   0.77546   0.00000  Uiso   1.00
Zn1177 Zn    0.16667   0.16666   0.88437   0.00000  Uiso   1.00
Zn1178 Zn    0.16667   0.16667   0.78229   0.00000  Uiso   1.00
C1179  C     0.49978   0.08669   0.83299   0.00000  Uiso   1.00
C1180  C     0.46701   0.02167   0.86017   0.00000  Uiso   1.00
C1181  C     0.49964   0.29073   0.83368   0.00000  Uiso   1.00
C1182  C     0.49756   0.04252   0.83168   0.00000  Uiso   1.00
C1183  C     0.53281   0.19249   0.69529   0.00000  Uiso   1.00
C1184  C     0.46714   0.14089   0.97138   0.00000  Uiso   1.00
C1185  C     0.53344   0.19227   0.98046   0.00000  Uiso   1.00
C1186  C     0.46628   0.14131   0.68616   0.00000  Uiso   1.00
C1187  C     0.53429   0.03967   0.72906   0.00000  Uiso   1.00
C1188  C     0.39540   0.27641   0.87454   0.00000  Uiso   1.00
C1189  C     0.60996   0.28470   0.80166   0.00000  Uiso   1.00
C1190  C     0.50017   0.24660   0.83360   0.00000  Uiso   1.00
C1191  C     0.38994   0.05578   0.86203   0.00000  Uiso   1.00
C1192  C     0.61815   0.21038   0.97569   0.00000  Uiso   1.00
C1193  C     0.38104   0.12449   0.69041   0.00000  Uiso   1.00
C1194  C     0.40037   0.16710   0.82137   0.00000  Uiso   1.00
C1195  C     0.59964   0.16684   0.84530   0.00000  Uiso   1.00
C1196  C     0.34534   0.16750   0.81492   0.00000  Uiso   1.00
C1197  C     0.65466   0.16710   0.85176   0.00000  Uiso   1.00
C1198  C     0.52654   0.02113   0.80217   0.00000  Uiso   1.00
C1199  C     0.46904   0.31206   0.86197   0.00000  Uiso   1.00
C1200  C     0.52897   0.31151   0.80438   0.00000  Uiso   1.00
H1201  H     0.55814   0.21353   0.71739   0.00000  Uiso   1.00
H1202  H     0.36503   0.29987   0.87895   0.00000  Uiso   1.00
H1203  H     0.62988   0.31531   0.80912   0.00000  Uiso   1.00
H1204  H     0.60907   0.26724   0.83391   0.00000  Uiso   1.00
H1205  H     0.63358   0.26622   0.78025   0.00000  Uiso   1.00
H1206  H     0.36871   0.02950   0.84256   0.00000  Uiso   1.00
H1207  H     0.36401   0.06872   0.88546   0.00000  Uiso   1.00
H1208  H     0.39676   0.08069   0.83783   0.00000  Uiso   1.00
H1209  H     0.64241   0.22802   0.95435   0.00000  Uiso   1.00
H1210  H     0.62647   0.17668   0.97113   0.00000  Uiso   1.00
H1211  H     0.63051   0.22032   0.67851   0.00000  Uiso   1.00
H1212  H     0.44174   0.11990   0.94927   0.00000  Uiso   1.00
H1213  H     0.36880   0.11448   0.98760   0.00000  Uiso   1.00
H1214  H     0.37340   0.15834   0.69474   0.00000  Uiso   1.00
H1215  H     0.35616   0.10735   0.71163   0.00000  Uiso   1.00
H1216  H     0.65808   0.16790   0.77997   0.00000  Uiso   1.00
H1217  H     0.34193   0.16676   0.88671   0.00000  Uiso   1.00
H1218  H     0.54298   0.00913   0.71396   0.00000  Uiso   1.00
H1219  H     0.49107   0.04486   0.72428   0.00000  Uiso   1.00
H1220  H     0.55165   0.06422   0.70971   0.00000  Uiso   1.00
H1221  H     0.38624   0.24816   0.89323   0.00000  Uiso   1.00
H1222  H     0.39289   0.26738   0.83771   0.00000  Uiso   1.00
N1223  N     0.49999   0.16666   0.95240   0.00000  Uiso   1.00
N1224  N     0.50001   0.16668   0.71427   0.00000  Uiso   1.00
O1225  O     0.50000   0.10558   0.87154   0.00000  Uiso   1.00
O1226  O     0.44524   0.29144   0.89447   0.00000  Uiso   1.00
O1227  O     0.55918   0.28981   0.77709   0.00000  Uiso   1.00
O1228  O     0.43741   0.04292   0.88836   0.00000  Uiso   1.00
O1229  O     0.56487   0.21976   0.96096   0.00000  Uiso   1.00
O1230  O     0.43402   0.11446   0.70558   0.00000  Uiso   1.00
O1231  O     0.50000   0.22775   0.79513   0.00000  Uiso   1.00
O1232  O     0.50000   0.10559   0.79510   0.00000  Uiso   1.00
O1233  O     0.50000   0.22774   0.87157   0.00000  Uiso   1.00
O1234  O     0.42392   0.16666   0.86261   0.00000  Uiso   1.00
O1235  O     0.57608   0.16667   0.80405   0.00000  Uiso   1.00
O1236  O     0.42392   0.16667   0.78617   0.00000  Uiso   1.00
O1237  O     0.57608   0.16666   0.88050   0.00000  Uiso   1.00
O1238  O     0.55741   0.04258   0.77546   0.00000  Uiso   1.00
Zn1239 Zn    0.50000   0.16666   0.88437   0.00000  Uiso   1.00
Zn1240 Zn    0.50000   0.16667   0.78229   0.00000  Uiso   1.00
C1241  C     0.83311   0.08669   0.83299   0.00000  Uiso   1.00
C1242  C     0.80035   0.02167   0.86017   0.00000  Uiso   1.00
C1243  C     0.83298   0.29073   0.83368   0.00000  Uiso   1.00
C1244  C     0.83089   0.04252   0.83168   0.00000  Uiso   1.00
C1245  C     0.86614   0.19249   0.69529   0.00000  Uiso   1.00
C1246  C     0.80048   0.14089   0.97138   0.00000  Uiso   1.00
C1247  C     0.86677   0.19227   0.98046   0.00000  Uiso   1.00
C1248  C     0.79961   0.14131   0.68616   0.00000  Uiso   1.00
C1249  C     0.86762   0.03967   0.72906   0.00000  Uiso   1.00
C1250  C     0.72874   0.27641   0.87454   0.00000  Uiso   1.00
C1251  C     0.94329   0.28470   0.80166   0.00000  Uiso   1.00
C1252  C     0.83350   0.24660   0.83360   0.00000  Uiso   1.00
C1253  C     0.72327   0.05578   0.86203   0.00000  Uiso   1.00
C1254  C     0.95148   0.21038   0.97569   0.00000  Uiso   1.00
C1255  C     0.71437   0.12449   0.69041   0.00000  Uiso   1.00
C1256  C     0.73371   0.16710   0.82137   0.00000  Uiso   1.00
C1257  C     0.93297   0.16684   0.84530   0.00000  Uiso   1.00
C1258  C     0.67868   0.16750   0.81492   0.00000  Uiso   1.00
C1259  C     0.98800   0.16710   0.85176   0.00000  Uiso   1.00
C1260  C     0.85987   0.02113   0.80217   0.00000  Uiso   1.00
C1261  C     0.80238   0.31206   0.86197   0.00000  Uiso   1.00
C1262  C     0.86230   0.31151   0.80438   0.00000  Uiso   1.00
H1263  H     0.89148   0.21353   0.71739   0.00000  Uiso   1.00
H1264  H     0.69836   0.29987   0.87895   0.00000  Uiso   1.00
H1265  H     0.96321   0.31531   0.80912   0.00000  Uiso   1.00
H1266  H     0.94240   0.26724   0.83391   0.00000  Uiso   1.00
H1267  H     0.96691   0.26622   0.78025   0.00000  Uiso   1.00
H1268  H     0.70204   0.02950   0.84256   0.00000  Uiso   1.00
H1269  H     0.69735   0.06872   0.88546   0.00000  Uiso   1.00
H1270  H     0.73009   0.08069   0.83783   0.00000  Uiso   1.00
H1271  H     0.97575   0.22802   0.95435   0.00000  Uiso   1.00
H1272  H     0.95980   0.17668   0.97113   0.00000  Uiso   1.00
H1273  H     0.96385   0.22032   0.67851   0.00000  Uiso   1.00
H1274  H     0.77507   0.11990   0.94927   0.00000  Uiso   1.00
H1275  H     0.70213   0.11448   0.98760   0.00000  Uiso   1.00
H1276  H     0.70673   0.15834   0.69474   0.00000  Uiso   1.00
H1277  H     0.68949   0.10735   0.71163   0.00000  Uiso   1.00
H1278  H     0.99142   0.16790   0.77997   0.00000  Uiso   1.00
H1279  H     0.67526   0.16676   0.88671   0.00000  Uiso   1.00
H1280  H     0.87631   0.00913   0.71396   0.00000  Uiso   1.00
H1281  H     0.82440   0.04486   0.72428   0.00000  Uiso   1.00
H1282  H     0.88499   0.06422   0.70971   0.00000  Uiso   1.00
H1283  H     0.71957   0.24816   0.89323   0.00000  Uiso   1.00
H1284  H     0.72622   0.26738   0.83771   0.00000  Uiso   1.00
N1285  N     0.83332   0.16666   0.95240   0.00000  Uiso   1.00
N1286  N     0.83335   0.16668   0.71427   0.00000  Uiso   1.00
O1287  O     0.83333   0.10558   0.87154   0.00000  Uiso   1.00
O1288  O     0.77858   0.29144   0.89447   0.00000  Uiso   1.00
O1289  O     0.89252   0.28981   0.77709   0.00000  Uiso   1.00
O1290  O     0.77074   0.04292   0.88836   0.00000  Uiso   1.00
O1291  O     0.89820   0.21976   0.96096   0.00000  Uiso   1.00
O1292  O     0.76735   0.11446   0.70558   0.00000  Uiso   1.00
O1293  O     0.83334   0.22775   0.79513   0.00000  Uiso   1.00
O1294  O     0.83333   0.10559   0.79510   0.00000  Uiso   1.00
O1295  O     0.83334   0.22774   0.87157   0.00000  Uiso   1.00
O1296  O     0.75725   0.16666   0.86261   0.00000  Uiso   1.00
O1297  O     0.90942   0.16667   0.80405   0.00000  Uiso   1.00
O1298  O     0.75725   0.16667   0.78617   0.00000  Uiso   1.00
O1299  O     0.90942   0.16666   0.88050   0.00000  Uiso   1.00
O1300  O     0.89074   0.04258   0.77546   0.00000  Uiso   1.00
Zn1301 Zn    0.83333   0.16666   0.88437   0.00000  Uiso   1.00
Zn1302 Zn    0.83333   0.16667   0.78229   0.00000  Uiso   1.00
C1303  C     0.16645   0.42003   0.83299   0.00000  Uiso   1.00
C1304  C     0.13368   0.35500   0.86017   0.00000  Uiso   1.00
C1305  C     0.16631   0.62406   0.83368   0.00000  Uiso   1.00
C1306  C     0.16422   0.37586   0.83168   0.00000  Uiso   1.00
C1307  C     0.19947   0.52582   0.69529   0.00000  Uiso   1.00
C1308  C     0.13381   0.47423   0.97138   0.00000  Uiso   1.00
C1309  C     0.20010   0.52560   0.98046   0.00000  Uiso   1.00
C1310  C     0.13295   0.47465   0.68616   0.00000  Uiso   1.00
C1311  C     0.20095   0.37300   0.72906   0.00000  Uiso   1.00
C1312  C     0.06207   0.60975   0.87454   0.00000  Uiso   1.00
C1313  C     0.27663   0.61803   0.80166   0.00000  Uiso   1.00
C1314  C     0.16684   0.57993   0.83360   0.00000  Uiso   1.00
C1315  C     0.05660   0.38911   0.86203   0.00000  Uiso   1.00
C1316  C     0.28482   0.54372   0.97569   0.00000  Uiso   1.00
C1317  C     0.04770   0.45782   0.69041   0.00000  Uiso   1.00
C1318  C     0.06704   0.50044   0.82137   0.00000  Uiso   1.00
C1319  C     0.26630   0.50017   0.84530   0.00000  Uiso   1.00
C1320  C     0.01201   0.50083   0.81492   0.00000  Uiso   1.00
C1321  C     0.32133   0.50044   0.85176   0.00000  Uiso   1.00
C1322  C     0.19321   0.35446   0.80217   0.00000  Uiso   1.00
C1323  C     0.13571   0.64539   0.86197   0.00000  Uiso   1.00
C1324  C     0.19563   0.64485   0.80438   0.00000  Uiso   1.00
H1325  H     0.22481   0.54686   0.71739   0.00000  Uiso   1.00
H1326  H     0.03169   0.63321   0.87895   0.00000  Uiso   1.00
H1327  H     0.29654   0.64864   0.80912   0.00000  Uiso   1.00
H1328  H     0.27574   0.60057   0.83391   0.00000  Uiso   1.00
H1329  H     0.30024   0.59955   0.78025   0.00000  Uiso   1.00
H1330  H     0.03538   0.36284   0.84256   0.00000  Uiso   1.00
H1331  H     0.03068   0.40205   0.88546   0.00000  Uiso   1.00
H1332  H     0.06342   0.41402   0.83783   0.00000  Uiso   1.00
H1333  H     0.30908   0.56135   0.95435   0.00000  Uiso   1.00
H1334  H     0.29314   0.51001   0.97113   0.00000  Uiso   1.00
H1335  H     0.29718   0.55365   0.67851   0.00000  Uiso   1.00
H1336  H     0.10840   0.45324   0.94927   0.00000  Uiso   1.00
H1337  H     0.03547   0.44781   0.98760   0.00000  Uiso   1.00
H1338  H     0.04006   0.49168   0.69474   0.00000  Uiso   1.00
H1339  H     0.02282   0.44069   0.71163   0.00000  Uiso   1.00
H1340  H     0.32475   0.50124   0.77997   0.00000  Uiso   1.00
H1341  H     0.00860   0.50009   0.88671   0.00000  Uiso   1.00
H1342  H     0.20965   0.34246   0.71396   0.00000  Uiso   1.00
H1343  H     0.15773   0.37820   0.72428   0.00000  Uiso   1.00
H1344  H     0.21832   0.39755   0.70971   0.00000  Uiso   1.00
H1345  H     0.05291   0.58150   0.89323   0.00000  Uiso   1.00
H1346  H     0.05956   0.60072   0.83771   0.00000  Uiso   1.00
N1347  N     0.16665   0.49999   0.95240   0.00000  Uiso   1.00
N1348  N     0.16668   0.50001   0.71427   0.00000  Uiso   1.00
O1349  O     0.16666   0.43892   0.87154   0.00000  Uiso   1.00
O1350  O     0.11191   0.62478   0.89447   0.00000  Uiso   1.00
O1351  O     0.22585   0.62314   0.77709   0.00000  Uiso   1.00
O1352  O     0.10407   0.37625   0.88836   0.00000  Uiso   1.00
O1353  O     0.23154   0.55309   0.96096   0.00000  Uiso   1.00
O1354  O     0.10069   0.44779   0.70558   0.00000  Uiso   1.00
O1355  O     0.16667   0.56108   0.79513   0.00000  Uiso   1.00
O1356  O     0.16666   0.43893   0.79510   0.00000  Uiso   1.00
O1357  O     0.16667   0.56107   0.87157   0.00000  Uiso   1.00
O1358  O     0.09058   0.50000   0.86261   0.00000  Uiso   1.00
O1359  O     0.24275   0.50000   0.80405   0.00000  Uiso   1.00
O1360  O     0.09058   0.50000   0.78617   0.00000  Uiso   1.00
O1361  O     0.24275   0.50000   0.88050   0.00000  Uiso   1.00
O1362  O     0.22407   0.37591   0.77546   0.00000  Uiso   1.00
Zn1363 Zn    0.16667   0.49999   0.88437   0.00000  Uiso   1.00
Zn1364 Zn    0.16667   0.50001   0.78229   0.00000  Uiso   1.00
C1365  C     0.49978   0.42003   0.83299   0.00000  Uiso   1.00
C1366  C     0.46701   0.35500   0.86017   0.00000  Uiso   1.00
C1367  C     0.49964   0.62406   0.83368   0.00000  Uiso   1.00
C1368  C     0.49756   0.37586   0.83168   0.00000  Uiso   1.00
C1369  C     0.53281   0.52582   0.69529   0.00000  Uiso   1.00
C1370  C     0.46714   0.47423   0.97138   0.00000  Uiso   1.00
C1371  C     0.53344   0.52560   0.98046   0.00000  Uiso   1.00
C1372  C     0.46628   0.47465   0.68616   0.00000  Uiso   1.00
C1373  C     0.53429   0.37300   0.72906   0.00000  Uiso   1.00
C1374  C     0.39540   0.60975   0.87454   0.00000  Uiso   1.00
C1375  C     0.60996   0.61803   0.80166   0.00000  Uiso   1.00
C1376  C     0.50017   0.57993   0.83360   0.00000  Uiso   1.00
C1377  C     0.38994   0.38911   0.86203   0.00000  Uiso   1.00
C1378  C     0.61815   0.54372   0.97569   0.00000  Uiso   1.00
C1379  C     0.38104   0.45782   0.69041   0.00000  Uiso   1.00
C1380  C     0.40037   0.50044   0.82137   0.00000  Uiso   1.00
C1381  C     0.59964   0.50017   0.84530   0.00000  Uiso   1.00
C1382  C     0.34534   0.50083   0.81492   0.00000  Uiso   1.00
C1383  C     0.65466   0.50044   0.85176   0.00000  Uiso   1.00
C1384  C     0.52654   0.35446   0.80217   0.00000  Uiso   1.00
C1385  C     0.46904   0.64539   0.86197   0.00000  Uiso   1.00
C1386  C     0.52897   0.64485   0.80438   0.00000  Uiso   1.00
H1387  H     0.55814   0.54686   0.71739   0.00000  Uiso   1.00
H1388  H     0.36503   0.63321   0.87895   0.00000  Uiso   1.00
H1389  H     0.62988   0.64864   0.80912   0.00000  Uiso   1.00
H1390  H     0.60907   0.60057   0.83391   0.00000  Uiso   1.00
H1391  H     0.63358   0.59955   0.78025   0.00000  Uiso   1.00
H1392  H     0.36871   0.36284   0.84256   0.00000  Uiso   1.00
H1393  H     0.36401   0.40205   0.88546   0.00000  Uiso   1.00
H1394  H     0.39676   0.41402   0.83783   0.00000  Uiso   1.00
H1395  H     0.64241   0.56135   0.95435   0.00000  Uiso   1.00
H1396  H     0.62647   0.51001   0.97113   0.00000  Uiso   1.00
H1397  H     0.63051   0.55365   0.67851   0.00000  Uiso   1.00
H1398  H     0.44174   0.45324   0.94927   0.00000  Uiso   1.00
H1399  H     0.36880   0.44781   0.98760   0.00000  Uiso   1.00
H1400  H     0.37340   0.49168   0.69474   0.00000  Uiso   1.00
H1401  H     0.35616   0.44069   0.71163   0.00000  Uiso   1.00
H1402  H     0.65808   0.50124   0.77997   0.00000  Uiso   1.00
H1403  H     0.34193   0.50009   0.88671   0.00000  Uiso   1.00
H1404  H     0.54298   0.34246   0.71396   0.00000  Uiso   1.00
H1405  H     0.49107   0.37820   0.72428   0.00000  Uiso   1.00
H1406  H     0.55165   0.39755   0.70971   0.00000  Uiso   1.00
H1407  H     0.38624   0.58150   0.89323   0.00000  Uiso   1.00
H1408  H     0.39289   0.60072   0.83771   0.00000  Uiso   1.00
N1409  N     0.49999   0.49999   0.95240   0.00000  Uiso   1.00
N1410  N     0.50001   0.50001   0.71427   0.00000  Uiso   1.00
O1411  O     0.50000   0.43892   0.87154   0.00000  Uiso   1.00
O1412  O     0.44524   0.62478   0.89447   0.00000  Uiso   1.00
O1413  O     0.55918   0.62314   0.77709   0.00000  Uiso   1.00
O1414  O     0.43741   0.37625   0.88836   0.00000  Uiso   1.00
O1415  O     0.56487   0.55309   0.96096   0.00000  Uiso   1.00
O1416  O     0.43402   0.44779   0.70558   0.00000  Uiso   1.00
O1417  O     0.50000   0.56108   0.79513   0.00000  Uiso   1.00
O1418  O     0.50000   0.43893   0.79510   0.00000  Uiso   1.00
O1419  O     0.50000   0.56107   0.87157   0.00000  Uiso   1.00
O1420  O     0.42392   0.50000   0.86261   0.00000  Uiso   1.00
O1421  O     0.57608   0.50000   0.80405   0.00000  Uiso   1.00
O1422  O     0.42392   0.50000   0.78617   0.00000  Uiso   1.00
O1423  O     0.57608   0.50000   0.88050   0.00000  Uiso   1.00
O1424  O     0.55741   0.37591   0.77546   0.00000  Uiso   1.00
Zn1425 Zn    0.50000   0.49999   0.88437   0.00000  Uiso   1.00
Zn1426 Zn    0.50000   0.50001   0.78229   0.00000  Uiso   1.00
C1427  C     0.83311   0.42003   0.83299   0.00000  Uiso   1.00
C1428  C     0.80035   0.35500   0.86017   0.00000  Uiso   1.00
C1429  C     0.83298   0.62406   0.83368   0.00000  Uiso   1.00
C1430  C     0.83089   0.37586   0.83168   0.00000  Uiso   1.00
C1431  C     0.86614   0.52582   0.69529   0.00000  Uiso   1.00
C1432  C     0.80048   0.47423   0.97138   0.00000  Uiso   1.00
C1433  C     0.86677   0.52560   0.98046   0.00000  Uiso   1.00
C1434  C     0.79961   0.47465   0.68616   0.00000  Uiso   1.00
C1435  C     0.86762   0.37300   0.72906   0.00000  Uiso   1.00
C1436  C     0.72874   0.60975   0.87454   0.00000  Uiso   1.00
C1437  C     0.94329   0.61803   0.80166   0.00000  Uiso   1.00
C1438  C     0.83350   0.57993   0.83360   0.00000  Uiso   1.00
C1439  C     0.72327   0.38911   0.86203   0.00000  Uiso   1.00
C1440  C     0.95148   0.54372   0.97569   0.00000  Uiso   1.00
C1441  C     0.71437   0.45782   0.69041   0.00000  Uiso   1.00
C1442  C     0.73371   0.50044   0.82137   0.00000  Uiso   1.00
C1443  C     0.93297   0.50017   0.84530   0.00000  Uiso   1.00
C1444  C     0.67868   0.50083   0.81492   0.00000  Uiso   1.00
C1445  C     0.98800   0.50044   0.85176   0.00000  Uiso   1.00
C1446  C     0.85987   0.35446   0.80217   0.00000  Uiso   1.00
C1447  C     0.80238   0.64539   0.86197   0.00000  Uiso   1.00
C1448  C     0.86230   0.64485   0.80438   0.00000  Uiso   1.00
H1449  H     0.89148   0.54686   0.71739   0.00000  Uiso   1.00
H1450  H     0.69836   0.63321   0.87895   0.00000  Uiso   1.00
H1451  H     0.96321   0.64864   0.80912   0.00000  Uiso   1.00
H1452  H     0.94240   0.60057   0.83391   0.00000  Uiso   1.00
H1453  H     0.96691   0.59955   0.78025   0.00000  Uiso   1.00
H1454  H     0.70204   0.36284   0.84256   0.00000  Uiso   1.00
H1455  H     0.69735   0.40205   0.88546   0.00000  Uiso   1.00
H1456  H     0.73009   0.41402   0.83783   0.00000  Uiso   1.00
H1457  H     0.97575   0.56135   0.95435   0.00000  Uiso   1.00
H1458  H     0.95980   0.51001   0.97113   0.00000  Uiso   1.00
H1459  H     0.96385   0.55365   0.67851   0.00000  Uiso   1.00
H1460  H     0.77507   0.45324   0.94927   0.00000  Uiso   1.00
H1461  H     0.70213   0.44781   0.98760   0.00000  Uiso   1.00
H1462  H     0.70673   0.49168   0.69474   0.00000  Uiso   1.00
H1463  H     0.68949   0.44069   0.71163   0.00000  Uiso   1.00
H1464  H     0.99142   0.50124   0.77997   0.00000  Uiso   1.00
H1465  H     0.67526   0.50009   0.88671   0.00000  Uiso   1.00
H1466  H     0.87631   0.34246   0.71396   0.00000  Uiso   1.00
H1467  H     0.82440   0.37820   0.72428   0.00000  Uiso   1.00
H1468  H     0.88499   0.39755   0.70971   0.00000  Uiso   1.00
H1469  H     0.71957   0.58150   0.89323   0.00000  Uiso   1.00
H1470  H     0.72622   0.60072   0.83771   0.00000  Uiso   1.00
N1471  N     0.83332   0.49999   0.95240   0.00000  Uiso   1.00
N1472  N     0.83335   0.50001   0.71427   0.00000  Uiso   1.00
O1473  O     0.83333   0.43892   0.87154   0.00000  Uiso   1.00
O1474  O     0.77858   0.62478   0.89447   0.00000  Uiso   1.00
O1475  O     0.89252   0.62314   0.77709   0.00000  Uiso   1.00
O1476  O     0.77074   0.37625   0.88836   0.00000  Uiso   1.00
O1477  O     0.89820   0.55309   0.96096   0.00000  Uiso   1.00
O1478  O     0.76735   0.44779   0.70558   0.00000  Uiso   1.00
O1479  O     0.83334   0.56108   0.79513   0.00000  Uiso   1.00
O1480  O     0.83333   0.43893   0.79510   0.00000  Uiso   1.00
O1481  O     0.83334   0.56107   0.87157   0.00000  Uiso   1.00
O1482  O     0.75725   0.50000   0.86261   0.00000  Uiso   1.00
O1483  O     0.90942   0.50000   0.80405   0.00000  Uiso   1.00
O1484  O     0.75725   0.50000   0.78617   0.00000  Uiso   1.00
O1485  O     0.90942   0.50000   0.88050   0.00000  Uiso   1.00
O1486  O     0.89074   0.37591   0.77546   0.00000  Uiso   1.00
Zn1487 Zn    0.83333   0.49999   0.88437   0.00000  Uiso   1.00
Zn1488 Zn    0.83333   0.50001   0.78229   0.00000  Uiso   1.00
C1489  C     0.16645   0.75336   0.83299   0.00000  Uiso   1.00
C1490  C     0.13368   0.68834   0.86017   0.00000  Uiso   1.00
C1491  C     0.16631   0.95739   0.83368   0.00000  Uiso   1.00
C1492  C     0.16422   0.70919   0.83168   0.00000  Uiso   1.00
C1493  C     0.19947   0.85915   0.69529   0.00000  Uiso   1.00
C1494  C     0.13381   0.80756   0.97138   0.00000  Uiso   1.00
C1495  C     0.20010   0.85893   0.98046   0.00000  Uiso   1.00
C1496  C     0.13295   0.80798   0.68616   0.00000  Uiso   1.00
C1497  C     0.20095   0.70634   0.72906   0.00000  Uiso   1.00
C1498  C     0.06207   0.94308   0.87454   0.00000  Uiso   1.00
C1499  C     0.27663   0.95137   0.80166   0.00000  Uiso   1.00
C1500  C     0.16684   0.91327   0.83360   0.00000  Uiso   1.00
C1501  C     0.05660   0.72245   0.86203   0.00000  Uiso   1.00
C1502  C     0.28482   0.87705   0.97569   0.00000  Uiso   1.00
C1503  C     0.04770   0.79116   0.69041   0.00000  Uiso   1.00
C1504  C     0.06704   0.83377   0.82137   0.00000  Uiso   1.00
C1505  C     0.26630   0.83350   0.84530   0.00000  Uiso   1.00
C1506  C     0.01201   0.83417   0.81492   0.00000  Uiso   1.00
C1507  C     0.32133   0.83377   0.85176   0.00000  Uiso   1.00
C1508  C     0.19321   0.68780   0.80217   0.00000  Uiso   1.00
C1509  C     0.13571   0.97873   0.86197   0.00000  Uiso   1.00
C1510  C     0.19563   0.97818   0.80438   0.00000  Uiso   1.00
H1511  H     0.22481   0.88019   0.71739   0.00000  Uiso   1.00
H1512  H     0.03169   0.96654   0.87895   0.00000  Uiso   1.00
H1513  H     0.29654   0.98198   0.80912   0.00000  Uiso   1.00
H1514  H     0.27574   0.93391   0.83391   0.00000  Uiso   1.00
H1515  H     0.30024   0.93288   0.78025   0.00000  Uiso   1.00
H1516  H     0.03538   0.69617   0.84256   0.00000  Uiso   1.00
H1517  H     0.03068   0.73538   0.88546   0.00000  Uiso   1.00
H1518  H     0.06342   0.74735   0.83783   0.00000  Uiso   1.00
H1519  H     0.30908   0.89469   0.95435   0.00000  Uiso   1.00
H1520  H     0.29314   0.84335   0.97113   0.00000  Uiso   1.00
H1521  H     0.29718   0.88698   0.67851   0.00000  Uiso   1.00
H1522  H     0.10840   0.78657   0.94927   0.00000  Uiso   1.00
H1523  H     0.03547   0.78115   0.98760   0.00000  Uiso   1.00
H1524  H     0.04006   0.82501   0.69474   0.00000  Uiso   1.00
H1525  H     0.02282   0.77402   0.71163   0.00000  Uiso   1.00
H1526  H     0.32475   0.83457   0.77997   0.00000  Uiso   1.00
H1527  H     0.00860   0.83343   0.88671   0.00000  Uiso   1.00
H1528  H     0.20965   0.67579   0.71396   0.00000  Uiso   1.00
H1529  H     0.15773   0.71153   0.72428   0.00000  Uiso   1.00
H1530  H     0.21832   0.73088   0.70971   0.00000  Uiso   1.00
H1531  H     0.05291   0.91483   0.89323   0.00000  Uiso   1.00
H1532  H     0.05956   0.93405   0.83771   0.00000  Uiso   1.00
N1533  N     0.16665   0.83332   0.95240   0.00000  Uiso   1.00
N1534  N     0.16668   0.83334   0.71427   0.00000  Uiso   1.00
O1535  O     0.16666   0.77225   0.87154   0.00000  Uiso   1.00
O1536  O     0.11191   0.95811   0.89447   0.00000  Uiso   1.00
O1537  O     0.22585   0.95647   0.77709   0.00000  Uiso   1.00
O1538  O     0.10407   0.70959   0.88836   0.00000  Uiso   1.00
O1539  O     0.23154   0.88642   0.96096   0.00000  Uiso   1.00
O1540  O     0.10069   0.78112   0.70558   0.00000  Uiso   1.00
O1541  O     0.16667   0.89442   0.79513   0.00000  Uiso   1.00
O1542  O     0.16666   0.77226   0.79510   0.00000  Uiso   1.00
O1543  O     0.16667   0.89441   0.87157   0.00000  Uiso   1.00
O1544  O     0.09058   0.83333   0.86261   0.00000  Uiso   1.00
O1545  O     0.24275   0.83334   0.80405   0.00000  Uiso   1.00
O1546  O     0.09058   0.83334   0.78617   0.00000  Uiso   1.00
O1547  O     0.24275   0.83333   0.88050   0.00000  Uiso   1.00
O1548  O     0.22407   0.70925   0.77546   0.00000  Uiso   1.00
Zn1549 Zn    0.16667   0.83333   0.88437   0.00000  Uiso   1.00
Zn1550 Zn    0.16667   0.83334   0.78229   0.00000  Uiso   1.00
C1551  C     0.49978   0.75336   0.83299   0.00000  Uiso   1.00
C1552  C     0.46701   0.68834   0.86017   0.00000  Uiso   1.00
C1553  C     0.49964   0.95739   0.83368   0.00000  Uiso   1.00
C1554  C     0.49756   0.70919   0.83168   0.00000  Uiso   1.00
C1555  C     0.53281   0.85915   0.69529   0.00000  Uiso   1.00
C1556  C     0.46714   0.80756   0.97138   0.00000  Uiso   1.00
C1557  C     0.53344   0.85893   0.98046   0.00000  Uiso   1.00
C1558  C     0.46628   0.80798   0.68616   0.00000  Uiso   1.00
C1559  C     0.53429   0.70634   0.72906   0.00000  Uiso   1.00
C1560  C     0.39540   0.94308   0.87454   0.00000  Uiso   1.00
C1561  C     0.60996   0.95137   0.80166   0.00000  Uiso   1.00
C1562  C     0.50017   0.91327   0.83360   0.00000  Uiso   1.00
C1563  C     0.38994   0.72245   0.86203   0.00000  Uiso   1.00
C1564  C     0.61815   0.87705   0.97569   0.00000  Uiso   1.00
C1565  C     0.38104   0.79116   0.69041   0.00000  Uiso   1.00
C1566  C     0.40037   0.83377   0.82137   0.00000  Uiso   1.00
C1567  C     0.59964   0.83350   0.84530   0.00000  Uiso   1.00
C1568  C     0.34534   0.83417   0.81492   0.00000  Uiso   1.00
C1569  C     0.65466   0.83377   0.85176   0.00000  Uiso   1.00
C1570  C     0.52654   0.68780   0.80217   0.00000  Uiso   1.00
C1571  C     0.46904   0.97873   0.86197   0.00000  Uiso   1.00
C1572  C     0.52897   0.97818   0.80438   0.00000  Uiso   1.00
H1573  H     0.55814   0.88019   0.71739   0.00000  Uiso   1.00
H1574  H     0.36503   0.96654   0.87895   0.00000  Uiso   1.00
H1575  H     0.62988   0.98198   0.80912   0.00000  Uiso   1.00
H1576  H     0.60907   0.93391   0.83391   0.00000  Uiso   1.00
H1577  H     0.63358   0.93288   0.78025   0.00000  Uiso   1.00
H1578  H     0.36871   0.69617   0.84256   0.00000  Uiso   1.00
H1579  H     0.36401   0.73538   0.88546   0.00000  Uiso   1.00
H1580  H     0.39676   0.74735   0.83783   0.00000  Uiso   1.00
H1581  H     0.64241   0.89469   0.95435   0.00000  Uiso   1.00
H1582  H     0.62647   0.84335   0.97113   0.00000  Uiso   1.00
H1583  H     0.63051   0.88698   0.67851   0.00000  Uiso   1.00
H1584  H     0.44174   0.78657   0.94927   0.00000  Uiso   1.00
H1585  H     0.36880   0.78115   0.98760   0.00000  Uiso   1.00
H1586  H     0.37340   0.82501   0.69474   0.00000  Uiso   1.00
H1587  H     0.35616   0.77402   0.71163   0.00000  Uiso   1.00
H1588  H     0.65808   0.83457   0.77997   0.00000  Uiso   1.00
H1589  H     0.34193   0.83343   0.88671   0.00000  Uiso   1.00
H1590  H     0.54298   0.67579   0.71396   0.00000  Uiso   1.00
H1591  H     0.49107   0.71153   0.72428   0.00000  Uiso   1.00
H1592  H     0.55165   0.73088   0.70971   0.00000  Uiso   1.00
H1593  H     0.38624   0.91483   0.89323   0.00000  Uiso   1.00
H1594  H     0.39289   0.93405   0.83771   0.00000  Uiso   1.00
N1595  N     0.49999   0.83332   0.95240   0.00000  Uiso   1.00
N1596  N     0.50001   0.83334   0.71427   0.00000  Uiso   1.00
O1597  O     0.50000   0.77225   0.87154   0.00000  Uiso   1.00
O1598  O     0.44524   0.95811   0.89447   0.00000  Uiso   1.00
O1599  O     0.55918   0.95647   0.77709   0.00000  Uiso   1.00
O1600  O     0.43741   0.70959   0.88836   0.00000  Uiso   1.00
O1601  O     0.56487   0.88642   0.96096   0.00000  Uiso   1.00
O1602  O     0.43402   0.78112   0.70558   0.00000  Uiso   1.00
O1603  O     0.50000   0.89442   0.79513   0.00000  Uiso   1.00
O1604  O     0.50000   0.77226   0.79510   0.00000  Uiso   1.00
O1605  O     0.50000   0.89441   0.87157   0.00000  Uiso   1.00
O1606  O     0.42392   0.83333   0.86261   0.00000  Uiso   1.00
O1607  O     0.57608   0.83334   0.80405   0.00000  Uiso   1.00
O1608  O     0.42392   0.83334   0.78617   0.00000  Uiso   1.00
O1609  O     0.57608   0.83333   0.88050   0.00000  Uiso   1.00
O1610  O     0.55741   0.70925   0.77546   0.00000  Uiso   1.00
Zn1611 Zn    0.50000   0.83333   0.88437   0.00000  Uiso   1.00
Zn1612 Zn    0.50000   0.83334   0.78229   0.00000  Uiso   1.00
C1613  C     0.83311   0.75336   0.83299   0.00000  Uiso   1.00
C1614  C     0.80035   0.68834   0.86017   0.00000  Uiso   1.00
C1615  C     0.83298   0.95739   0.83368   0.00000  Uiso   1.00
C1616  C     0.83089   0.70919   0.83168   0.00000  Uiso   1.00
C1617  C     0.86614   0.85915   0.69529   0.00000  Uiso   1.00
C1618  C     0.80048   0.80756   0.97138   0.00000  Uiso   1.00
C1619  C     0.86677   0.85893   0.98046   0.00000  Uiso   1.00
C1620  C     0.79961   0.80798   0.68616   0.00000  Uiso   1.00
C1621  C     0.86762   0.70634   0.72906   0.00000  Uiso   1.00
C1622  C     0.72874   0.94308   0.87454   0.00000  Uiso   1.00
C1623  C     0.94329   0.95137   0.80166   0.00000  Uiso   1.00
C1624  C     0.83350   0.91327   0.83360   0.00000  Uiso   1.00
C1625  C     0.72327   0.72245   0.86203   0.00000  Uiso   1.00
C1626  C     0.95148   0.87705   0.97569   0.00000  Uiso   1.00
C1627  C     0.71437   0.79116   0.69041   0.00000  Uiso   1.00
C1628  C     0.73371   0.83377   0.82137   0.00000  Uiso   1.00
C1629  C     0.93297   0.83350   0.84530   0.00000  Uiso   1.00
C1630  C     0.67868   0.83417   0.81492   0.00000  Uiso   1.00
C1631  C     0.98800   0.83377   0.85176   0.00000  Uiso   1.00
C1632  C     0.85987   0.68780   0.80217   0.00000  Uiso   1.00
C1633  C     0.80238   0.97873   0.86197   0.00000  Uiso   1.00
C1634  C     0.86230   0.97818   0.80438   0.00000  Uiso   1.00
H1635  H     0.89148   0.88019   0.71739   0.00000  Uiso   1.00
H1636  H     0.69836   0.96654   0.87895   0.00000  Uiso   1.00
H1637  H     0.96321   0.98198   0.80912   0.00000  Uiso   1.00
H1638  H     0.94240   0.93391   0.83391   0.00000  Uiso   1.00
H1639  H     0.96691   0.93288   0.78025   0.00000  Uiso   1.00
H1640  H     0.70204   0.69617   0.84256   0.00000  Uiso   1.00
H1641  H     0.69735   0.73538   0.88546   0.00000  Uiso   1.00
H1642  H     0.73009   0.74735   0.83783   0.00000  Uiso   1.00
H1643  H     0.97575   0.89469   0.95435   0.00000  Uiso   1.00
H1644  H     0.95980   0.84335   0.97113   0.00000  Uiso   1.00
H1645  H     0.96385   0.88698   0.67851   0.00000  Uiso   1.00
H1646  H     0.77507   0.78657   0.94927   0.00000  Uiso   1.00
H1647  H     0.70213   0.78115   0.98760   0.00000  Uiso   1.00
H1648  H     0.70673   0.82501   0.69474   0.00000  Uiso   1.00
H1649  H     0.68949   0.77402   0.71163   0.00000  Uiso   1.00
H1650  H     0.99142   0.83457   0.77997   0.00000  Uiso   1.00
H1651  H     0.67526   0.83343   0.88671   0.00000  Uiso   1.00
H1652  H     0.87631   0.67579   0.71396   0.00000  Uiso   1.00
H1653  H     0.82440   0.71153   0.72428   0.00000  Uiso   1.00
H1654  H     0.88499   0.73088   0.70971   0.00000  Uiso   1.00
H1655  H     0.71957   0.91483   0.89323   0.00000  Uiso   1.00
H1656  H     0.72622   0.93405   0.83771   0.00000  Uiso   1.00
N1657  N     0.83332   0.83332   0.95240   0.00000  Uiso   1.00
N1658  N     0.83335   0.83334   0.71427   0.00000  Uiso   1.00
O1659  O     0.83333   0.77225   0.87154   0.00000  Uiso   1.00
O1660  O     0.77858   0.95811   0.89447   0.00000  Uiso   1.00
O1661  O     0.89252   0.95647   0.77709   0.00000  Uiso   1.00
O1662  O     0.77074   0.70959   0.88836   0.00000  Uiso   1.00
O1663  O     0.89820   0.88642   0.96096   0.00000  Uiso   1.00
O1664  O     0.76735   0.78112   0.70558   0.00000  Uiso   1.00
O1665  O     0.83334   0.89442   0.79513   0.00000  Uiso   1.00
O1666  O     0.83333   0.77226   0.79510   0.00000  Uiso   1.00
O1667  O     0.83334   0.89441   0.87157   0.00000  Uiso   1.00
O1668  O     0.75725   0.83333   0.86261   0.00000  Uiso   1.00
O1669  O     0.90942   0.83334   0.80405   0.00000  Uiso   1.00
O1670  O     0.75725   0.83334   0.78617   0.00000  Uiso   1.00
O1671  O     0.90942   0.83333   0.88050   0.00000  Uiso   1.00
O1672  O     0.89074   0.70925   0.77546   0.00000  Uiso   1.00
Zn1673 Zn    0.83333   0.83333   0.88437   0.00000  Uiso   1.00
Zn1674 Zn    0.83333   0.83334   0.78229   0.00000  Uiso   1.00
loop_
_geom_bond_atom_site_label_1
_geom_bond_atom_site_label_2
_geom_bond_distance
_geom_bond_site_symmetry_2
_ccdc_geom_bond_type
C1     O54     1.279   .     A
C1     C4      1.419   .     S
C1     O47     1.284   .     A
C2     C4      1.408   .     A
C2     O50     1.386   .     S
C2     C393    1.381   1_545 S
C3     C21     1.405   .     A
C3     C22     1.403   .     A
C3     C12     1.416   .     S
C4     C20     1.405   .     A
C5     H23     1.081   .     S
C5     N46     1.364   .     A
C5     C1123   1.425   1_554 S
C6     H34     1.081   .     S
C6     N45     1.364   .     A
C6     C566    1.425   .     S
C7     O51     1.383   .     S
C7     N45     1.369   .     A
C7     C563    1.425   .     S
C8     O52     1.383   .     S
C8     N46     1.369   .     A
C8     C1122   1.425   1_554 S
C9     H41     1.114   .     S
C9     O60     1.413   .     S
C9     H42     1.110   .     S
C9     H40     1.110   .     S
C10    O48     1.412   .     S
C10    H44     1.115   .     S
C10    H24     1.108   .     S
C10    H43     1.109   .     S
C11    O49     1.409   .     S
C11    H27     1.109   .     S
C11    H25     1.112   .     S
C11    H26     1.113   .     S
C12    O55     1.281   .     A
C12    O53     1.281   .     A
C13    H28     1.111   .     S
C13    H29     1.109   .     S
C13    O50     1.413   .     S
C13    H30     1.109   .     S
C14    O51     1.411   .     S
C14    H31     1.110   .     S
C14    H32     1.114   .     S
C14    H591    1.111   .     S
C15    O52     1.411   .     S
C15    H36     1.114   .     S
C15    H37     1.109   .     S
C15    H1151   1.111   1_554 S
C16    O56     1.278   .     A
C16    O58     1.279   .     A
C16    C18     1.402   .     S
C17    O57     1.277   .     A
C17    C19     1.402   .     S
C17    O59     1.279   .     A
C18    C143    1.330   1_455 S
C18    H162    1.088   1_455 S
C19    C80     1.330   .     S
C19    H101    1.088   .     S
C20    O60     1.387   .     S
C20    C394    1.382   1_545 S
C21    O48     1.386   .     S
C21    C188    1.381   .     S
C22    O49     1.385   .     S
C22    C206    1.382   .     S
H33    C1130   1.111   1_554 S
H35    C573    1.111   .     S
H38    C80     1.088   .     S
H39    C143    1.088   1_455 S
N45    Zn61    2.009   .     S
N46    Zn62    2.009   .     S
O47    Zn61    1.993   .     S
O53    Zn62    1.993   .     S
O54    Zn62    2.000   .     S
O55    Zn61    2.000   .     S
O56    Zn61    1.969   .     S
O57    Zn62    1.969   .     S
O58    Zn62    1.980   .     S
O59    Zn61    1.980   .     S
C63    O116    1.279   .     A
C63    C66     1.419   .     S
C63    O109    1.284   .     A
C64    C66     1.408   .     A
C64    O112    1.386   .     S
C64    C455    1.381   1_545 S
C65    C83     1.405   .     A
C65    C84     1.403   .     A
C65    C74     1.416   .     S
C66    C82     1.405   .     A
C67    H85     1.081   .     S
C67    N108    1.364   .     A
C67    C1185   1.425   1_554 S
C68    H96     1.081   .     S
C68    N107    1.364   .     A
C68    C628    1.425   .     S
C69    O113    1.383   .     S
C69    N107    1.369   .     A
C69    C625    1.425   .     S
C70    O114    1.383   .     S
C70    N108    1.369   .     A
C70    C1184   1.425   1_554 S
C71    H103    1.114   .     S
C71    O122    1.413   .     S
C71    H104    1.110   .     S
C71    H102    1.110   .     S
C72    O110    1.412   .     S
C72    H106    1.115   .     S
C72    H86     1.108   .     S
C72    H105    1.109   .     S
C73    O111    1.409   .     S
C73    H89     1.109   .     S
C73    H87     1.112   .     S
C73    H88     1.113   .     S
C74    O117    1.281   .     A
C74    O115    1.281   .     A
C75    H90     1.111   .     S
C75    H91     1.109   .     S
C75    O112    1.413   .     S
C75    H92     1.109   .     S
C76    O113    1.411   .     S
C76    H93     1.110   .     S
C76    H94     1.114   .     S
C76    H653    1.111   .     S
C77    O114    1.411   .     S
C77    H98     1.114   .     S
C77    H99     1.109   .     S
C77    H1213   1.111   1_554 S
C78    O118    1.278   .     A
C78    O120    1.279   .     A
C78    C80     1.402   .     S
C79    O119    1.277   .     A
C79    C81     1.402   .     S
C79    O121    1.279   .     A
C81    C142    1.330   .     S
C81    H163    1.088   .     S
C82    O122    1.387   .     S
C82    C456    1.382   1_545 S
C83    O110    1.386   .     S
C83    C250    1.381   .     S
C84    O111    1.385   .     S
C84    C268    1.382   .     S
H95    C1192   1.111   1_554 S
H97    C635    1.111   .     S
H100   C142    1.088   .     S
N107   Zn123   2.009   .     S
N108   Zn124   2.009   .     S
O109   Zn123   1.993   .     S
O115   Zn124   1.993   .     S
O116   Zn124   2.000   .     S
O117   Zn123   2.000   .     S
O118   Zn123   1.969   .     S
O119   Zn124   1.969   .     S
O120   Zn124   1.980   .     S
O121   Zn123   1.980   .     S
C125   O178    1.279   .     A
C125   C128    1.419   .     S
C125   O171    1.284   .     A
C126   C128    1.408   .     A
C126   O174    1.386   .     S
C126   C517    1.381   1_545 S
C127   C145    1.405   .     A
C127   C146    1.403   .     A
C127   C136    1.416   .     S
C128   C144    1.405   .     A
C129   H147    1.081   .     S
C129   N170    1.364   .     A
C129   C1247   1.425   1_554 S
C130   H158    1.081   .     S
C130   N169    1.364   .     A
C130   C690    1.425   .     S
C131   O175    1.383   .     S
C131   N169    1.369   .     A
C131   C687    1.425   .     S
C132   O176    1.383   .     S
C132   N170    1.369   .     A
C132   C1246   1.425   1_554 S
C133   H165    1.114   .     S
C133   O184    1.413   .     S
C133   H166    1.110   .     S
C133   H164    1.110   .     S
C134   O172    1.412   .     S
C134   H168    1.115   .     S
C134   H148    1.108   .     S
C134   H167    1.109   .     S
C135   O173    1.409   .     S
C135   H151    1.109   .     S
C135   H149    1.112   .     S
C135   H150    1.113   .     S
C136   O179    1.281   .     A
C136   O177    1.281   .     A
C137   H152    1.111   .     S
C137   H153    1.109   .     S
C137   O174    1.413   .     S
C137   H154    1.109   .     S
C138   O175    1.411   .     S
C138   H155    1.110   .     S
C138   H156    1.114   .     S
C138   H715    1.111   .     S
C139   O176    1.411   .     S
C139   H160    1.114   .     S
C139   H161    1.109   .     S
C139   H1275   1.111   1_554 S
C140   O180    1.278   .     A
C140   O182    1.279   .     A
C140   C142    1.402   .     S
C141   O181    1.277   .     A
C141   C143    1.402   .     S
C141   O183    1.279   .     A
C143   C18     1.330   1_655 S
C143   H39     1.088   1_655 S
C144   O184    1.387   .     S
C144   C518    1.382   1_545 S
C145   O172    1.386   .     S
C145   C312    1.381   .     S
C146   O173    1.385   .     S
C146   C330    1.382   .     S
H157   C1254   1.111   1_554 S
H159   C697    1.111   .     S
H162   C18     1.088   1_655 S
N169   Zn185   2.009   .     S
N170   Zn186   2.009   .     S
O171   Zn185   1.993   .     S
O177   Zn186   1.993   .     S
O178   Zn186   2.000   .     S
O179   Zn185   2.000   .     S
O180   Zn185   1.969   .     S
O181   Zn186   1.969   .     S
O182   Zn186   1.980   .     S
O183   Zn185   1.980   .     S
C187   O240    1.279   .     A
C187   C190    1.419   .     S
C187   O233    1.284   .     A
C188   C190    1.408   .     A
C188   O236    1.386   .     S
C189   C207    1.405   .     A
C189   C208    1.403   .     A
C189   C198    1.416   .     S
C190   C206    1.405   .     A
C191   H209    1.081   .     S
C191   N232    1.364   .     A
C191   C1309   1.425   1_554 S
C192   H220    1.081   .     S
C192   N231    1.364   .     A
C192   C752    1.425   .     S
C193   O237    1.383   .     S
C193   N231    1.369   .     A
C193   C749    1.425   .     S
C194   O238    1.383   .     S
C194   N232    1.369   .     A
C194   C1308   1.425   1_554 S
C195   H227    1.114   .     S
C195   O246    1.413   .     S
C195   H228    1.110   .     S
C195   H226    1.110   .     S
C196   O234    1.412   .     S
C196   H230    1.115   .     S
C196   H210    1.108   .     S
C196   H229    1.109   .     S
C197   O235    1.409   .     S
C197   H213    1.109   .     S
C197   H211    1.112   .     S
C197   H212    1.113   .     S
C198   O241    1.281   .     A
C198   O239    1.281   .     A
C199   H214    1.111   .     S
C199   H215    1.109   .     S
C199   O236    1.413   .     S
C199   H216    1.109   .     S
C200   O237    1.411   .     S
C200   H217    1.110   .     S
C200   H218    1.114   .     S
C200   H777    1.111   .     S
C201   O238    1.411   .     S
C201   H222    1.114   .     S
C201   H223    1.109   .     S
C201   H1337   1.111   1_554 S
C202   O242    1.278   .     A
C202   O244    1.279   .     A
C202   C204    1.402   .     S
C203   O243    1.277   .     A
C203   C205    1.402   .     S
C203   O245    1.279   .     A
C204   C329    1.330   1_455 S
C204   H348    1.088   1_455 S
C205   C266    1.330   .     S
C205   H287    1.088   .     S
C206   O246    1.387   .     S
C207   O234    1.386   .     S
C207   C374    1.381   .     S
C208   O235    1.385   .     S
C208   C392    1.382   .     S
H219   C1316   1.111   1_554 S
H221   C759    1.111   .     S
H224   C266    1.088   .     S
H225   C329    1.088   1_455 S
N231   Zn247   2.009   .     S
N232   Zn248   2.009   .     S
O233   Zn247   1.993   .     S
O239   Zn248   1.993   .     S
O240   Zn248   2.000   .     S
O241   Zn247   2.000   .     S
O242   Zn247   1.969   .     S
O243   Zn248   1.969   .     S
O244   Zn248   1.980   .     S
O245   Zn247   1.980   .     S
C249   O302    1.279   .     A
C249   C252    1.419   .     S
C249   O295    1.284   .     A
C250   C252    1.408   .     A
C250   O298    1.386   .     S
C251   C269    1.405   .     A
C251   C270    1.403   .     A
C251   C260    1.416   .     S
C252   C268    1.405   .     A
C253   H271    1.081   .     S
C253   N294    1.364   .     A
C253   C1371   1.425   1_554 S
C254   H282    1.081   .     S
C254   N293    1.364   .     A
C254   C814    1.425   .     S
C255   O299    1.383   .     S
C255   N293    1.369   .     A
C255   C811    1.425   .     S
C256   O300    1.383   .     S
C256   N294    1.369   .     A
C256   C1370   1.425   1_554 S
C257   H289    1.114   .     S
C257   O308    1.413   .     S
C257   H290    1.110   .     S
C257   H288    1.110   .     S
C258   O296    1.412   .     S
C258   H292    1.115   .     S
C258   H272    1.108   .     S
C258   H291    1.109   .     S
C259   O297    1.409   .     S
C259   H275    1.109   .     S
C259   H273    1.112   .     S
C259   H274    1.113   .     S
C260   O303    1.281   .     A
C260   O301    1.281   .     A
C261   H276    1.111   .     S
C261   H277    1.109   .     S
C261   O298    1.413   .     S
C261   H278    1.109   .     S
C262   O299    1.411   .     S
C262   H279    1.110   .     S
C262   H280    1.114   .     S
C262   H839    1.111   .     S
C263   O300    1.411   .     S
C263   H284    1.114   .     S
C263   H285    1.109   .     S
C263   H1399   1.111   1_554 S
C264   O304    1.278   .     A
C264   O306    1.279   .     A
C264   C266    1.402   .     S
C265   O305    1.277   .     A
C265   C267    1.402   .     S
C265   O307    1.279   .     A
C267   C328    1.330   .     S
C267   H349    1.088   .     S
C268   O308    1.387   .     S
C269   O296    1.386   .     S
C269   C436    1.381   .     S
C270   O297    1.385   .     S
C270   C454    1.382   .     S
H281   C1378   1.111   1_554 S
H283   C821    1.111   .     S
H286   C328    1.088   .     S
N293   Zn309   2.009   .     S
N294   Zn310   2.009   .     S
O295   Zn309   1.993   .     S
O301   Zn310   1.993   .     S
O302   Zn310   2.000   .     S
O303   Zn309   2.000   .     S
O304   Zn309   1.969   .     S
O305   Zn310   1.969   .     S
O306   Zn310   1.980   .     S
O307   Zn309   1.980   .     S
C311   O364    1.279   .     A
C311   C314    1.419   .     S
C311   O357    1.284   .     A
C312   C314    1.408   .     A
C312   O360    1.386   .     S
C313   C331    1.405   .     A
C313   C332    1.403   .     A
C313   C322    1.416   .     S
C314   C330    1.405   .     A
C315   H333    1.081   .     S
C315   N356    1.364   .     A
C315   C1433   1.425   1_554 S
C316   H344    1.081   .     S
C316   N355    1.364   .     A
C316   C876    1.425   .     S
C317   O361    1.383   .     S
C317   N355    1.369   .     A
C317   C873    1.425   .     S
C318   O362    1.383   .     S
C318   N356    1.369   .     A
C318   C1432   1.425   1_554 S
C319   H351    1.114   .     S
C319   O370    1.413   .     S
C319   H352    1.110   .     S
C319   H350    1.110   .     S
C320   O358    1.412   .     S
C320   H354    1.115   .     S
C320   H334    1.108   .     S
C320   H353    1.109   .     S
C321   O359    1.409   .     S
C321   H337    1.109   .     S
C321   H335    1.112   .     S
C321   H336    1.113   .     S
C322   O365    1.281   .     A
C322   O363    1.281   .     A
C323   H338    1.111   .     S
C323   H339    1.109   .     S
C323   O360    1.413   .     S
C323   H340    1.109   .     S
C324   O361    1.411   .     S
C324   H341    1.110   .     S
C324   H342    1.114   .     S
C324   H901    1.111   .     S
C325   O362    1.411   .     S
C325   H346    1.114   .     S
C325   H347    1.109   .     S
C325   H1461   1.111   1_554 S
C326   O366    1.278   .     A
C326   O368    1.279   .     A
C326   C328    1.402   .     S
C327   O367    1.277   .     A
C327   C329    1.402   .     S
C327   O369    1.279   .     A
C329   C204    1.330   1_655 S
C329   H225    1.088   1_655 S
C330   O370    1.387   .     S
C331   O358    1.386   .     S
C331   C498    1.381   .     S
C332   O359    1.385   .     S
C332   C516    1.382   .     S
H343   C1440   1.111   1_554 S
H345   C883    1.111   .     S
H348   C204    1.088   1_655 S
N355   Zn371   2.009   .     S
N356   Zn372   2.009   .     S
O357   Zn371   1.993   .     S
O363   Zn372   1.993   .     S
O364   Zn372   2.000   .     S
O365   Zn371   2.000   .     S
O366   Zn371   1.969   .     S
O367   Zn372   1.969   .     S
O368   Zn372   1.980   .     S
O369   Zn371   1.980   .     S
C373   O426    1.279   .     A
C373   C376    1.419   .     S
C373   O419    1.284   .     A
C374   C376    1.408   .     A
C374   O422    1.386   .     S
C375   C393    1.405   .     A
C375   C394    1.403   .     A
C375   C384    1.416   .     S
C376   C392    1.405   .     A
C377   H395    1.081   .     S
C377   N418    1.364   .     A
C377   C1495   1.425   1_554 S
C378   H406    1.081   .     S
C378   N417    1.364   .     A
C378   C938    1.425   .     S
C379   O423    1.383   .     S
C379   N417    1.369   .     A
C379   C935    1.425   .     S
C380   O424    1.383   .     S
C380   N418    1.369   .     A
C380   C1494   1.425   1_554 S
C381   H413    1.114   .     S
C381   O432    1.413   .     S
C381   H414    1.110   .     S
C381   H412    1.110   .     S
C382   O420    1.412   .     S
C382   H416    1.115   .     S
C382   H396    1.108   .     S
C382   H415    1.109   .     S
C383   O421    1.409   .     S
C383   H399    1.109   .     S
C383   H397    1.112   .     S
C383   H398    1.113   .     S
C384   O427    1.281   .     A
C384   O425    1.281   .     A
C385   H400    1.111   .     S
C385   H401    1.109   .     S
C385   O422    1.413   .     S
C385   H402    1.109   .     S
C386   O423    1.411   .     S
C386   H403    1.110   .     S
C386   H404    1.114   .     S
C386   H963    1.111   .     S
C387   O424    1.411   .     S
C387   H408    1.114   .     S
C387   H409    1.109   .     S
C387   H1523   1.111   1_554 S
C388   O428    1.278   .     A
C388   O430    1.279   .     A
C388   C390    1.402   .     S
C389   O429    1.277   .     A
C389   C391    1.402   .     S
C389   O431    1.279   .     A
C390   C515    1.330   1_455 S
C390   H534    1.088   1_455 S
C391   C452    1.330   .     S
C391   H473    1.088   .     S
C392   O432    1.387   .     S
C393   O420    1.386   .     S
C393   C2      1.381   1_565 S
C394   O421    1.385   .     S
C394   C20     1.382   1_565 S
H405   C1502   1.111   1_554 S
H407   C945    1.111   .     S
H410   C452    1.088   .     S
H411   C515    1.088   1_455 S
N417   Zn433   2.009   .     S
N418   Zn434   2.009   .     S
O419   Zn433   1.993   .     S
O425   Zn434   1.993   .     S
O426   Zn434   2.000   .     S
O427   Zn433   2.000   .     S
O428   Zn433   1.969   .     S
O429   Zn434   1.969   .     S
O430   Zn434   1.980   .     S
O431   Zn433   1.980   .     S
C435   O488    1.279   .     A
C435   C438    1.419   .     S
C435   O481    1.284   .     A
C436   C438    1.408   .     A
C436   O484    1.386   .     S
C437   C455    1.405   .     A
C437   C456    1.403   .     A
C437   C446    1.416   .     S
C438   C454    1.405   .     A
C439   H457    1.081   .     S
C439   N480    1.364   .     A
C439   C1557   1.425   1_554 S
C440   H468    1.081   .     S
C440   N479    1.364   .     A
C440   C1000   1.425   .     S
C441   O485    1.383   .     S
C441   N479    1.369   .     A
C441   C997    1.425   .     S
C442   O486    1.383   .     S
C442   N480    1.369   .     A
C442   C1556   1.425   1_554 S
C443   H475    1.114   .     S
C443   O494    1.413   .     S
C443   H476    1.110   .     S
C443   H474    1.110   .     S
C444   O482    1.412   .     S
C444   H478    1.115   .     S
C444   H458    1.108   .     S
C444   H477    1.109   .     S
C445   O483    1.409   .     S
C445   H461    1.109   .     S
C445   H459    1.112   .     S
C445   H460    1.113   .     S
C446   O489    1.281   .     A
C446   O487    1.281   .     A
C447   H462    1.111   .     S
C447   H463    1.109   .     S
C447   O484    1.413   .     S
C447   H464    1.109   .     S
C448   O485    1.411   .     S
C448   H465    1.110   .     S
C448   H466    1.114   .     S
C448   H1025   1.111   .     S
C449   O486    1.411   .     S
C449   H470    1.114   .     S
C449   H471    1.109   .     S
C449   H1585   1.111   1_554 S
C450   O490    1.278   .     A
C450   O492    1.279   .     A
C450   C452    1.402   .     S
C451   O491    1.277   .     A
C451   C453    1.402   .     S
C451   O493    1.279   .     A
C453   C514    1.330   .     S
C453   H535    1.088   .     S
C454   O494    1.387   .     S
C455   O482    1.386   .     S
C455   C64     1.381   1_565 S
C456   O483    1.385   .     S
C456   C82     1.382   1_565 S
H467   C1564   1.111   1_554 S
H469   C1007   1.111   .     S
H472   C514    1.088   .     S
N479   Zn495   2.009   .     S
N480   Zn496   2.009   .     S
O481   Zn495   1.993   .     S
O487   Zn496   1.993   .     S
O488   Zn496   2.000   .     S
O489   Zn495   2.000   .     S
O490   Zn495   1.969   .     S
O491   Zn496   1.969   .     S
O492   Zn496   1.980   .     S
O493   Zn495   1.980   .     S
C497   O550    1.279   .     A
C497   C500    1.419   .     S
C497   O543    1.284   .     A
C498   C500    1.408   .     A
C498   O546    1.386   .     S
C499   C517    1.405   .     A
C499   C518    1.403   .     A
C499   C508    1.416   .     S
C500   C516    1.405   .     A
C501   H519    1.081   .     S
C501   N542    1.364   .     A
C501   C1619   1.425   1_554 S
C502   H530    1.081   .     S
C502   N541    1.364   .     A
C502   C1062   1.425   .     S
C503   O547    1.383   .     S
C503   N541    1.369   .     A
C503   C1059   1.425   .     S
C504   O548    1.383   .     S
C504   N542    1.369   .     A
C504   C1618   1.425   1_554 S
C505   H537    1.114   .     S
C505   O556    1.413   .     S
C505   H538    1.110   .     S
C505   H536    1.110   .     S
C506   O544    1.412   .     S
C506   H540    1.115   .     S
C506   H520    1.108   .     S
C506   H539    1.109   .     S
C507   O545    1.409   .     S
C507   H523    1.109   .     S
C507   H521    1.112   .     S
C507   H522    1.113   .     S
C508   O551    1.281   .     A
C508   O549    1.281   .     A
C509   H524    1.111   .     S
C509   H525    1.109   .     S
C509   O546    1.413   .     S
C509   H526    1.109   .     S
C510   O547    1.411   .     S
C510   H527    1.110   .     S
C510   H528    1.114   .     S
C510   H1087   1.111   .     S
C511   O548    1.411   .     S
C511   H532    1.114   .     S
C511   H533    1.109   .     S
C511   H1647   1.111   1_554 S
C512   O552    1.278   .     A
C512   O554    1.279   .     A
C512   C514    1.402   .     S
C513   O553    1.277   .     A
C513   C515    1.402   .     S
C513   O555    1.279   .     A
C515   C390    1.330   1_655 S
C515   H411    1.088   1_655 S
C516   O556    1.387   .     S
C517   O544    1.386   .     S
C517   C126    1.381   1_565 S
C518   O545    1.385   .     S
C518   C144    1.382   1_565 S
H529   C1626   1.111   1_554 S
H531   C1069   1.111   .     S
H534   C390    1.088   1_655 S
N541   Zn557   2.009   .     S
N542   Zn558   2.009   .     S
O543   Zn557   1.993   .     S
O549   Zn558   1.993   .     S
O550   Zn558   2.000   .     S
O551   Zn557   2.000   .     S
O552   Zn557   1.969   .     S
O553   Zn558   1.969   .     S
O554   Zn558   1.980   .     S
O555   Zn557   1.980   .     S
C559   O612    1.279   .     A
C559   C562    1.419   .     S
C559   O605    1.284   .     A
C560   C562    1.408   .     A
C560   O608    1.386   .     S
C560   C951    1.381   1_545 S
C561   C579    1.405   .     A
C561   C580    1.403   .     A
C561   C570    1.416   .     S
C562   C578    1.405   .     A
C563   H581    1.081   .     S
C563   N604    1.364   .     A
C564   H592    1.081   .     S
C564   N603    1.364   .     A
C564   C1124   1.425   .     S
C565   O609    1.383   .     S
C565   N603    1.369   .     A
C565   C1121   1.425   .     S
C566   O610    1.383   .     S
C566   N604    1.369   .     A
C567   H599    1.114   .     S
C567   O618    1.413   .     S
C567   H600    1.110   .     S
C567   H598    1.110   .     S
C568   O606    1.412   .     S
C568   H602    1.115   .     S
C568   H582    1.108   .     S
C568   H601    1.109   .     S
C569   O607    1.409   .     S
C569   H585    1.109   .     S
C569   H583    1.112   .     S
C569   H584    1.113   .     S
C570   O613    1.281   .     A
C570   O611    1.281   .     A
C571   H586    1.111   .     S
C571   H587    1.109   .     S
C571   O608    1.413   .     S
C571   H588    1.109   .     S
C572   O609    1.411   .     S
C572   H589    1.110   .     S
C572   H590    1.114   .     S
C572   H1149   1.111   .     S
C573   O610    1.411   .     S
C573   H594    1.114   .     S
C573   H595    1.109   .     S
C574   O614    1.278   .     A
C574   O616    1.279   .     A
C574   C576    1.402   .     S
C575   O615    1.277   .     A
C575   C577    1.402   .     S
C575   O617    1.279   .     A
C576   C701    1.330   1_455 S
C576   H720    1.088   1_455 S
C577   C638    1.330   .     S
C577   H659    1.088   .     S
C578   O618    1.387   .     S
C578   C952    1.382   1_545 S
C579   O606    1.386   .     S
C579   C746    1.381   .     S
C580   O607    1.385   .     S
C580   C764    1.382   .     S
H593   C1131   1.111   .     S
H596   C638    1.088   .     S
H597   C701    1.088   1_455 S
N603   Zn619   2.009   .     S
N604   Zn620   2.009   .     S
O605   Zn619   1.993   .     S
O611   Zn620   1.993   .     S
O612   Zn620   2.000   .     S
O613   Zn619   2.000   .     S
O614   Zn619   1.969   .     S
O615   Zn620   1.969   .     S
O616   Zn620   1.980   .     S
O617   Zn619   1.980   .     S
C621   O674    1.279   .     A
C621   C624    1.419   .     S
C621   O667    1.284   .     A
C622   C624    1.408   .     A
C622   O670    1.386   .     S
C622   C1013   1.381   1_545 S
C623   C641    1.405   .     A
C623   C642    1.403   .     A
C623   C632    1.416   .     S
C624   C640    1.405   .     A
C625   H643    1.081   .     S
C625   N666    1.364   .     A
C626   H654    1.081   .     S
C626   N665    1.364   .     A
C626   C1186   1.425   .     S
C627   O671    1.383   .     S
C627   N665    1.369   .     A
C627   C1183   1.425   .     S
C628   O672    1.383   .     S
C628   N666    1.369   .     A
C629   H661    1.114   .     S
C629   O680    1.413   .     S
C629   H662    1.110   .     S
C629   H660    1.110   .     S
C630   O668    1.412   .     S
C630   H664    1.115   .     S
C630   H644    1.108   .     S
C630   H663    1.109   .     S
C631   O669    1.409   .     S
C631   H647    1.109   .     S
C631   H645    1.112   .     S
C631   H646    1.113   .     S
C632   O675    1.281   .     A
C632   O673    1.281   .     A
C633   H648    1.111   .     S
C633   H649    1.109   .     S
C633   O670    1.413   .     S
C633   H650    1.109   .     S
C634   O671    1.411   .     S
C634   H651    1.110   .     S
C634   H652    1.114   .     S
C634   H1211   1.111   .     S
C635   O672    1.411   .     S
C635   H656    1.114   .     S
C635   H657    1.109   .     S
C636   O676    1.278   .     A
C636   O678    1.279   .     A
C636   C638    1.402   .     S
C637   O677    1.277   .     A
C637   C639    1.402   .     S
C637   O679    1.279   .     A
C639   C700    1.330   .     S
C639   H721    1.088   .     S
C640   O680    1.387   .     S
C640   C1014   1.382   1_545 S
C641   O668    1.386   .     S
C641   C808    1.381   .     S
C642   O669    1.385   .     S
C642   C826    1.382   .     S
H655   C1193   1.111   .     S
H658   C700    1.088   .     S
N665   Zn681   2.009   .     S
N666   Zn682   2.009   .     S
O667   Zn681   1.993   .     S
O673   Zn682   1.993   .     S
O674   Zn682   2.000   .     S
O675   Zn681   2.000   .     S
O676   Zn681   1.969   .     S
O677   Zn682   1.969   .     S
O678   Zn682   1.980   .     S
O679   Zn681   1.980   .     S
C683   O736    1.279   .     A
C683   C686    1.419   .     S
C683   O729    1.284   .     A
C684   C686    1.408   .     A
C684   O732    1.386   .     S
C684   C1075   1.381   1_545 S
C685   C703    1.405   .     A
C685   C704    1.403   .     A
C685   C694    1.416   .     S
C686   C702    1.405   .     A
C687   H705    1.081   .     S
C687   N728    1.364   .     A
C688   H716    1.081   .     S
C688   N727    1.364   .     A
C688   C1248   1.425   .     S
C689   O733    1.383   .     S
C689   N727    1.369   .     A
C689   C1245   1.425   .     S
C690   O734    1.383   .     S
C690   N728    1.369   .     A
C691   H723    1.114   .     S
C691   O742    1.413   .     S
C691   H724    1.110   .     S
C691   H722    1.110   .     S
C692   O730    1.412   .     S
C692   H726    1.115   .     S
C692   H706    1.108   .     S
C692   H725    1.109   .     S
C693   O731    1.409   .     S
C693   H709    1.109   .     S
C693   H707    1.112   .     S
C693   H708    1.113   .     S
C694   O737    1.281   .     A
C694   O735    1.281   .     A
C695   H710    1.111   .     S
C695   H711    1.109   .     S
C695   O732    1.413   .     S
C695   H712    1.109   .     S
C696   O733    1.411   .     S
C696   H713    1.110   .     S
C696   H714    1.114   .     S
C696   H1273   1.111   .     S
C697   O734    1.411   .     S
C697   H718    1.114   .     S
C697   H719    1.109   .     S
C698   O738    1.278   .     A
C698   O740    1.279   .     A
C698   C700    1.402   .     S
C699   O739    1.277   .     A
C699   C701    1.402   .     S
C699   O741    1.279   .     A
C701   C576    1.330   1_655 S
C701   H597    1.088   1_655 S
C702   O742    1.387   .     S
C702   C1076   1.382   1_545 S
C703   O730    1.386   .     S
C703   C870    1.381   .     S
C704   O731    1.385   .     S
C704   C888    1.382   .     S
H717   C1255   1.111   .     S
H720   C576    1.088   1_655 S
N727   Zn743   2.009   .     S
N728   Zn744   2.009   .     S
O729   Zn743   1.993   .     S
O735   Zn744   1.993   .     S
O736   Zn744   2.000   .     S
O737   Zn743   2.000   .     S
O738   Zn743   1.969   .     S
O739   Zn744   1.969   .     S
O740   Zn744   1.980   .     S
O741   Zn743   1.980   .     S
C745   O798    1.279   .     A
C745   C748    1.419   .     S
C745   O791    1.284   .     A
C746   C748    1.408   .     A
C746   O794    1.386   .     S
C747   C765    1.405   .     A
C747   C766    1.403   .     A
C747   C756    1.416   .     S
C748   C764    1.405   .     A
C749   H767    1.081   .     S
C749   N790    1.364   .     A
C750   H778    1.081   .     S
C750   N789    1.364   .     A
C750   C1310   1.425   .     S
C751   O795    1.383   .     S
C751   N789    1.369   .     A
C751   C1307   1.425   .     S
C752   O796    1.383   .     S
C752   N790    1.369   .     A
C753   H785    1.114   .     S
C753   O804    1.413   .     S
C753   H786    1.110   .     S
C753   H784    1.110   .     S
C754   O792    1.412   .     S
C754   H788    1.115   .     S
C754   H768    1.108   .     S
C754   H787    1.109   .     S
C755   O793    1.409   .     S
C755   H771    1.109   .     S
C755   H769    1.112   .     S
C755   H770    1.113   .     S
C756   O799    1.281   .     A
C756   O797    1.281   .     A
C757   H772    1.111   .     S
C757   H773    1.109   .     S
C757   O794    1.413   .     S
C757   H774    1.109   .     S
C758   O795    1.411   .     S
C758   H775    1.110   .     S
C758   H776    1.114   .     S
C758   H1335   1.111   .     S
C759   O796    1.411   .     S
C759   H780    1.114   .     S
C759   H781    1.109   .     S
C760   O800    1.278   .     A
C760   O802    1.279   .     A
C760   C762    1.402   .     S
C761   O801    1.277   .     A
C761   C763    1.402   .     S
C761   O803    1.279   .     A
C762   C887    1.330   1_455 S
C762   H906    1.088   1_455 S
C763   C824    1.330   .     S
C763   H845    1.088   .     S
C764   O804    1.387   .     S
C765   O792    1.386   .     S
C765   C932    1.381   .     S
C766   O793    1.385   .     S
C766   C950    1.382   .     S
H779   C1317   1.111   .     S
H782   C824    1.088   .     S
H783   C887    1.088   1_455 S
N789   Zn805   2.009   .     S
N790   Zn806   2.009   .     S
O791   Zn805   1.993   .     S
O797   Zn806   1.993   .     S
O798   Zn806   2.000   .     S
O799   Zn805   2.000   .     S
O800   Zn805   1.969   .     S
O801   Zn806   1.969   .     S
O802   Zn806   1.980   .     S
O803   Zn805   1.980   .     S
C807   O860    1.279   .     A
C807   C810    1.419   .     S
C807   O853    1.284   .     A
C808   C810    1.408   .     A
C808   O856    1.386   .     S
C809   C827    1.405   .     A
C809   C828    1.403   .     A
C809   C818    1.416   .     S
C810   C826    1.405   .     A
C811   H829    1.081   .     S
C811   N852    1.364   .     A
C812   H840    1.081   .     S
C812   N851    1.364   .     A
C812   C1372   1.425   .     S
C813   O857    1.383   .     S
C813   N851    1.369   .     A
C813   C1369   1.425   .     S
C814   O858    1.383   .     S
C814   N852    1.369   .     A
C815   H847    1.114   .     S
C815   O866    1.413   .     S
C815   H848    1.110   .     S
C815   H846    1.110   .     S
C816   O854    1.412   .     S
C816   H850    1.115   .     S
C816   H830    1.108   .     S
C816   H849    1.109   .     S
C817   O855    1.409   .     S
C817   H833    1.109   .     S
C817   H831    1.112   .     S
C817   H832    1.113   .     S
C818   O861    1.281   .     A
C818   O859    1.281   .     A
C819   H834    1.111   .     S
C819   H835    1.109   .     S
C819   O856    1.413   .     S
C819   H836    1.109   .     S
C820   O857    1.411   .     S
C820   H837    1.110   .     S
C820   H838    1.114   .     S
C820   H1397   1.111   .     S
C821   O858    1.411   .     S
C821   H842    1.114   .     S
C821   H843    1.109   .     S
C822   O862    1.278   .     A
C822   O864    1.279   .     A
C822   C824    1.402   .     S
C823   O863    1.277   .     A
C823   C825    1.402   .     S
C823   O865    1.279   .     A
C825   C886    1.330   .     S
C825   H907    1.088   .     S
C826   O866    1.387   .     S
C827   O854    1.386   .     S
C827   C994    1.381   .     S
C828   O855    1.385   .     S
C828   C1012   1.382   .     S
H841   C1379   1.111   .     S
H844   C886    1.088   .     S
N851   Zn867   2.009   .     S
N852   Zn868   2.009   .     S
O853   Zn867   1.993   .     S
O859   Zn868   1.993   .     S
O860   Zn868   2.000   .     S
O861   Zn867   2.000   .     S
O862   Zn867   1.969   .     S
O863   Zn868   1.969   .     S
O864   Zn868   1.980   .     S
O865   Zn867   1.980   .     S
C869   O922    1.279   .     A
C869   C872    1.419   .     S
C869   O915    1.284   .     A
C870   C872    1.408   .     A
C870   O918    1.386   .     S
C871   C889    1.405   .     A
C871   C890    1.403   .     A
C871   C880    1.416   .     S
C872   C888    1.405   .     A
C873   H891    1.081   .     S
C873   N914    1.364   .     A
C874   H902    1.081   .     S
C874   N913    1.364   .     A
C874   C1434   1.425   .     S
C875   O919    1.383   .     S
C875   N913    1.369   .     A
C875   C1431   1.425   .     S
C876   O920    1.383   .     S
C876   N914    1.369   .     A
C877   H909    1.114   .     S
C877   O928    1.413   .     S
C877   H910    1.110   .     S
C877   H908    1.110   .     S
C878   O916    1.412   .     S
C878   H912    1.115   .     S
C878   H892    1.108   .     S
C878   H911    1.109   .     S
C879   O917    1.409   .     S
C879   H895    1.109   .     S
C879   H893    1.112   .     S
C879   H894    1.113   .     S
C880   O923    1.281   .     A
C880   O921    1.281   .     A
C881   H896    1.111   .     S
C881   H897    1.109   .     S
C881   O918    1.413   .     S
C881   H898    1.109   .     S
C882   O919    1.411   .     S
C882   H899    1.110   .     S
C882   H900    1.114   .     S
C882   H1459   1.111   .     S
C883   O920    1.411   .     S
C883   H904    1.114   .     S
C883   H905    1.109   .     S
C884   O924    1.278   .     A
C884   O926    1.279   .     A
C884   C886    1.402   .     S
C885   O925    1.277   .     A
C885   C887    1.402   .     S
C885   O927    1.279   .     A
C887   C762    1.330   1_655 S
C887   H783    1.088   1_655 S
C888   O928    1.387   .     S
C889   O916    1.386   .     S
C889   C1056   1.381   .     S
C890   O917    1.385   .     S
C890   C1074   1.382   .     S
H903   C1441   1.111   .     S
H906   C762    1.088   1_655 S
N913   Zn929   2.009   .     S
N914   Zn930   2.009   .     S
O915   Zn929   1.993   .     S
O921   Zn930   1.993   .     S
O922   Zn930   2.000   .     S
O923   Zn929   2.000   .     S
O924   Zn929   1.969   .     S
O925   Zn930   1.969   .     S
O926   Zn930   1.980   .     S
O927   Zn929   1.980   .     S
C931   O984    1.279   .     A
C931   C934    1.419   .     S
C931   O977    1.284   .     A
C932   C934    1.408   .     A
C932   O980    1.386   .     S
C933   C951    1.405   .     A
C933   C952    1.403   .     A
C933   C942    1.416   .     S
C934   C950    1.405   .     A
C935   H953    1.081   .     S
C935   N976    1.364   .     A
C936   H964    1.081   .     S
C936   N975    1.364   .     A
C936   C1496   1.425   .     S
C937   O981    1.383   .     S
C937   N975    1.369   .     A
C937   C1493   1.425   .     S
C938   O982    1.383   .     S
C938   N976    1.369   .     A
C939   H971    1.114   .     S
C939   O990    1.413   .     S
C939   H972    1.110   .     S
C939   H970    1.110   .     S
C940   O978    1.412   .     S
C940   H974    1.115   .     S
C940   H954    1.108   .     S
C940   H973    1.109   .     S
C941   O979    1.409   .     S
C941   H957    1.109   .     S
C941   H955    1.112   .     S
C941   H956    1.113   .     S
C942   O985    1.281   .     A
C942   O983    1.281   .     A
C943   H958    1.111   .     S
C943   H959    1.109   .     S
C943   O980    1.413   .     S
C943   H960    1.109   .     S
C944   O981    1.411   .     S
C944   H961    1.110   .     S
C944   H962    1.114   .     S
C944   H1521   1.111   .     S
C945   O982    1.411   .     S
C945   H966    1.114   .     S
C945   H967    1.109   .     S
C946   O986    1.278   .     A
C946   O988    1.279   .     A
C946   C948    1.402   .     S
C947   O987    1.277   .     A
C947   C949    1.402   .     S
C947   O989    1.279   .     A
C948   C1073   1.330   1_455 S
C948   H1092   1.088   1_455 S
C949   C1010   1.330   .     S
C949   H1031   1.088   .     S
C950   O990    1.387   .     S
C951   O978    1.386   .     S
C951   C560    1.381   1_565 S
C952   O979    1.385   .     S
C952   C578    1.382   1_565 S
H965   C1503   1.111   .     S
H968   C1010   1.088   .     S
H969   C1073   1.088   1_455 S
N975   Zn991   2.009   .     S
N976   Zn992   2.009   .     S
O977   Zn991   1.993   .     S
O983   Zn992   1.993   .     S
O984   Zn992   2.000   .     S
O985   Zn991   2.000   .     S
O986   Zn991   1.969   .     S
O987   Zn992   1.969   .     S
O988   Zn992   1.980   .     S
O989   Zn991   1.980   .     S
C993   O1046   1.279   .     A
C993   C996    1.419   .     S
C993   O1039   1.284   .     A
C994   C996    1.408   .     A
C994   O1042   1.386   .     S
C995   C1013   1.405   .     A
C995   C1014   1.403   .     A
C995   C1004   1.416   .     S
C996   C1012   1.405   .     A
C997   H1015   1.081   .     S
C997   N1038   1.364   .     A
C998   H1026   1.081   .     S
C998   N1037   1.364   .     A
C998   C1558   1.425   .     S
C999   O1043   1.383   .     S
C999   N1037   1.369   .     A
C999   C1555   1.425   .     S
C1000  O1044   1.383   .     S
C1000  N1038   1.369   .     A
C1001  H1033   1.114   .     S
C1001  O1052   1.413   .     S
C1001  H1034   1.110   .     S
C1001  H1032   1.110   .     S
C1002  O1040   1.412   .     S
C1002  H1036   1.115   .     S
C1002  H1016   1.108   .     S
C1002  H1035   1.109   .     S
C1003  O1041   1.409   .     S
C1003  H1019   1.109   .     S
C1003  H1017   1.112   .     S
C1003  H1018   1.113   .     S
C1004  O1047   1.281   .     A
C1004  O1045   1.281   .     A
C1005  H1020   1.111   .     S
C1005  H1021   1.109   .     S
C1005  O1042   1.413   .     S
C1005  H1022   1.109   .     S
C1006  O1043   1.411   .     S
C1006  H1023   1.110   .     S
C1006  H1024   1.114   .     S
C1006  H1583   1.111   .     S
C1007  O1044   1.411   .     S
C1007  H1028   1.114   .     S
C1007  H1029   1.109   .     S
C1008  O1048   1.278   .     A
C1008  O1050   1.279   .     A
C1008  C1010   1.402   .     S
C1009  O1049   1.277   .     A
C1009  C1011   1.402   .     S
C1009  O1051   1.279   .     A
C1011  C1072   1.330   .     S
C1011  H1093   1.088   .     S
C1012  O1052   1.387   .     S
C1013  O1040   1.386   .     S
C1013  C622    1.381   1_565 S
C1014  O1041   1.385   .     S
C1014  C640    1.382   1_565 S
H1027  C1565   1.111   .     S
H1030  C1072   1.088   .     S
N1037  Zn1053  2.009   .     S
N1038  Zn1054  2.009   .     S
O1039  Zn1053  1.993   .     S
O1045  Zn1054  1.993   .     S
O1046  Zn1054  2.000   .     S
O1047  Zn1053  2.000   .     S
O1048  Zn1053  1.969   .     S
O1049  Zn1054  1.969   .     S
O1050  Zn1054  1.980   .     S
O1051  Zn1053  1.980   .     S
C1055  O1108   1.279   .     A
C1055  C1058   1.419   .     S
C1055  O1101   1.284   .     A
C1056  C1058   1.408   .     A
C1056  O1104   1.386   .     S
C1057  C1075   1.405   .     A
C1057  C1076   1.403   .     A
C1057  C1066   1.416   .     S
C1058  C1074   1.405   .     A
C1059  H1077   1.081   .     S
C1059  N1100   1.364   .     A
C1060  H1088   1.081   .     S
C1060  N1099   1.364   .     A
C1060  C1620   1.425   .     S
C1061  O1105   1.383   .     S
C1061  N1099   1.369   .     A
C1061  C1617   1.425   .     S
C1062  O1106   1.383   .     S
C1062  N1100   1.369   .     A
C1063  H1095   1.114   .     S
C1063  O1114   1.413   .     S
C1063  H1096   1.110   .     S
C1063  H1094   1.110   .     S
C1064  O1102   1.412   .     S
C1064  H1098   1.115   .     S
C1064  H1078   1.108   .     S
C1064  H1097   1.109   .     S
C1065  O1103   1.409   .     S
C1065  H1081   1.109   .     S
C1065  H1079   1.112   .     S
C1065  H1080   1.113   .     S
C1066  O1109   1.281   .     A
C1066  O1107   1.281   .     A
C1067  H1082   1.111   .     S
C1067  H1083   1.109   .     S
C1067  O1104   1.413   .     S
C1067  H1084   1.109   .     S
C1068  O1105   1.411   .     S
C1068  H1085   1.110   .     S
C1068  H1086   1.114   .     S
C1068  H1645   1.111   .     S
C1069  O1106   1.411   .     S
C1069  H1090   1.114   .     S
C1069  H1091   1.109   .     S
C1070  O1110   1.278   .     A
C1070  O1112   1.279   .     A
C1070  C1072   1.402   .     S
C1071  O1111   1.277   .     A
C1071  C1073   1.402   .     S
C1071  O1113   1.279   .     A
C1073  C948    1.330   1_655 S
C1073  H969    1.088   1_655 S
C1074  O1114   1.387   .     S
C1075  O1102   1.386   .     S
C1075  C684    1.381   1_565 S
C1076  O1103   1.385   .     S
C1076  C702    1.382   1_565 S
H1089  C1627   1.111   .     S
H1092  C948    1.088   1_655 S
N1099  Zn1115  2.009   .     S
N1100  Zn1116  2.009   .     S
O1101  Zn1115  1.993   .     S
O1107  Zn1116  1.993   .     S
O1108  Zn1116  2.000   .     S
O1109  Zn1115  2.000   .     S
O1110  Zn1115  1.969   .     S
O1111  Zn1116  1.969   .     S
O1112  Zn1116  1.980   .     S
O1113  Zn1115  1.980   .     S
C1117  O1170   1.279   .     A
C1117  C1120   1.419   .     S
C1117  O1163   1.284   .     A
C1118  C1120   1.408   .     A
C1118  O1166   1.386   .     S
C1118  C1509   1.381   1_545 S
C1119  C1137   1.405   .     A
C1119  C1138   1.403   .     A
C1119  C1128   1.416   .     S
C1120  C1136   1.405   .     A
C1121  H1139   1.081   .     S
C1121  N1162   1.364   .     A
C1122  H1150   1.081   .     S
C1122  N1161   1.364   .     A
C1122  C8      1.425   1_556 S
C1123  O1167   1.383   .     S
C1123  N1161   1.369   .     A
C1123  C5      1.425   1_556 S
C1124  O1168   1.383   .     S
C1124  N1162   1.369   .     A
C1125  H1157   1.114   .     S
C1125  O1176   1.413   .     S
C1125  H1158   1.110   .     S
C1125  H1156   1.110   .     S
C1126  O1164   1.412   .     S
C1126  H1160   1.115   .     S
C1126  H1140   1.108   .     S
C1126  H1159   1.109   .     S
C1127  O1165   1.409   .     S
C1127  H1143   1.109   .     S
C1127  H1141   1.112   .     S
C1127  H1142   1.113   .     S
C1128  O1171   1.281   .     A
C1128  O1169   1.281   .     A
C1129  H1144   1.111   .     S
C1129  H1145   1.109   .     S
C1129  O1166   1.413   .     S
C1129  H1146   1.109   .     S
C1130  O1167   1.411   .     S
C1130  H1147   1.110   .     S
C1130  H1148   1.114   .     S
C1130  H33     1.111   1_556 S
C1131  O1168   1.411   .     S
C1131  H1152   1.114   .     S
C1131  H1153   1.109   .     S
C1132  O1172   1.278   .     A
C1132  O1174   1.279   .     A
C1132  C1134   1.402   .     S
C1133  O1173   1.277   .     A
C1133  C1135   1.402   .     S
C1133  O1175   1.279   .     A
C1134  C1259   1.330   1_455 S
C1134  H1278   1.088   1_455 S
C1135  C1196   1.330   .     S
C1135  H1217   1.088   .     S
C1136  O1176   1.387   .     S
C1136  C1510   1.382   1_545 S
C1137  O1164   1.386   .     S
C1137  C1304   1.381   .     S
C1138  O1165   1.385   .     S
C1138  C1322   1.382   .     S
H1151  C15     1.111   1_556 S
H1154  C1196   1.088   .     S
H1155  C1259   1.088   1_455 S
N1161  Zn1177  2.009   .     S
N1162  Zn1178  2.009   .     S
O1163  Zn1177  1.993   .     S
O1169  Zn1178  1.993   .     S
O1170  Zn1178  2.000   .     S
O1171  Zn1177  2.000   .     S
O1172  Zn1177  1.969   .     S
O1173  Zn1178  1.969   .     S
O1174  Zn1178  1.980   .     S
O1175  Zn1177  1.980   .     S
C1179  O1232   1.279   .     A
C1179  C1182   1.419   .     S
C1179  O1225   1.284   .     A
C1180  C1182   1.408   .     A
C1180  O1228   1.386   .     S
C1180  C1571   1.381   1_545 S
C1181  C1199   1.405   .     A
C1181  C1200   1.403   .     A
C1181  C1190   1.416   .     S
C1182  C1198   1.405   .     A
C1183  H1201   1.081   .     S
C1183  N1224   1.364   .     A
C1184  H1212   1.081   .     S
C1184  N1223   1.364   .     A
C1184  C70     1.425   1_556 S
C1185  O1229   1.383   .     S
C1185  N1223   1.369   .     A
C1185  C67     1.425   1_556 S
C1186  O1230   1.383   .     S
C1186  N1224   1.369   .     A
C1187  H1219   1.114   .     S
C1187  O1238   1.413   .     S
C1187  H1220   1.110   .     S
C1187  H1218   1.110   .     S
C1188  O1226   1.412   .     S
C1188  H1222   1.115   .     S
C1188  H1202   1.108   .     S
C1188  H1221   1.109   .     S
C1189  O1227   1.409   .     S
C1189  H1205   1.109   .     S
C1189  H1203   1.112   .     S
C1189  H1204   1.113   .     S
C1190  O1233   1.281   .     A
C1190  O1231   1.281   .     A
C1191  H1206   1.111   .     S
C1191  H1207   1.109   .     S
C1191  O1228   1.413   .     S
C1191  H1208   1.109   .     S
C1192  O1229   1.411   .     S
C1192  H1209   1.110   .     S
C1192  H1210   1.114   .     S
C1192  H95     1.111   1_556 S
C1193  O1230   1.411   .     S
C1193  H1214   1.114   .     S
C1193  H1215   1.109   .     S
C1194  O1234   1.278   .     A
C1194  O1236   1.279   .     A
C1194  C1196   1.402   .     S
C1195  O1235   1.277   .     A
C1195  C1197   1.402   .     S
C1195  O1237   1.279   .     A
C1197  C1258   1.330   .     S
C1197  H1279   1.088   .     S
C1198  O1238   1.387   .     S
C1198  C1572   1.382   1_545 S
C1199  O1226   1.386   .     S
C1199  C1366   1.381   .     S
C1200  O1227   1.385   .     S
C1200  C1384   1.382   .     S
H1213  C77     1.111   1_556 S
H1216  C1258   1.088   .     S
N1223  Zn1239  2.009   .     S
N1224  Zn1240  2.009   .     S
O1225  Zn1239  1.993   .     S
O1231  Zn1240  1.993   .     S
O1232  Zn1240  2.000   .     S
O1233  Zn1239  2.000   .     S
O1234  Zn1239  1.969   .     S
O1235  Zn1240  1.969   .     S
O1236  Zn1240  1.980   .     S
O1237  Zn1239  1.980   .     S
C1241  O1294   1.279   .     A
C1241  C1244   1.419   .     S
C1241  O1287   1.284   .     A
C1242  C1244   1.408   .     A
C1242  O1290   1.386   .     S
C1242  C1633   1.381   1_545 S
C1243  C1261   1.405   .     A
C1243  C1262   1.403   .     A
C1243  C1252   1.416   .     S
C1244  C1260   1.405   .     A
C1245  H1263   1.081   .     S
C1245  N1286   1.364   .     A
C1246  H1274   1.081   .     S
C1246  N1285   1.364   .     A
C1246  C132    1.425   1_556 S
C1247  O1291   1.383   .     S
C1247  N1285   1.369   .     A
C1247  C129    1.425   1_556 S
C1248  O1292   1.383   .     S
C1248  N1286   1.369   .     A
C1249  H1281   1.114   .     S
C1249  O1300   1.413   .     S
C1249  H1282   1.110   .     S
C1249  H1280   1.110   .     S
C1250  O1288   1.412   .     S
C1250  H1284   1.115   .     S
C1250  H1264   1.108   .     S
C1250  H1283   1.109   .     S
C1251  O1289   1.409   .     S
C1251  H1267   1.109   .     S
C1251  H1265   1.112   .     S
C1251  H1266   1.113   .     S
C1252  O1295   1.281   .     A
C1252  O1293   1.281   .     A
C1253  H1268   1.111   .     S
C1253  H1269   1.109   .     S
C1253  O1290   1.413   .     S
C1253  H1270   1.109   .     S
C1254  O1291   1.411   .     S
C1254  H1271   1.110   .     S
C1254  H1272   1.114   .     S
C1254  H157    1.111   1_556 S
C1255  O1292   1.411   .     S
C1255  H1276   1.114   .     S
C1255  H1277   1.109   .     S
C1256  O1296   1.278   .     A
C1256  O1298   1.279   .     A
C1256  C1258   1.402   .     S
C1257  O1297   1.277   .     A
C1257  C1259   1.402   .     S
C1257  O1299   1.279   .     A
C1259  C1134   1.330   1_655 S
C1259  H1155   1.088   1_655 S
C1260  O1300   1.387   .     S
C1260  C1634   1.382   1_545 S
C1261  O1288   1.386   .     S
C1261  C1428   1.381   .     S
C1262  O1289   1.385   .     S
C1262  C1446   1.382   .     S
H1275  C139    1.111   1_556 S
H1278  C1134   1.088   1_655 S
N1285  Zn1301  2.009   .     S
N1286  Zn1302  2.009   .     S
O1287  Zn1301  1.993   .     S
O1293  Zn1302  1.993   .     S
O1294  Zn1302  2.000   .     S
O1295  Zn1301  2.000   .     S
O1296  Zn1301  1.969   .     S
O1297  Zn1302  1.969   .     S
O1298  Zn1302  1.980   .     S
O1299  Zn1301  1.980   .     S
C1303  O1356   1.279   .     A
C1303  C1306   1.419   .     S
C1303  O1349   1.284   .     A
C1304  C1306   1.408   .     A
C1304  O1352   1.386   .     S
C1305  C1323   1.405   .     A
C1305  C1324   1.403   .     A
C1305  C1314   1.416   .     S
C1306  C1322   1.405   .     A
C1307  H1325   1.081   .     S
C1307  N1348   1.364   .     A
C1308  H1336   1.081   .     S
C1308  N1347   1.364   .     A
C1308  C194    1.425   1_556 S
C1309  O1353   1.383   .     S
C1309  N1347   1.369   .     A
C1309  C191    1.425   1_556 S
C1310  O1354   1.383   .     S
C1310  N1348   1.369   .     A
C1311  H1343   1.114   .     S
C1311  O1362   1.413   .     S
C1311  H1344   1.110   .     S
C1311  H1342   1.110   .     S
C1312  O1350   1.412   .     S
C1312  H1346   1.115   .     S
C1312  H1326   1.108   .     S
C1312  H1345   1.109   .     S
C1313  O1351   1.409   .     S
C1313  H1329   1.109   .     S
C1313  H1327   1.112   .     S
C1313  H1328   1.113   .     S
C1314  O1357   1.281   .     A
C1314  O1355   1.281   .     A
C1315  H1330   1.111   .     S
C1315  H1331   1.109   .     S
C1315  O1352   1.413   .     S
C1315  H1332   1.109   .     S
C1316  O1353   1.411   .     S
C1316  H1333   1.110   .     S
C1316  H1334   1.114   .     S
C1316  H219    1.111   1_556 S
C1317  O1354   1.411   .     S
C1317  H1338   1.114   .     S
C1317  H1339   1.109   .     S
C1318  O1358   1.278   .     A
C1318  O1360   1.279   .     A
C1318  C1320   1.402   .     S
C1319  O1359   1.277   .     A
C1319  C1321   1.402   .     S
C1319  O1361   1.279   .     A
C1320  C1445   1.330   1_455 S
C1320  H1464   1.088   1_455 S
C1321  C1382   1.330   .     S
C1321  H1403   1.088   .     S
C1322  O1362   1.387   .     S
C1323  O1350   1.386   .     S
C1323  C1490   1.381   .     S
C1324  O1351   1.385   .     S
C1324  C1508   1.382   .     S
H1337  C201    1.111   1_556 S
H1340  C1382   1.088   .     S
H1341  C1445   1.088   1_455 S
N1347  Zn1363  2.009   .     S
N1348  Zn1364  2.009   .     S
O1349  Zn1363  1.993   .     S
O1355  Zn1364  1.993   .     S
O1356  Zn1364  2.000   .     S
O1357  Zn1363  2.000   .     S
O1358  Zn1363  1.969   .     S
O1359  Zn1364  1.969   .     S
O1360  Zn1364  1.980   .     S
O1361  Zn1363  1.980   .     S
C1365  O1418   1.279   .     A
C1365  C1368   1.419   .     S
C1365  O1411   1.284   .     A
C1366  C1368   1.408   .     A
C1366  O1414   1.386   .     S
C1367  C1385   1.405   .     A
C1367  C1386   1.403   .     A
C1367  C1376   1.416   .     S
C1368  C1384   1.405   .     A
C1369  H1387   1.081   .     S
C1369  N1410   1.364   .     A
C1370  H1398   1.081   .     S
C1370  N1409   1.364   .     A
C1370  C256    1.425   1_556 S
C1371  O1415   1.383   .     S
C1371  N1409   1.369   .     A
C1371  C253    1.425   1_556 S
C1372  O1416   1.383   .     S
C1372  N1410   1.369   .     A
C1373  H1405   1.114   .     S
C1373  O1424   1.413   .     S
C1373  H1406   1.110   .     S
C1373  H1404   1.110   .     S
C1374  O1412   1.412   .     S
C1374  H1408   1.115   .     S
C1374  H1388   1.108   .     S
C1374  H1407   1.109   .     S
C1375  O1413   1.409   .     S
C1375  H1391   1.109   .     S
C1375  H1389   1.112   .     S
C1375  H1390   1.113   .     S
C1376  O1419   1.281   .     A
C1376  O1417   1.281   .     A
C1377  H1392   1.111   .     S
C1377  H1393   1.109   .     S
C1377  O1414   1.413   .     S
C1377  H1394   1.109   .     S
C1378  O1415   1.411   .     S
C1378  H1395   1.110   .     S
C1378  H1396   1.114   .     S
C1378  H281    1.111   1_556 S
C1379  O1416   1.411   .     S
C1379  H1400   1.114   .     S
C1379  H1401   1.109   .     S
C1380  O1420   1.278   .     A
C1380  O1422   1.279   .     A
C1380  C1382   1.402   .     S
C1381  O1421   1.277   .     A
C1381  C1383   1.402   .     S
C1381  O1423   1.279   .     A
C1383  C1444   1.330   .     S
C1383  H1465   1.088   .     S
C1384  O1424   1.387   .     S
C1385  O1412   1.386   .     S
C1385  C1552   1.381   .     S
C1386  O1413   1.385   .     S
C1386  C1570   1.382   .     S
H1399  C263    1.111   1_556 S
H1402  C1444   1.088   .     S
N1409  Zn1425  2.009   .     S
N1410  Zn1426  2.009   .     S
O1411  Zn1425  1.993   .     S
O1417  Zn1426  1.993   .     S
O1418  Zn1426  2.000   .     S
O1419  Zn1425  2.000   .     S
O1420  Zn1425  1.969   .     S
O1421  Zn1426  1.969   .     S
O1422  Zn1426  1.980   .     S
O1423  Zn1425  1.980   .     S
C1427  O1480   1.279   .     A
C1427  C1430   1.419   .     S
C1427  O1473   1.284   .     A
C1428  C1430   1.408   .     A
C1428  O1476   1.386   .     S
C1429  C1447   1.405   .     A
C1429  C1448   1.403   .     A
C1429  C1438   1.416   .     S
C1430  C1446   1.405   .     A
C1431  H1449   1.081   .     S
C1431  N1472   1.364   .     A
C1432  H1460   1.081   .     S
C1432  N1471   1.364   .     A
C1432  C318    1.425   1_556 S
C1433  O1477   1.383   .     S
C1433  N1471   1.369   .     A
C1433  C315    1.425   1_556 S
C1434  O1478   1.383   .     S
C1434  N1472   1.369   .     A
C1435  H1467   1.114   .     S
C1435  O1486   1.413   .     S
C1435  H1468   1.110   .     S
C1435  H1466   1.110   .     S
C1436  O1474   1.412   .     S
C1436  H1470   1.115   .     S
C1436  H1450   1.108   .     S
C1436  H1469   1.109   .     S
C1437  O1475   1.409   .     S
C1437  H1453   1.109   .     S
C1437  H1451   1.112   .     S
C1437  H1452   1.113   .     S
C1438  O1481   1.281   .     A
C1438  O1479   1.281   .     A
C1439  H1454   1.111   .     S
C1439  H1455   1.109   .     S
C1439  O1476   1.413   .     S
C1439  H1456   1.109   .     S
C1440  O1477   1.411   .     S
C1440  H1457   1.110   .     S
C1440  H1458   1.114   .     S
C1440  H343    1.111   1_556 S
C1441  O1478   1.411   .     S
C1441  H1462   1.114   .     S
C1441  H1463   1.109   .     S
C1442  O1482   1.278   .     A
C1442  O1484   1.279   .     A
C1442  C1444   1.402   .     S
C1443  O1483   1.277   .     A
C1443  C1445   1.402   .     S
C1443  O1485   1.279   .     A
C1445  C1320   1.330   1_655 S
C1445  H1341   1.088   1_655 S
C1446  O1486   1.387   .     S
C1447  O1474   1.386   .     S
C1447  C1614   1.381   .     S
C1448  O1475   1.385   .     S
C1448  C1632   1.382   .     S
H1461  C325    1.111   1_556 S
H1464  C1320   1.088   1_655 S
N1471  Zn1487  2.009   .     S
N1472  Zn1488  2.009   .     S
O1473  Zn1487  1.993   .     S
O1479  Zn1488  1.993   .     S
O1480  Zn1488  2.000   .     S
O1481  Zn1487  2.000   .     S
O1482  Zn1487  1.969   .     S
O1483  Zn1488  1.969   .     S
O1484  Zn1488  1.980   .     S
O1485  Zn1487  1.980   .     S
C1489  O1542   1.279   .     A
C1489  C1492   1.419   .     S
C1489  O1535   1.284   .     A
C1490  C1492   1.408   .     A
C1490  O1538   1.386   .     S
C1491  C1509   1.405   .     A
C1491  C1510   1.403   .     A
C1491  C1500   1.416   .     S
C1492  C1508   1.405   .     A
C1493  H1511   1.081   .     S
C1493  N1534   1.364   .     A
C1494  H1522   1.081   .     S
C1494  N1533   1.364   .     A
C1494  C380    1.425   1_556 S
C1495  O1539   1.383   .     S
C1495  N1533   1.369   .     A
C1495  C377    1.425   1_556 S
C1496  O1540   1.383   .     S
C1496  N1534   1.369   .     A
C1497  H1529   1.114   .     S
C1497  O1548   1.413   .     S
C1497  H1530   1.110   .     S
C1497  H1528   1.110   .     S
C1498  O1536   1.412   .     S
C1498  H1532   1.115   .     S
C1498  H1512   1.108   .     S
C1498  H1531   1.109   .     S
C1499  O1537   1.409   .     S
C1499  H1515   1.109   .     S
C1499  H1513   1.112   .     S
C1499  H1514   1.113   .     S
C1500  O1543   1.281   .     A
C1500  O1541   1.281   .     A
C1501  H1516   1.111   .     S
C1501  H1517   1.109   .     S
C1501  O1538   1.413   .     S
C1501  H1518   1.109   .     S
C1502  O1539   1.411   .     S
C1502  H1519   1.110   .     S
C1502  H1520   1.114   .     S
C1502  H405    1.111   1_556 S
C1503  O1540   1.411   .     S
C1503  H1524   1.114   .     S
C1503  H1525   1.109   .     S
C1504  O1544   1.278   .     A
C1504  O1546   1.279   .     A
C1504  C1506   1.402   .     S
C1505  O1545   1.277   .     A
C1505  C1507   1.402   .     S
C1505  O1547   1.279   .     A
C1506  C1631   1.330   1_455 S
C1506  H1650   1.088   1_455 S
C1507  C1568   1.330   .     S
C1507  H1589   1.088   .     S
C1508  O1548   1.387   .     S
C1509  O1536   1.386   .     S
C1509  C1118   1.381   1_565 S
C1510  O1537   1.385   .     S
C1510  C1136   1.382   1_565 S
H1523  C387    1.111   1_556 S
H1526  C1568   1.088   .     S
H1527  C1631   1.088   1_455 S
N1533  Zn1549  2.009   .     S
N1534  Zn1550  2.009   .     S
O1535  Zn1549  1.993   .     S
O1541  Zn1550  1.993   .     S
O1542  Zn1550  2.000   .     S
O1543  Zn1549  2.000   .     S
O1544  Zn1549  1.969   .     S
O1545  Zn1550  1.969   .     S
O1546  Zn1550  1.980   .     S
O1547  Zn1549  1.980   .     S
C1551  O1604   1.279   .     A
C1551  C1554   1.419   .     S
C1551  O1597   1.284   .     A
C1552  C1554   1.408   .     A
C1552  O1600   1.386   .     S
C1553  C1571   1.405   .     A
C1553  C1572   1.403   .     A
C1553  C1562   1.416   .     S
C1554  C1570   1.405   .     A
C1555  H1573   1.081   .     S
C1555  N1596   1.364   .     A
C1556  H1584   1.081   .     S
C1556  N1595   1.364   .     A
C1556  C442    1.425   1_556 S
C1557  O1601   1.383   .     S
C1557  N1595   1.369   .     A
C1557  C439    1.425   1_556 S
C1558  O1602   1.383   .     S
C1558  N1596   1.369   .     A
C1559  H1591   1.114   .     S
C1559  O1610   1.413   .     S
C1559  H1592   1.110   .     S
C1559  H1590   1.110   .     S
C1560  O1598   1.412   .     S
C1560  H1594   1.115   .     S
C1560  H1574   1.108   .     S
C1560  H1593   1.109   .     S
C1561  O1599   1.409   .     S
C1561  H1577   1.109   .     S
C1561  H1575   1.112   .     S
C1561  H1576   1.113   .     S
C1562  O1605   1.281   .     A
C1562  O1603   1.281   .     A
C1563  H1578   1.111   .     S
C1563  H1579   1.109   .     S
C1563  O1600   1.413   .     S
C1563  H1580   1.109   .     S
C1564  O1601   1.411   .     S
C1564  H1581   1.110   .     S
C1564  H1582   1.114   .     S
C1564  H467    1.111   1_556 S
C1565  O1602   1.411   .     S
C1565  H1586   1.114   .     S
C1565  H1587   1.109   .     S
C1566  O1606   1.278   .     A
C1566  O1608   1.279   .     A
C1566  C1568   1.402   .     S
C1567  O1607   1.277   .     A
C1567  C1569   1.402   .     S
C1567  O1609   1.279   .     A
C1569  C1630   1.330   .     S
C1569  H1651   1.088   .     S
C1570  O1610   1.387   .     S
C1571  O1598   1.386   .     S
C1571  C1180   1.381   1_565 S
C1572  O1599   1.385   .     S
C1572  C1198   1.382   1_565 S
H1585  C449    1.111   1_556 S
H1588  C1630   1.088   .     S
N1595  Zn1611  2.009   .     S
N1596  Zn1612  2.009   .     S
O1597  Zn1611  1.993   .     S
O1603  Zn1612  1.993   .     S
O1604  Zn1612  2.000   .     S
O1605  Zn1611  2.000   .     S
O1606  Zn1611  1.969   .     S
O1607  Zn1612  1.969   .     S
O1608  Zn1612  1.980   .     S
O1609  Zn1611  1.980   .     S
C1613  O1666   1.279   .     A
C1613  C1616   1.419   .     S
C1613  O1659   1.284   .     A
C1614  C1616   1.408   .     A
C1614  O1662   1.386   .     S
C1615  C1633   1.405   .     A
C1615  C1634   1.403   .     A
C1615  C1624   1.416   .     S
C1616  C1632   1.405   .     A
C1617  H1635   1.081   .     S
C1617  N1658   1.364   .     A
C1618  H1646   1.081   .     S
C1618  N1657   1.364   .     A
C1618  C504    1.425   1_556 S
C1619  O1663   1.383   .     S
C1619  N1657   1.369   .     A
C1619  C501    1.425   1_556 S
C1620  O1664   1.383   .     S
C1620  N1658   1.369   .     A
C1621  H1653   1.114   .     S
C1621  O1672   1.413   .     S
C1621  H1654   1.110   .     S
C1621  H1652   1.110   .     S
C1622  O1660   1.412   .     S
C1622  H1656   1.115   .     S
C1622  H1636   1.108   .     S
C1622  H1655   1.109   .     S
C1623  O1661   1.409   .     S
C1623  H1639   1.109   .     S
C1623  H1637   1.112   .     S
C1623  H1638   1.113   .     S
C1624  O1667   1.281   .     A
C1624  O1665   1.281   .     A
C1625  H1640   1.111   .     S
C1625  H1641   1.109   .     S
C1625  O1662   1.413   .     S
C1625  H1642   1.109   .     S
C1626  O1663   1.411   .     S
C1626  H1643   1.110   .     S
C1626  H1644   1.114   .     S
C1626  H529    1.111   1_556 S
C1627  O1664   1.411   .     S
C1627  H1648   1.114   .     S
C1627  H1649   1.109   .     S
C1628  O1668   1.278   .     A
C1628  O1670   1.279   .     A
C1628  C1630   1.402   .     S
C1629  O1669   1.277   .     A
C1629  C1631   1.402   .     S
C1629  O1671   1.279   .     A
C1631  C1506   1.330   1_655 S
C1631  H1527   1.088   1_655 S
C1632  O1672   1.387   .     S
C1633  O1660   1.386   .     S
C1633  C1242   1.381   1_565 S
C1634  O1661   1.385   .     S
C1634  C1260   1.382   1_565 S
H1647  C511    1.111   1_556 S
H1650  C1506   1.088   1_655 S
N1657  Zn1673  2.009   .     S
N1658  Zn1674  2.009   .     S
O1659  Zn1673  1.993   .     S
O1665  Zn1674  1.993   .     S
O1666  Zn1674  2.000   .     S
O1667  Zn1673  2.000   .     S
O1668  Zn1673  1.969   .     S
O1669  Zn1674  1.969   .     S
O1670  Zn1674  1.980   .     S
O1671  Zn1673  1.980   .     S
