data_str_m3_o1_o10_pcu_sym.10
_audit_creation_date              2020-01-03
_audit_creation_method            'Materials Studio'
_symmetry_space_group_name_H-M    'P1'
_symmetry_Int_Tables_number       1
_symmetry_cell_setting            triclinic
loop_
_symmetry_equiv_pos_as_xyz
  x,y,z
_cell_length_a                    25.8477
_cell_length_b                    32.0637
_cell_length_c                    29.4622
_cell_angle_alpha                 89.7036
_cell_angle_beta                  97.7050
_cell_angle_gamma                 90.3726
loop_
_atom_site_label
_atom_site_type_symbol
_atom_site_fract_x
_atom_site_fract_y
_atom_site_fract_z
_atom_site_U_iso_or_equiv
_atom_site_adp_type
_atom_site_occupancy
C1     C     0.17406   0.08706   0.16770   0.00000  Uiso   1.00
C2     C     0.19481   0.02148   0.21192   0.00000  Uiso   1.00
C3     C     0.18637   0.29097   0.16824   0.00000  Uiso   1.00
C4     C     0.18961   0.04348   0.16985   0.00000  Uiso   1.00
C5     C     0.20708   0.18418   0.02864   0.00000  Uiso   1.00
C6     C     0.12659   0.14862   0.30475   0.00000  Uiso   1.00
C7     C     0.20704   0.18424   0.31400   0.00000  Uiso   1.00
C8     C     0.12657   0.14867   0.01940   0.00000  Uiso   1.00
C9     C     0.32924   0.21180   0.12175   0.00000  Uiso   1.00
C10    C     0.00456   0.12169   0.21327   0.00000  Uiso   1.00
C11    C     0.21564   0.04694   0.09018   0.00000  Uiso   1.00
C12    C     0.17230   0.24679   0.16710   0.00000  Uiso   1.00
C13    C     0.21265   0.28777   0.25425   0.00000  Uiso   1.00
C14    C     0.19527   0.29225   0.08290   0.00000  Uiso   1.00
C15    C     0.20194   0.04345   0.25662   0.00000  Uiso   1.00
C16    C     0.06727   0.16711   0.15516   0.00000  Uiso   1.00
C17    C     0.26606   0.16568   0.17822   0.00000  Uiso   1.00
C18    C     0.01366   0.17525   0.15124   0.00000  Uiso   1.00
C19    C     0.31973   0.15727   0.18230   0.00000  Uiso   1.00
C20    C     0.19825   0.02306   0.12924   0.00000  Uiso   1.00
C21    C     0.19626   0.31142   0.21109   0.00000  Uiso   1.00
C22    C     0.19235   0.31316   0.12730   0.00000  Uiso   1.00
H23    H     0.23943   0.19802   0.05054   0.00000  Uiso   1.00
H24    H     0.24766   0.08043   0.30050   0.00000  Uiso   1.00
H25    H     0.09467   0.13408   0.28295   0.00000  Uiso   1.00
H26    H     0.23939   0.19820   0.29959   0.00000  Uiso   1.00
H27    H     0.09457   0.13422   0.03391   0.00000  Uiso   1.00
H28    H     0.01077   0.21653   0.08934   0.00000  Uiso   1.00
H29    H     0.32202   0.11757   0.24527   0.00000  Uiso   1.00
H30    H     0.24315   0.07258   0.09723   0.00000  Uiso   1.00
H31    H     0.24244   0.26402   0.25480   0.00000  Uiso   1.00
H32    H     0.24106   0.27375   0.03655   0.00000  Uiso   1.00
N33    N     0.16665   0.16666   0.28573   0.00000  Uiso   1.00
N34    N     0.16668   0.16668   0.04760   0.00000  Uiso   1.00
O35    O     0.16666   0.10558   0.20487   0.00000  Uiso   1.00
O36    O     0.03487   0.09567   0.20233   0.00000  Uiso   1.00
O37    O     0.19826   0.03944   0.05045   0.00000  Uiso   1.00
O38    O     0.19174   0.29329   0.28846   0.00000  Uiso   1.00
O39    O     0.15519   0.28197   0.05854   0.00000  Uiso   1.00
O40    O     0.24381   0.28715   0.06783   0.00000  Uiso   1.00
O41    O     0.16710   0.04269   0.28089   0.00000  Uiso   1.00
O42    O     0.24777   0.06609   0.26992   0.00000  Uiso   1.00
O43    O     0.16667   0.22775   0.12846   0.00000  Uiso   1.00
O44    O     0.16666   0.10559   0.12843   0.00000  Uiso   1.00
O45    O     0.16667   0.22774   0.20490   0.00000  Uiso   1.00
O46    O     0.09058   0.16666   0.19595   0.00000  Uiso   1.00
O47    O     0.24275   0.16667   0.13739   0.00000  Uiso   1.00
O48    O     0.09058   0.16667   0.11950   0.00000  Uiso   1.00
O49    O     0.24275   0.16666   0.21383   0.00000  Uiso   1.00
O50    O     0.30083   0.23818   0.13483   0.00000  Uiso   1.00
Zn51   Zn    0.16667   0.16666   0.21771   0.00000  Uiso   1.00
Zn52   Zn    0.16667   0.16667   0.11563   0.00000  Uiso   1.00
C53    C     0.50739   0.08706   0.16770   0.00000  Uiso   1.00
C54    C     0.52814   0.02148   0.21192   0.00000  Uiso   1.00
C55    C     0.51970   0.29097   0.16824   0.00000  Uiso   1.00
C56    C     0.52294   0.04348   0.16985   0.00000  Uiso   1.00
C57    C     0.54041   0.18418   0.02864   0.00000  Uiso   1.00
C58    C     0.45993   0.14862   0.30475   0.00000  Uiso   1.00
C59    C     0.54037   0.18424   0.31400   0.00000  Uiso   1.00
C60    C     0.45990   0.14867   0.01940   0.00000  Uiso   1.00
C61    C     0.66257   0.21180   0.12175   0.00000  Uiso   1.00
C62    C     0.33789   0.12169   0.21327   0.00000  Uiso   1.00
C63    C     0.54897   0.04694   0.09018   0.00000  Uiso   1.00
C64    C     0.50564   0.24679   0.16710   0.00000  Uiso   1.00
C65    C     0.54598   0.28777   0.25425   0.00000  Uiso   1.00
C66    C     0.52860   0.29225   0.08290   0.00000  Uiso   1.00
C67    C     0.53527   0.04345   0.25662   0.00000  Uiso   1.00
C68    C     0.40060   0.16711   0.15516   0.00000  Uiso   1.00
C69    C     0.59940   0.16568   0.17822   0.00000  Uiso   1.00
C70    C     0.34699   0.17525   0.15124   0.00000  Uiso   1.00
C71    C     0.65306   0.15727   0.18230   0.00000  Uiso   1.00
C72    C     0.53158   0.02306   0.12924   0.00000  Uiso   1.00
C73    C     0.52960   0.31142   0.21109   0.00000  Uiso   1.00
C74    C     0.52568   0.31316   0.12730   0.00000  Uiso   1.00
H75    H     0.57277   0.19802   0.05054   0.00000  Uiso   1.00
H76    H     0.58099   0.08043   0.30050   0.00000  Uiso   1.00
H77    H     0.42801   0.13408   0.28295   0.00000  Uiso   1.00
H78    H     0.57272   0.19820   0.29959   0.00000  Uiso   1.00
H79    H     0.42790   0.13422   0.03391   0.00000  Uiso   1.00
H80    H     0.34410   0.21653   0.08934   0.00000  Uiso   1.00
H81    H     0.65535   0.11757   0.24527   0.00000  Uiso   1.00
H82    H     0.57648   0.07258   0.09723   0.00000  Uiso   1.00
H83    H     0.57578   0.26402   0.25480   0.00000  Uiso   1.00
H84    H     0.57439   0.27375   0.03655   0.00000  Uiso   1.00
N85    N     0.49999   0.16666   0.28573   0.00000  Uiso   1.00
N86    N     0.50001   0.16668   0.04760   0.00000  Uiso   1.00
O87    O     0.50000   0.10558   0.20487   0.00000  Uiso   1.00
O88    O     0.36820   0.09567   0.20233   0.00000  Uiso   1.00
O89    O     0.53159   0.03944   0.05045   0.00000  Uiso   1.00
O90    O     0.52507   0.29329   0.28846   0.00000  Uiso   1.00
O91    O     0.48852   0.28197   0.05854   0.00000  Uiso   1.00
O92    O     0.57715   0.28715   0.06783   0.00000  Uiso   1.00
O93    O     0.50043   0.04269   0.28089   0.00000  Uiso   1.00
O94    O     0.58110   0.06609   0.26992   0.00000  Uiso   1.00
O95    O     0.50000   0.22775   0.12846   0.00000  Uiso   1.00
O96    O     0.50000   0.10559   0.12843   0.00000  Uiso   1.00
O97    O     0.50000   0.22774   0.20490   0.00000  Uiso   1.00
O98    O     0.42392   0.16666   0.19595   0.00000  Uiso   1.00
O99    O     0.57608   0.16667   0.13739   0.00000  Uiso   1.00
O100   O     0.42392   0.16667   0.11950   0.00000  Uiso   1.00
O101   O     0.57608   0.16666   0.21383   0.00000  Uiso   1.00
O102   O     0.63416   0.23818   0.13483   0.00000  Uiso   1.00
Zn103  Zn    0.50000   0.16666   0.21771   0.00000  Uiso   1.00
Zn104  Zn    0.50000   0.16667   0.11563   0.00000  Uiso   1.00
C105   C     0.84073   0.08706   0.16770   0.00000  Uiso   1.00
C106   C     0.86148   0.02148   0.21192   0.00000  Uiso   1.00
C107   C     0.85303   0.29097   0.16824   0.00000  Uiso   1.00
C108   C     0.85627   0.04348   0.16985   0.00000  Uiso   1.00
C109   C     0.87374   0.18418   0.02864   0.00000  Uiso   1.00
C110   C     0.79326   0.14862   0.30475   0.00000  Uiso   1.00
C111   C     0.87370   0.18424   0.31400   0.00000  Uiso   1.00
C112   C     0.79324   0.14867   0.01940   0.00000  Uiso   1.00
C113   C     0.99590   0.21180   0.12175   0.00000  Uiso   1.00
C114   C     0.67122   0.12169   0.21327   0.00000  Uiso   1.00
C115   C     0.88230   0.04694   0.09018   0.00000  Uiso   1.00
C116   C     0.83897   0.24679   0.16710   0.00000  Uiso   1.00
C117   C     0.87932   0.28777   0.25425   0.00000  Uiso   1.00
C118   C     0.86194   0.29225   0.08290   0.00000  Uiso   1.00
C119   C     0.86861   0.04345   0.25662   0.00000  Uiso   1.00
C120   C     0.73394   0.16711   0.15516   0.00000  Uiso   1.00
C121   C     0.93273   0.16568   0.17822   0.00000  Uiso   1.00
C122   C     0.68033   0.17525   0.15124   0.00000  Uiso   1.00
C123   C     0.98640   0.15727   0.18230   0.00000  Uiso   1.00
C124   C     0.86492   0.02306   0.12924   0.00000  Uiso   1.00
C125   C     0.86293   0.31142   0.21109   0.00000  Uiso   1.00
C126   C     0.85902   0.31316   0.12730   0.00000  Uiso   1.00
H127   H     0.90610   0.19802   0.05054   0.00000  Uiso   1.00
H128   H     0.91432   0.08043   0.30050   0.00000  Uiso   1.00
H129   H     0.76134   0.13408   0.28295   0.00000  Uiso   1.00
H130   H     0.90605   0.19820   0.29959   0.00000  Uiso   1.00
H131   H     0.76123   0.13422   0.03391   0.00000  Uiso   1.00
H132   H     0.67744   0.21653   0.08934   0.00000  Uiso   1.00
H133   H     0.98869   0.11757   0.24527   0.00000  Uiso   1.00
H134   H     0.90982   0.07258   0.09723   0.00000  Uiso   1.00
H135   H     0.90911   0.26402   0.25480   0.00000  Uiso   1.00
H136   H     0.90773   0.27375   0.03655   0.00000  Uiso   1.00
N137   N     0.83332   0.16666   0.28573   0.00000  Uiso   1.00
N138   N     0.83335   0.16668   0.04760   0.00000  Uiso   1.00
O139   O     0.83333   0.10558   0.20487   0.00000  Uiso   1.00
O140   O     0.70153   0.09567   0.20233   0.00000  Uiso   1.00
O141   O     0.86493   0.03944   0.05045   0.00000  Uiso   1.00
O142   O     0.85841   0.29329   0.28846   0.00000  Uiso   1.00
O143   O     0.82186   0.28197   0.05854   0.00000  Uiso   1.00
O144   O     0.91048   0.28715   0.06783   0.00000  Uiso   1.00
O145   O     0.83377   0.04269   0.28089   0.00000  Uiso   1.00
O146   O     0.91443   0.06609   0.26992   0.00000  Uiso   1.00
O147   O     0.83334   0.22775   0.12846   0.00000  Uiso   1.00
O148   O     0.83333   0.10559   0.12843   0.00000  Uiso   1.00
O149   O     0.83334   0.22774   0.20490   0.00000  Uiso   1.00
O150   O     0.75725   0.16666   0.19595   0.00000  Uiso   1.00
O151   O     0.90942   0.16667   0.13739   0.00000  Uiso   1.00
O152   O     0.75725   0.16667   0.11950   0.00000  Uiso   1.00
O153   O     0.90942   0.16666   0.21383   0.00000  Uiso   1.00
O154   O     0.96749   0.23818   0.13483   0.00000  Uiso   1.00
Zn155  Zn    0.83333   0.16666   0.21771   0.00000  Uiso   1.00
Zn156  Zn    0.83333   0.16667   0.11563   0.00000  Uiso   1.00
C157   C     0.17406   0.42039   0.16770   0.00000  Uiso   1.00
C158   C     0.19481   0.35482   0.21192   0.00000  Uiso   1.00
C159   C     0.18637   0.62430   0.16824   0.00000  Uiso   1.00
C160   C     0.18961   0.37681   0.16985   0.00000  Uiso   1.00
C161   C     0.20708   0.51751   0.02864   0.00000  Uiso   1.00
C162   C     0.12659   0.48196   0.30475   0.00000  Uiso   1.00
C163   C     0.20704   0.51757   0.31400   0.00000  Uiso   1.00
C164   C     0.12657   0.48200   0.01940   0.00000  Uiso   1.00
C165   C     0.32924   0.54513   0.12175   0.00000  Uiso   1.00
C166   C     0.00456   0.45502   0.21327   0.00000  Uiso   1.00
C167   C     0.21564   0.38027   0.09018   0.00000  Uiso   1.00
C168   C     0.17230   0.58012   0.16710   0.00000  Uiso   1.00
C169   C     0.21265   0.62111   0.25425   0.00000  Uiso   1.00
C170   C     0.19527   0.62559   0.08290   0.00000  Uiso   1.00
C171   C     0.20194   0.37678   0.25662   0.00000  Uiso   1.00
C172   C     0.06727   0.50044   0.15516   0.00000  Uiso   1.00
C173   C     0.26606   0.49901   0.17822   0.00000  Uiso   1.00
C174   C     0.01366   0.50859   0.15124   0.00000  Uiso   1.00
C175   C     0.31973   0.49060   0.18230   0.00000  Uiso   1.00
C176   C     0.19825   0.35639   0.12924   0.00000  Uiso   1.00
C177   C     0.19626   0.64475   0.21109   0.00000  Uiso   1.00
C178   C     0.19235   0.64649   0.12730   0.00000  Uiso   1.00
H179   H     0.23943   0.53136   0.05054   0.00000  Uiso   1.00
H180   H     0.24766   0.41376   0.30050   0.00000  Uiso   1.00
H181   H     0.09467   0.46741   0.28295   0.00000  Uiso   1.00
H182   H     0.23939   0.53154   0.29959   0.00000  Uiso   1.00
H183   H     0.09457   0.46755   0.03391   0.00000  Uiso   1.00
H184   H     0.01077   0.54986   0.08934   0.00000  Uiso   1.00
H185   H     0.32202   0.45090   0.24527   0.00000  Uiso   1.00
H186   H     0.24315   0.40591   0.09723   0.00000  Uiso   1.00
H187   H     0.24244   0.59735   0.25480   0.00000  Uiso   1.00
H188   H     0.24106   0.60708   0.03655   0.00000  Uiso   1.00
N189   N     0.16665   0.49999   0.28573   0.00000  Uiso   1.00
N190   N     0.16668   0.50001   0.04760   0.00000  Uiso   1.00
O191   O     0.16666   0.43892   0.20487   0.00000  Uiso   1.00
O192   O     0.03487   0.42900   0.20233   0.00000  Uiso   1.00
O193   O     0.19826   0.37278   0.05045   0.00000  Uiso   1.00
O194   O     0.19174   0.62662   0.28846   0.00000  Uiso   1.00
O195   O     0.15519   0.61530   0.05854   0.00000  Uiso   1.00
O196   O     0.24381   0.62048   0.06783   0.00000  Uiso   1.00
O197   O     0.16710   0.37603   0.28089   0.00000  Uiso   1.00
O198   O     0.24777   0.39942   0.26992   0.00000  Uiso   1.00
O199   O     0.16667   0.56108   0.12846   0.00000  Uiso   1.00
O200   O     0.16666   0.43893   0.12843   0.00000  Uiso   1.00
O201   O     0.16667   0.56107   0.20490   0.00000  Uiso   1.00
O202   O     0.09058   0.50000   0.19595   0.00000  Uiso   1.00
O203   O     0.24275   0.50000   0.13739   0.00000  Uiso   1.00
O204   O     0.09058   0.50000   0.11950   0.00000  Uiso   1.00
O205   O     0.24275   0.50000   0.21383   0.00000  Uiso   1.00
O206   O     0.30083   0.57151   0.13483   0.00000  Uiso   1.00
Zn207  Zn    0.16667   0.49999   0.21771   0.00000  Uiso   1.00
Zn208  Zn    0.16667   0.50001   0.11563   0.00000  Uiso   1.00
C209   C     0.50739   0.42039   0.16770   0.00000  Uiso   1.00
C210   C     0.52814   0.35482   0.21192   0.00000  Uiso   1.00
C211   C     0.51970   0.62430   0.16824   0.00000  Uiso   1.00
C212   C     0.52294   0.37681   0.16985   0.00000  Uiso   1.00
C213   C     0.54041   0.51751   0.02864   0.00000  Uiso   1.00
C214   C     0.45993   0.48196   0.30475   0.00000  Uiso   1.00
C215   C     0.54037   0.51757   0.31400   0.00000  Uiso   1.00
C216   C     0.45990   0.48200   0.01940   0.00000  Uiso   1.00
C217   C     0.66257   0.54513   0.12175   0.00000  Uiso   1.00
C218   C     0.33789   0.45502   0.21327   0.00000  Uiso   1.00
C219   C     0.54897   0.38027   0.09018   0.00000  Uiso   1.00
C220   C     0.50564   0.58012   0.16710   0.00000  Uiso   1.00
C221   C     0.54598   0.62111   0.25425   0.00000  Uiso   1.00
C222   C     0.52860   0.62559   0.08290   0.00000  Uiso   1.00
C223   C     0.53527   0.37678   0.25662   0.00000  Uiso   1.00
C224   C     0.40060   0.50044   0.15516   0.00000  Uiso   1.00
C225   C     0.59940   0.49901   0.17822   0.00000  Uiso   1.00
C226   C     0.34699   0.50859   0.15124   0.00000  Uiso   1.00
C227   C     0.65306   0.49060   0.18230   0.00000  Uiso   1.00
C228   C     0.53158   0.35639   0.12924   0.00000  Uiso   1.00
C229   C     0.52960   0.64475   0.21109   0.00000  Uiso   1.00
C230   C     0.52568   0.64649   0.12730   0.00000  Uiso   1.00
H231   H     0.57277   0.53136   0.05054   0.00000  Uiso   1.00
H232   H     0.58099   0.41376   0.30050   0.00000  Uiso   1.00
H233   H     0.42801   0.46741   0.28295   0.00000  Uiso   1.00
H234   H     0.57272   0.53154   0.29959   0.00000  Uiso   1.00
H235   H     0.42790   0.46755   0.03391   0.00000  Uiso   1.00
H236   H     0.34410   0.54986   0.08934   0.00000  Uiso   1.00
H237   H     0.65535   0.45090   0.24527   0.00000  Uiso   1.00
H238   H     0.57648   0.40591   0.09723   0.00000  Uiso   1.00
H239   H     0.57578   0.59735   0.25480   0.00000  Uiso   1.00
H240   H     0.57439   0.60708   0.03655   0.00000  Uiso   1.00
N241   N     0.49999   0.49999   0.28573   0.00000  Uiso   1.00
N242   N     0.50001   0.50001   0.04760   0.00000  Uiso   1.00
O243   O     0.50000   0.43892   0.20487   0.00000  Uiso   1.00
O244   O     0.36820   0.42900   0.20233   0.00000  Uiso   1.00
O245   O     0.53159   0.37278   0.05045   0.00000  Uiso   1.00
O246   O     0.52507   0.62662   0.28846   0.00000  Uiso   1.00
O247   O     0.48852   0.61530   0.05854   0.00000  Uiso   1.00
O248   O     0.57715   0.62048   0.06783   0.00000  Uiso   1.00
O249   O     0.50043   0.37603   0.28089   0.00000  Uiso   1.00
O250   O     0.58110   0.39942   0.26992   0.00000  Uiso   1.00
O251   O     0.50000   0.56108   0.12846   0.00000  Uiso   1.00
O252   O     0.50000   0.43893   0.12843   0.00000  Uiso   1.00
O253   O     0.50000   0.56107   0.20490   0.00000  Uiso   1.00
O254   O     0.42392   0.50000   0.19595   0.00000  Uiso   1.00
O255   O     0.57608   0.50000   0.13739   0.00000  Uiso   1.00
O256   O     0.42392   0.50000   0.11950   0.00000  Uiso   1.00
O257   O     0.57608   0.50000   0.21383   0.00000  Uiso   1.00
O258   O     0.63416   0.57151   0.13483   0.00000  Uiso   1.00
Zn259  Zn    0.50000   0.49999   0.21771   0.00000  Uiso   1.00
Zn260  Zn    0.50000   0.50001   0.11563   0.00000  Uiso   1.00
C261   C     0.84073   0.42039   0.16770   0.00000  Uiso   1.00
C262   C     0.86148   0.35482   0.21192   0.00000  Uiso   1.00
C263   C     0.85303   0.62430   0.16824   0.00000  Uiso   1.00
C264   C     0.85627   0.37681   0.16985   0.00000  Uiso   1.00
C265   C     0.87374   0.51751   0.02864   0.00000  Uiso   1.00
C266   C     0.79326   0.48196   0.30475   0.00000  Uiso   1.00
C267   C     0.87370   0.51757   0.31400   0.00000  Uiso   1.00
C268   C     0.79324   0.48200   0.01940   0.00000  Uiso   1.00
C269   C     0.99590   0.54513   0.12175   0.00000  Uiso   1.00
C270   C     0.67122   0.45502   0.21327   0.00000  Uiso   1.00
C271   C     0.88230   0.38027   0.09018   0.00000  Uiso   1.00
C272   C     0.83897   0.58012   0.16710   0.00000  Uiso   1.00
C273   C     0.87932   0.62111   0.25425   0.00000  Uiso   1.00
C274   C     0.86194   0.62559   0.08290   0.00000  Uiso   1.00
C275   C     0.86861   0.37678   0.25662   0.00000  Uiso   1.00
C276   C     0.73394   0.50044   0.15516   0.00000  Uiso   1.00
C277   C     0.93273   0.49901   0.17822   0.00000  Uiso   1.00
C278   C     0.68033   0.50859   0.15124   0.00000  Uiso   1.00
C279   C     0.98640   0.49060   0.18230   0.00000  Uiso   1.00
C280   C     0.86492   0.35639   0.12924   0.00000  Uiso   1.00
C281   C     0.86293   0.64475   0.21109   0.00000  Uiso   1.00
C282   C     0.85902   0.64649   0.12730   0.00000  Uiso   1.00
H283   H     0.90610   0.53136   0.05054   0.00000  Uiso   1.00
H284   H     0.91432   0.41376   0.30050   0.00000  Uiso   1.00
H285   H     0.76134   0.46741   0.28295   0.00000  Uiso   1.00
H286   H     0.90605   0.53154   0.29959   0.00000  Uiso   1.00
H287   H     0.76123   0.46755   0.03391   0.00000  Uiso   1.00
H288   H     0.67744   0.54986   0.08934   0.00000  Uiso   1.00
H289   H     0.98869   0.45090   0.24527   0.00000  Uiso   1.00
H290   H     0.90982   0.40591   0.09723   0.00000  Uiso   1.00
H291   H     0.90911   0.59735   0.25480   0.00000  Uiso   1.00
H292   H     0.90773   0.60708   0.03655   0.00000  Uiso   1.00
N293   N     0.83332   0.49999   0.28573   0.00000  Uiso   1.00
N294   N     0.83335   0.50001   0.04760   0.00000  Uiso   1.00
O295   O     0.83333   0.43892   0.20487   0.00000  Uiso   1.00
O296   O     0.70153   0.42900   0.20233   0.00000  Uiso   1.00
O297   O     0.86493   0.37278   0.05045   0.00000  Uiso   1.00
O298   O     0.85841   0.62662   0.28846   0.00000  Uiso   1.00
O299   O     0.82186   0.61530   0.05854   0.00000  Uiso   1.00
O300   O     0.91048   0.62048   0.06783   0.00000  Uiso   1.00
O301   O     0.83377   0.37603   0.28089   0.00000  Uiso   1.00
O302   O     0.91443   0.39942   0.26992   0.00000  Uiso   1.00
O303   O     0.83334   0.56108   0.12846   0.00000  Uiso   1.00
O304   O     0.83333   0.43893   0.12843   0.00000  Uiso   1.00
O305   O     0.83334   0.56107   0.20490   0.00000  Uiso   1.00
O306   O     0.75725   0.50000   0.19595   0.00000  Uiso   1.00
O307   O     0.90942   0.50000   0.13739   0.00000  Uiso   1.00
O308   O     0.75725   0.50000   0.11950   0.00000  Uiso   1.00
O309   O     0.90942   0.50000   0.21383   0.00000  Uiso   1.00
O310   O     0.96749   0.57151   0.13483   0.00000  Uiso   1.00
Zn311  Zn    0.83333   0.49999   0.21771   0.00000  Uiso   1.00
Zn312  Zn    0.83333   0.50001   0.11563   0.00000  Uiso   1.00
C313   C     0.17406   0.75372   0.16770   0.00000  Uiso   1.00
C314   C     0.19481   0.68815   0.21192   0.00000  Uiso   1.00
C315   C     0.18637   0.95764   0.16824   0.00000  Uiso   1.00
C316   C     0.18961   0.71015   0.16985   0.00000  Uiso   1.00
C317   C     0.20708   0.85085   0.02864   0.00000  Uiso   1.00
C318   C     0.12659   0.81529   0.30475   0.00000  Uiso   1.00
C319   C     0.20704   0.85091   0.31400   0.00000  Uiso   1.00
C320   C     0.12657   0.81534   0.01940   0.00000  Uiso   1.00
C321   C     0.32924   0.87847   0.12175   0.00000  Uiso   1.00
C322   C     0.00456   0.78835   0.21327   0.00000  Uiso   1.00
C323   C     0.21564   0.71360   0.09018   0.00000  Uiso   1.00
C324   C     0.17230   0.91345   0.16710   0.00000  Uiso   1.00
C325   C     0.21265   0.95444   0.25425   0.00000  Uiso   1.00
C326   C     0.19527   0.95892   0.08290   0.00000  Uiso   1.00
C327   C     0.20194   0.71012   0.25662   0.00000  Uiso   1.00
C328   C     0.06727   0.83378   0.15516   0.00000  Uiso   1.00
C329   C     0.26606   0.83235   0.17822   0.00000  Uiso   1.00
C330   C     0.01366   0.84192   0.15124   0.00000  Uiso   1.00
C331   C     0.31973   0.82394   0.18230   0.00000  Uiso   1.00
C332   C     0.19825   0.68973   0.12924   0.00000  Uiso   1.00
C333   C     0.19626   0.97808   0.21109   0.00000  Uiso   1.00
C334   C     0.19235   0.97982   0.12730   0.00000  Uiso   1.00
H335   H     0.23943   0.86469   0.05054   0.00000  Uiso   1.00
H336   H     0.24766   0.74710   0.30050   0.00000  Uiso   1.00
H337   H     0.09467   0.80074   0.28295   0.00000  Uiso   1.00
H338   H     0.23939   0.86487   0.29959   0.00000  Uiso   1.00
H339   H     0.09457   0.80088   0.03391   0.00000  Uiso   1.00
H340   H     0.01077   0.88320   0.08934   0.00000  Uiso   1.00
H341   H     0.32202   0.78424   0.24527   0.00000  Uiso   1.00
H342   H     0.24315   0.73924   0.09723   0.00000  Uiso   1.00
H343   H     0.24244   0.93068   0.25480   0.00000  Uiso   1.00
H344   H     0.24106   0.94042   0.03655   0.00000  Uiso   1.00
N345   N     0.16665   0.83332   0.28573   0.00000  Uiso   1.00
N346   N     0.16668   0.83334   0.04760   0.00000  Uiso   1.00
O347   O     0.16666   0.77225   0.20487   0.00000  Uiso   1.00
O348   O     0.03487   0.76234   0.20233   0.00000  Uiso   1.00
O349   O     0.19826   0.70611   0.05045   0.00000  Uiso   1.00
O350   O     0.19174   0.95995   0.28846   0.00000  Uiso   1.00
O351   O     0.15519   0.94863   0.05854   0.00000  Uiso   1.00
O352   O     0.24381   0.95381   0.06783   0.00000  Uiso   1.00
O353   O     0.16710   0.70936   0.28089   0.00000  Uiso   1.00
O354   O     0.24777   0.73276   0.26992   0.00000  Uiso   1.00
O355   O     0.16667   0.89442   0.12846   0.00000  Uiso   1.00
O356   O     0.16666   0.77226   0.12843   0.00000  Uiso   1.00
O357   O     0.16667   0.89441   0.20490   0.00000  Uiso   1.00
O358   O     0.09058   0.83333   0.19595   0.00000  Uiso   1.00
O359   O     0.24275   0.83334   0.13739   0.00000  Uiso   1.00
O360   O     0.09058   0.83334   0.11950   0.00000  Uiso   1.00
O361   O     0.24275   0.83333   0.21383   0.00000  Uiso   1.00
O362   O     0.30083   0.90485   0.13483   0.00000  Uiso   1.00
Zn363  Zn    0.16667   0.83333   0.21771   0.00000  Uiso   1.00
Zn364  Zn    0.16667   0.83334   0.11563   0.00000  Uiso   1.00
C365   C     0.50739   0.75372   0.16770   0.00000  Uiso   1.00
C366   C     0.52814   0.68815   0.21192   0.00000  Uiso   1.00
C367   C     0.51970   0.95764   0.16824   0.00000  Uiso   1.00
C368   C     0.52294   0.71015   0.16985   0.00000  Uiso   1.00
C369   C     0.54041   0.85085   0.02864   0.00000  Uiso   1.00
C370   C     0.45993   0.81529   0.30475   0.00000  Uiso   1.00
C371   C     0.54037   0.85091   0.31400   0.00000  Uiso   1.00
C372   C     0.45990   0.81534   0.01940   0.00000  Uiso   1.00
C373   C     0.66257   0.87847   0.12175   0.00000  Uiso   1.00
C374   C     0.33789   0.78835   0.21327   0.00000  Uiso   1.00
C375   C     0.54897   0.71360   0.09018   0.00000  Uiso   1.00
C376   C     0.50564   0.91345   0.16710   0.00000  Uiso   1.00
C377   C     0.54598   0.95444   0.25425   0.00000  Uiso   1.00
C378   C     0.52860   0.95892   0.08290   0.00000  Uiso   1.00
C379   C     0.53527   0.71012   0.25662   0.00000  Uiso   1.00
C380   C     0.40060   0.83378   0.15516   0.00000  Uiso   1.00
C381   C     0.59940   0.83235   0.17822   0.00000  Uiso   1.00
C382   C     0.34699   0.84192   0.15124   0.00000  Uiso   1.00
C383   C     0.65306   0.82394   0.18230   0.00000  Uiso   1.00
C384   C     0.53158   0.68973   0.12924   0.00000  Uiso   1.00
C385   C     0.52960   0.97808   0.21109   0.00000  Uiso   1.00
C386   C     0.52568   0.97982   0.12730   0.00000  Uiso   1.00
H387   H     0.57277   0.86469   0.05054   0.00000  Uiso   1.00
H388   H     0.58099   0.74710   0.30050   0.00000  Uiso   1.00
H389   H     0.42801   0.80074   0.28295   0.00000  Uiso   1.00
H390   H     0.57272   0.86487   0.29959   0.00000  Uiso   1.00
H391   H     0.42790   0.80088   0.03391   0.00000  Uiso   1.00
H392   H     0.34410   0.88320   0.08934   0.00000  Uiso   1.00
H393   H     0.65535   0.78424   0.24527   0.00000  Uiso   1.00
H394   H     0.57648   0.73924   0.09723   0.00000  Uiso   1.00
H395   H     0.57578   0.93068   0.25480   0.00000  Uiso   1.00
H396   H     0.57439   0.94042   0.03655   0.00000  Uiso   1.00
N397   N     0.49999   0.83332   0.28573   0.00000  Uiso   1.00
N398   N     0.50001   0.83334   0.04760   0.00000  Uiso   1.00
O399   O     0.50000   0.77225   0.20487   0.00000  Uiso   1.00
O400   O     0.36820   0.76234   0.20233   0.00000  Uiso   1.00
O401   O     0.53159   0.70611   0.05045   0.00000  Uiso   1.00
O402   O     0.52507   0.95995   0.28846   0.00000  Uiso   1.00
O403   O     0.48852   0.94863   0.05854   0.00000  Uiso   1.00
O404   O     0.57715   0.95381   0.06783   0.00000  Uiso   1.00
O405   O     0.50043   0.70936   0.28089   0.00000  Uiso   1.00
O406   O     0.58110   0.73276   0.26992   0.00000  Uiso   1.00
O407   O     0.50000   0.89442   0.12846   0.00000  Uiso   1.00
O408   O     0.50000   0.77226   0.12843   0.00000  Uiso   1.00
O409   O     0.50000   0.89441   0.20490   0.00000  Uiso   1.00
O410   O     0.42392   0.83333   0.19595   0.00000  Uiso   1.00
O411   O     0.57608   0.83334   0.13739   0.00000  Uiso   1.00
O412   O     0.42392   0.83334   0.11950   0.00000  Uiso   1.00
O413   O     0.57608   0.83333   0.21383   0.00000  Uiso   1.00
O414   O     0.63416   0.90485   0.13483   0.00000  Uiso   1.00
Zn415  Zn    0.50000   0.83333   0.21771   0.00000  Uiso   1.00
Zn416  Zn    0.50000   0.83334   0.11563   0.00000  Uiso   1.00
C417   C     0.84073   0.75372   0.16770   0.00000  Uiso   1.00
C418   C     0.86148   0.68815   0.21192   0.00000  Uiso   1.00
C419   C     0.85303   0.95764   0.16824   0.00000  Uiso   1.00
C420   C     0.85627   0.71015   0.16985   0.00000  Uiso   1.00
C421   C     0.87374   0.85085   0.02864   0.00000  Uiso   1.00
C422   C     0.79326   0.81529   0.30475   0.00000  Uiso   1.00
C423   C     0.87370   0.85091   0.31400   0.00000  Uiso   1.00
C424   C     0.79324   0.81534   0.01940   0.00000  Uiso   1.00
C425   C     0.99590   0.87847   0.12175   0.00000  Uiso   1.00
C426   C     0.67122   0.78835   0.21327   0.00000  Uiso   1.00
C427   C     0.88230   0.71360   0.09018   0.00000  Uiso   1.00
C428   C     0.83897   0.91345   0.16710   0.00000  Uiso   1.00
C429   C     0.87932   0.95444   0.25425   0.00000  Uiso   1.00
C430   C     0.86194   0.95892   0.08290   0.00000  Uiso   1.00
C431   C     0.86861   0.71012   0.25662   0.00000  Uiso   1.00
C432   C     0.73394   0.83378   0.15516   0.00000  Uiso   1.00
C433   C     0.93273   0.83235   0.17822   0.00000  Uiso   1.00
C434   C     0.68033   0.84192   0.15124   0.00000  Uiso   1.00
C435   C     0.98640   0.82394   0.18230   0.00000  Uiso   1.00
C436   C     0.86492   0.68973   0.12924   0.00000  Uiso   1.00
C437   C     0.86293   0.97808   0.21109   0.00000  Uiso   1.00
C438   C     0.85902   0.97982   0.12730   0.00000  Uiso   1.00
H439   H     0.90610   0.86469   0.05054   0.00000  Uiso   1.00
H440   H     0.91432   0.74710   0.30050   0.00000  Uiso   1.00
H441   H     0.76134   0.80074   0.28295   0.00000  Uiso   1.00
H442   H     0.90605   0.86487   0.29959   0.00000  Uiso   1.00
H443   H     0.76123   0.80088   0.03391   0.00000  Uiso   1.00
H444   H     0.67744   0.88320   0.08934   0.00000  Uiso   1.00
H445   H     0.98869   0.78424   0.24527   0.00000  Uiso   1.00
H446   H     0.90982   0.73924   0.09723   0.00000  Uiso   1.00
H447   H     0.90911   0.93068   0.25480   0.00000  Uiso   1.00
H448   H     0.90773   0.94042   0.03655   0.00000  Uiso   1.00
N449   N     0.83332   0.83332   0.28573   0.00000  Uiso   1.00
N450   N     0.83335   0.83334   0.04760   0.00000  Uiso   1.00
O451   O     0.83333   0.77225   0.20487   0.00000  Uiso   1.00
O452   O     0.70153   0.76234   0.20233   0.00000  Uiso   1.00
O453   O     0.86493   0.70611   0.05045   0.00000  Uiso   1.00
O454   O     0.85841   0.95995   0.28846   0.00000  Uiso   1.00
O455   O     0.82186   0.94863   0.05854   0.00000  Uiso   1.00
O456   O     0.91048   0.95381   0.06783   0.00000  Uiso   1.00
O457   O     0.83377   0.70936   0.28089   0.00000  Uiso   1.00
O458   O     0.91443   0.73276   0.26992   0.00000  Uiso   1.00
O459   O     0.83334   0.89442   0.12846   0.00000  Uiso   1.00
O460   O     0.83333   0.77226   0.12843   0.00000  Uiso   1.00
O461   O     0.83334   0.89441   0.20490   0.00000  Uiso   1.00
O462   O     0.75725   0.83333   0.19595   0.00000  Uiso   1.00
O463   O     0.90942   0.83334   0.13739   0.00000  Uiso   1.00
O464   O     0.75725   0.83334   0.11950   0.00000  Uiso   1.00
O465   O     0.90942   0.83333   0.21383   0.00000  Uiso   1.00
O466   O     0.96749   0.90485   0.13483   0.00000  Uiso   1.00
Zn467  Zn    0.83333   0.83333   0.21771   0.00000  Uiso   1.00
Zn468  Zn    0.83333   0.83334   0.11563   0.00000  Uiso   1.00
C469   C     0.17406   0.08706   0.50103   0.00000  Uiso   1.00
C470   C     0.19481   0.02148   0.54525   0.00000  Uiso   1.00
C471   C     0.18637   0.29097   0.50157   0.00000  Uiso   1.00
C472   C     0.18961   0.04348   0.50318   0.00000  Uiso   1.00
C473   C     0.20708   0.18418   0.36197   0.00000  Uiso   1.00
C474   C     0.12659   0.14862   0.63808   0.00000  Uiso   1.00
C475   C     0.20704   0.18424   0.64733   0.00000  Uiso   1.00
C476   C     0.12657   0.14867   0.35273   0.00000  Uiso   1.00
C477   C     0.32924   0.21180   0.45509   0.00000  Uiso   1.00
C478   C     0.00456   0.12169   0.54661   0.00000  Uiso   1.00
C479   C     0.21564   0.04694   0.42352   0.00000  Uiso   1.00
C480   C     0.17230   0.24679   0.50043   0.00000  Uiso   1.00
C481   C     0.21265   0.28777   0.58758   0.00000  Uiso   1.00
C482   C     0.19527   0.29225   0.41624   0.00000  Uiso   1.00
C483   C     0.20194   0.04345   0.58995   0.00000  Uiso   1.00
C484   C     0.06727   0.16711   0.48849   0.00000  Uiso   1.00
C485   C     0.26606   0.16568   0.51155   0.00000  Uiso   1.00
C486   C     0.01366   0.17525   0.48458   0.00000  Uiso   1.00
C487   C     0.31973   0.15727   0.51563   0.00000  Uiso   1.00
C488   C     0.19825   0.02306   0.46258   0.00000  Uiso   1.00
C489   C     0.19626   0.31142   0.54442   0.00000  Uiso   1.00
C490   C     0.19235   0.31316   0.46064   0.00000  Uiso   1.00
H491   H     0.23943   0.19802   0.38387   0.00000  Uiso   1.00
H492   H     0.24766   0.08043   0.63383   0.00000  Uiso   1.00
H493   H     0.09467   0.13408   0.61628   0.00000  Uiso   1.00
H494   H     0.23939   0.19820   0.63293   0.00000  Uiso   1.00
H495   H     0.09457   0.13422   0.36724   0.00000  Uiso   1.00
H496   H     0.01077   0.21653   0.42268   0.00000  Uiso   1.00
H497   H     0.32202   0.11757   0.57861   0.00000  Uiso   1.00
H498   H     0.24315   0.07258   0.43056   0.00000  Uiso   1.00
H499   H     0.24244   0.26402   0.58814   0.00000  Uiso   1.00
H500   H     0.24106   0.27375   0.36988   0.00000  Uiso   1.00
N501   N     0.16665   0.16666   0.61907   0.00000  Uiso   1.00
N502   N     0.16668   0.16668   0.38093   0.00000  Uiso   1.00
O503   O     0.16666   0.10558   0.53821   0.00000  Uiso   1.00
O504   O     0.03487   0.09567   0.53566   0.00000  Uiso   1.00
O505   O     0.19826   0.03944   0.38378   0.00000  Uiso   1.00
O506   O     0.19174   0.29329   0.62180   0.00000  Uiso   1.00
O507   O     0.15519   0.28197   0.39187   0.00000  Uiso   1.00
O508   O     0.24381   0.28715   0.40116   0.00000  Uiso   1.00
O509   O     0.16710   0.04269   0.61422   0.00000  Uiso   1.00
O510   O     0.24777   0.06609   0.60325   0.00000  Uiso   1.00
O511   O     0.16667   0.22775   0.46179   0.00000  Uiso   1.00
O512   O     0.16666   0.10559   0.46176   0.00000  Uiso   1.00
O513   O     0.16667   0.22774   0.53824   0.00000  Uiso   1.00
O514   O     0.09058   0.16666   0.52928   0.00000  Uiso   1.00
O515   O     0.24275   0.16667   0.47072   0.00000  Uiso   1.00
O516   O     0.09058   0.16667   0.45284   0.00000  Uiso   1.00
O517   O     0.24275   0.16666   0.54716   0.00000  Uiso   1.00
O518   O     0.30083   0.23818   0.46816   0.00000  Uiso   1.00
Zn519  Zn    0.16667   0.16666   0.55104   0.00000  Uiso   1.00
Zn520  Zn    0.16667   0.16667   0.44896   0.00000  Uiso   1.00
C521   C     0.50739   0.08706   0.50103   0.00000  Uiso   1.00
C522   C     0.52814   0.02148   0.54525   0.00000  Uiso   1.00
C523   C     0.51970   0.29097   0.50157   0.00000  Uiso   1.00
C524   C     0.52294   0.04348   0.50318   0.00000  Uiso   1.00
C525   C     0.54041   0.18418   0.36197   0.00000  Uiso   1.00
C526   C     0.45993   0.14862   0.63808   0.00000  Uiso   1.00
C527   C     0.54037   0.18424   0.64733   0.00000  Uiso   1.00
C528   C     0.45990   0.14867   0.35273   0.00000  Uiso   1.00
C529   C     0.66257   0.21180   0.45509   0.00000  Uiso   1.00
C530   C     0.33789   0.12169   0.54661   0.00000  Uiso   1.00
C531   C     0.54897   0.04694   0.42352   0.00000  Uiso   1.00
C532   C     0.50564   0.24679   0.50043   0.00000  Uiso   1.00
C533   C     0.54598   0.28777   0.58758   0.00000  Uiso   1.00
C534   C     0.52860   0.29225   0.41624   0.00000  Uiso   1.00
C535   C     0.53527   0.04345   0.58995   0.00000  Uiso   1.00
C536   C     0.40060   0.16711   0.48849   0.00000  Uiso   1.00
C537   C     0.59940   0.16568   0.51155   0.00000  Uiso   1.00
C538   C     0.34699   0.17525   0.48458   0.00000  Uiso   1.00
C539   C     0.65306   0.15727   0.51563   0.00000  Uiso   1.00
C540   C     0.53158   0.02306   0.46258   0.00000  Uiso   1.00
C541   C     0.52960   0.31142   0.54442   0.00000  Uiso   1.00
C542   C     0.52568   0.31316   0.46064   0.00000  Uiso   1.00
H543   H     0.57277   0.19802   0.38387   0.00000  Uiso   1.00
H544   H     0.58099   0.08043   0.63383   0.00000  Uiso   1.00
H545   H     0.42801   0.13408   0.61628   0.00000  Uiso   1.00
H546   H     0.57272   0.19820   0.63293   0.00000  Uiso   1.00
H547   H     0.42790   0.13422   0.36724   0.00000  Uiso   1.00
H548   H     0.34410   0.21653   0.42268   0.00000  Uiso   1.00
H549   H     0.65535   0.11757   0.57861   0.00000  Uiso   1.00
H550   H     0.57648   0.07258   0.43056   0.00000  Uiso   1.00
H551   H     0.57578   0.26402   0.58814   0.00000  Uiso   1.00
H552   H     0.57439   0.27375   0.36988   0.00000  Uiso   1.00
N553   N     0.49999   0.16666   0.61907   0.00000  Uiso   1.00
N554   N     0.50001   0.16668   0.38093   0.00000  Uiso   1.00
O555   O     0.50000   0.10558   0.53821   0.00000  Uiso   1.00
O556   O     0.36820   0.09567   0.53566   0.00000  Uiso   1.00
O557   O     0.53159   0.03944   0.38378   0.00000  Uiso   1.00
O558   O     0.52507   0.29329   0.62180   0.00000  Uiso   1.00
O559   O     0.48852   0.28197   0.39187   0.00000  Uiso   1.00
O560   O     0.57715   0.28715   0.40116   0.00000  Uiso   1.00
O561   O     0.50043   0.04269   0.61422   0.00000  Uiso   1.00
O562   O     0.58110   0.06609   0.60325   0.00000  Uiso   1.00
O563   O     0.50000   0.22775   0.46179   0.00000  Uiso   1.00
O564   O     0.50000   0.10559   0.46176   0.00000  Uiso   1.00
O565   O     0.50000   0.22774   0.53824   0.00000  Uiso   1.00
O566   O     0.42392   0.16666   0.52928   0.00000  Uiso   1.00
O567   O     0.57608   0.16667   0.47072   0.00000  Uiso   1.00
O568   O     0.42392   0.16667   0.45284   0.00000  Uiso   1.00
O569   O     0.57608   0.16666   0.54716   0.00000  Uiso   1.00
O570   O     0.63416   0.23818   0.46816   0.00000  Uiso   1.00
Zn571  Zn    0.50000   0.16666   0.55104   0.00000  Uiso   1.00
Zn572  Zn    0.50000   0.16667   0.44896   0.00000  Uiso   1.00
C573   C     0.84073   0.08706   0.50103   0.00000  Uiso   1.00
C574   C     0.86148   0.02148   0.54525   0.00000  Uiso   1.00
C575   C     0.85303   0.29097   0.50157   0.00000  Uiso   1.00
C576   C     0.85627   0.04348   0.50318   0.00000  Uiso   1.00
C577   C     0.87374   0.18418   0.36197   0.00000  Uiso   1.00
C578   C     0.79326   0.14862   0.63808   0.00000  Uiso   1.00
C579   C     0.87370   0.18424   0.64733   0.00000  Uiso   1.00
C580   C     0.79324   0.14867   0.35273   0.00000  Uiso   1.00
C581   C     0.99590   0.21180   0.45509   0.00000  Uiso   1.00
C582   C     0.67122   0.12169   0.54661   0.00000  Uiso   1.00
C583   C     0.88230   0.04694   0.42352   0.00000  Uiso   1.00
C584   C     0.83897   0.24679   0.50043   0.00000  Uiso   1.00
C585   C     0.87932   0.28777   0.58758   0.00000  Uiso   1.00
C586   C     0.86194   0.29225   0.41624   0.00000  Uiso   1.00
C587   C     0.86861   0.04345   0.58995   0.00000  Uiso   1.00
C588   C     0.73394   0.16711   0.48849   0.00000  Uiso   1.00
C589   C     0.93273   0.16568   0.51155   0.00000  Uiso   1.00
C590   C     0.68033   0.17525   0.48458   0.00000  Uiso   1.00
C591   C     0.98640   0.15727   0.51563   0.00000  Uiso   1.00
C592   C     0.86492   0.02306   0.46258   0.00000  Uiso   1.00
C593   C     0.86293   0.31142   0.54442   0.00000  Uiso   1.00
C594   C     0.85902   0.31316   0.46064   0.00000  Uiso   1.00
H595   H     0.90610   0.19802   0.38387   0.00000  Uiso   1.00
H596   H     0.91432   0.08043   0.63383   0.00000  Uiso   1.00
H597   H     0.76134   0.13408   0.61628   0.00000  Uiso   1.00
H598   H     0.90605   0.19820   0.63293   0.00000  Uiso   1.00
H599   H     0.76123   0.13422   0.36724   0.00000  Uiso   1.00
H600   H     0.67744   0.21653   0.42268   0.00000  Uiso   1.00
H601   H     0.98869   0.11757   0.57861   0.00000  Uiso   1.00
H602   H     0.90982   0.07258   0.43056   0.00000  Uiso   1.00
H603   H     0.90911   0.26402   0.58814   0.00000  Uiso   1.00
H604   H     0.90773   0.27375   0.36988   0.00000  Uiso   1.00
N605   N     0.83332   0.16666   0.61907   0.00000  Uiso   1.00
N606   N     0.83335   0.16668   0.38093   0.00000  Uiso   1.00
O607   O     0.83333   0.10558   0.53821   0.00000  Uiso   1.00
O608   O     0.70153   0.09567   0.53566   0.00000  Uiso   1.00
O609   O     0.86493   0.03944   0.38378   0.00000  Uiso   1.00
O610   O     0.85841   0.29329   0.62180   0.00000  Uiso   1.00
O611   O     0.82186   0.28197   0.39187   0.00000  Uiso   1.00
O612   O     0.91048   0.28715   0.40116   0.00000  Uiso   1.00
O613   O     0.83377   0.04269   0.61422   0.00000  Uiso   1.00
O614   O     0.91443   0.06609   0.60325   0.00000  Uiso   1.00
O615   O     0.83334   0.22775   0.46179   0.00000  Uiso   1.00
O616   O     0.83333   0.10559   0.46176   0.00000  Uiso   1.00
O617   O     0.83334   0.22774   0.53824   0.00000  Uiso   1.00
O618   O     0.75725   0.16666   0.52928   0.00000  Uiso   1.00
O619   O     0.90942   0.16667   0.47072   0.00000  Uiso   1.00
O620   O     0.75725   0.16667   0.45284   0.00000  Uiso   1.00
O621   O     0.90942   0.16666   0.54716   0.00000  Uiso   1.00
O622   O     0.96749   0.23818   0.46816   0.00000  Uiso   1.00
Zn623  Zn    0.83333   0.16666   0.55104   0.00000  Uiso   1.00
Zn624  Zn    0.83333   0.16667   0.44896   0.00000  Uiso   1.00
C625   C     0.17406   0.42039   0.50103   0.00000  Uiso   1.00
C626   C     0.19481   0.35482   0.54525   0.00000  Uiso   1.00
C627   C     0.18637   0.62430   0.50157   0.00000  Uiso   1.00
C628   C     0.18961   0.37681   0.50318   0.00000  Uiso   1.00
C629   C     0.20708   0.51751   0.36197   0.00000  Uiso   1.00
C630   C     0.12659   0.48196   0.63808   0.00000  Uiso   1.00
C631   C     0.20704   0.51757   0.64733   0.00000  Uiso   1.00
C632   C     0.12657   0.48200   0.35273   0.00000  Uiso   1.00
C633   C     0.32924   0.54513   0.45509   0.00000  Uiso   1.00
C634   C     0.00456   0.45502   0.54661   0.00000  Uiso   1.00
C635   C     0.21564   0.38027   0.42352   0.00000  Uiso   1.00
C636   C     0.17230   0.58012   0.50043   0.00000  Uiso   1.00
C637   C     0.21265   0.62111   0.58758   0.00000  Uiso   1.00
C638   C     0.19527   0.62559   0.41624   0.00000  Uiso   1.00
C639   C     0.20194   0.37678   0.58995   0.00000  Uiso   1.00
C640   C     0.06727   0.50044   0.48849   0.00000  Uiso   1.00
C641   C     0.26606   0.49901   0.51155   0.00000  Uiso   1.00
C642   C     0.01366   0.50859   0.48458   0.00000  Uiso   1.00
C643   C     0.31973   0.49060   0.51563   0.00000  Uiso   1.00
C644   C     0.19825   0.35639   0.46258   0.00000  Uiso   1.00
C645   C     0.19626   0.64475   0.54442   0.00000  Uiso   1.00
C646   C     0.19235   0.64649   0.46064   0.00000  Uiso   1.00
H647   H     0.23943   0.53136   0.38387   0.00000  Uiso   1.00
H648   H     0.24766   0.41376   0.63383   0.00000  Uiso   1.00
H649   H     0.09467   0.46741   0.61628   0.00000  Uiso   1.00
H650   H     0.23939   0.53154   0.63293   0.00000  Uiso   1.00
H651   H     0.09457   0.46755   0.36724   0.00000  Uiso   1.00
H652   H     0.01077   0.54986   0.42268   0.00000  Uiso   1.00
H653   H     0.32202   0.45090   0.57861   0.00000  Uiso   1.00
H654   H     0.24315   0.40591   0.43056   0.00000  Uiso   1.00
H655   H     0.24244   0.59735   0.58814   0.00000  Uiso   1.00
H656   H     0.24106   0.60708   0.36988   0.00000  Uiso   1.00
N657   N     0.16665   0.49999   0.61907   0.00000  Uiso   1.00
N658   N     0.16668   0.50001   0.38093   0.00000  Uiso   1.00
O659   O     0.16666   0.43892   0.53821   0.00000  Uiso   1.00
O660   O     0.03487   0.42900   0.53566   0.00000  Uiso   1.00
O661   O     0.19826   0.37278   0.38378   0.00000  Uiso   1.00
O662   O     0.19174   0.62662   0.62180   0.00000  Uiso   1.00
O663   O     0.15519   0.61530   0.39187   0.00000  Uiso   1.00
O664   O     0.24381   0.62048   0.40116   0.00000  Uiso   1.00
O665   O     0.16710   0.37603   0.61422   0.00000  Uiso   1.00
O666   O     0.24777   0.39942   0.60325   0.00000  Uiso   1.00
O667   O     0.16667   0.56108   0.46179   0.00000  Uiso   1.00
O668   O     0.16666   0.43893   0.46176   0.00000  Uiso   1.00
O669   O     0.16667   0.56107   0.53824   0.00000  Uiso   1.00
O670   O     0.09058   0.50000   0.52928   0.00000  Uiso   1.00
O671   O     0.24275   0.50000   0.47072   0.00000  Uiso   1.00
O672   O     0.09058   0.50000   0.45284   0.00000  Uiso   1.00
O673   O     0.24275   0.50000   0.54716   0.00000  Uiso   1.00
O674   O     0.30083   0.57151   0.46816   0.00000  Uiso   1.00
Zn675  Zn    0.16667   0.49999   0.55104   0.00000  Uiso   1.00
Zn676  Zn    0.16667   0.50001   0.44896   0.00000  Uiso   1.00
C677   C     0.50739   0.42039   0.50103   0.00000  Uiso   1.00
C678   C     0.52814   0.35482   0.54525   0.00000  Uiso   1.00
C679   C     0.51970   0.62430   0.50157   0.00000  Uiso   1.00
C680   C     0.52294   0.37681   0.50318   0.00000  Uiso   1.00
C681   C     0.54041   0.51751   0.36197   0.00000  Uiso   1.00
C682   C     0.45993   0.48196   0.63808   0.00000  Uiso   1.00
C683   C     0.54037   0.51757   0.64733   0.00000  Uiso   1.00
C684   C     0.45990   0.48200   0.35273   0.00000  Uiso   1.00
C685   C     0.66257   0.54513   0.45509   0.00000  Uiso   1.00
C686   C     0.33789   0.45502   0.54661   0.00000  Uiso   1.00
C687   C     0.54897   0.38027   0.42352   0.00000  Uiso   1.00
C688   C     0.50564   0.58012   0.50043   0.00000  Uiso   1.00
C689   C     0.54598   0.62111   0.58758   0.00000  Uiso   1.00
C690   C     0.52860   0.62559   0.41624   0.00000  Uiso   1.00
C691   C     0.53527   0.37678   0.58995   0.00000  Uiso   1.00
C692   C     0.40060   0.50044   0.48849   0.00000  Uiso   1.00
C693   C     0.59940   0.49901   0.51155   0.00000  Uiso   1.00
C694   C     0.34699   0.50859   0.48458   0.00000  Uiso   1.00
C695   C     0.65306   0.49060   0.51563   0.00000  Uiso   1.00
C696   C     0.53158   0.35639   0.46258   0.00000  Uiso   1.00
C697   C     0.52960   0.64475   0.54442   0.00000  Uiso   1.00
C698   C     0.52568   0.64649   0.46064   0.00000  Uiso   1.00
H699   H     0.57277   0.53136   0.38387   0.00000  Uiso   1.00
H700   H     0.58099   0.41376   0.63383   0.00000  Uiso   1.00
H701   H     0.42801   0.46741   0.61628   0.00000  Uiso   1.00
H702   H     0.57272   0.53154   0.63293   0.00000  Uiso   1.00
H703   H     0.42790   0.46755   0.36724   0.00000  Uiso   1.00
H704   H     0.34410   0.54986   0.42268   0.00000  Uiso   1.00
H705   H     0.65535   0.45090   0.57861   0.00000  Uiso   1.00
H706   H     0.57648   0.40591   0.43056   0.00000  Uiso   1.00
H707   H     0.57578   0.59735   0.58814   0.00000  Uiso   1.00
H708   H     0.57439   0.60708   0.36988   0.00000  Uiso   1.00
N709   N     0.49999   0.49999   0.61907   0.00000  Uiso   1.00
N710   N     0.50001   0.50001   0.38093   0.00000  Uiso   1.00
O711   O     0.50000   0.43892   0.53821   0.00000  Uiso   1.00
O712   O     0.36820   0.42900   0.53566   0.00000  Uiso   1.00
O713   O     0.53159   0.37278   0.38378   0.00000  Uiso   1.00
O714   O     0.52507   0.62662   0.62180   0.00000  Uiso   1.00
O715   O     0.48852   0.61530   0.39187   0.00000  Uiso   1.00
O716   O     0.57715   0.62048   0.40116   0.00000  Uiso   1.00
O717   O     0.50043   0.37603   0.61422   0.00000  Uiso   1.00
O718   O     0.58110   0.39942   0.60325   0.00000  Uiso   1.00
O719   O     0.50000   0.56108   0.46179   0.00000  Uiso   1.00
O720   O     0.50000   0.43893   0.46176   0.00000  Uiso   1.00
O721   O     0.50000   0.56107   0.53824   0.00000  Uiso   1.00
O722   O     0.42392   0.50000   0.52928   0.00000  Uiso   1.00
O723   O     0.57608   0.50000   0.47072   0.00000  Uiso   1.00
O724   O     0.42392   0.50000   0.45284   0.00000  Uiso   1.00
O725   O     0.57608   0.50000   0.54716   0.00000  Uiso   1.00
O726   O     0.63416   0.57151   0.46816   0.00000  Uiso   1.00
Zn727  Zn    0.50000   0.49999   0.55104   0.00000  Uiso   1.00
Zn728  Zn    0.50000   0.50001   0.44896   0.00000  Uiso   1.00
C729   C     0.84073   0.42039   0.50103   0.00000  Uiso   1.00
C730   C     0.86148   0.35482   0.54525   0.00000  Uiso   1.00
C731   C     0.85303   0.62430   0.50157   0.00000  Uiso   1.00
C732   C     0.85627   0.37681   0.50318   0.00000  Uiso   1.00
C733   C     0.87374   0.51751   0.36197   0.00000  Uiso   1.00
C734   C     0.79326   0.48196   0.63808   0.00000  Uiso   1.00
C735   C     0.87370   0.51757   0.64733   0.00000  Uiso   1.00
C736   C     0.79324   0.48200   0.35273   0.00000  Uiso   1.00
C737   C     0.99590   0.54513   0.45509   0.00000  Uiso   1.00
C738   C     0.67122   0.45502   0.54661   0.00000  Uiso   1.00
C739   C     0.88230   0.38027   0.42352   0.00000  Uiso   1.00
C740   C     0.83897   0.58012   0.50043   0.00000  Uiso   1.00
C741   C     0.87932   0.62111   0.58758   0.00000  Uiso   1.00
C742   C     0.86194   0.62559   0.41624   0.00000  Uiso   1.00
C743   C     0.86861   0.37678   0.58995   0.00000  Uiso   1.00
C744   C     0.73394   0.50044   0.48849   0.00000  Uiso   1.00
C745   C     0.93273   0.49901   0.51155   0.00000  Uiso   1.00
C746   C     0.68033   0.50859   0.48458   0.00000  Uiso   1.00
C747   C     0.98640   0.49060   0.51563   0.00000  Uiso   1.00
C748   C     0.86492   0.35639   0.46258   0.00000  Uiso   1.00
C749   C     0.86293   0.64475   0.54442   0.00000  Uiso   1.00
C750   C     0.85902   0.64649   0.46064   0.00000  Uiso   1.00
H751   H     0.90610   0.53136   0.38387   0.00000  Uiso   1.00
H752   H     0.91432   0.41376   0.63383   0.00000  Uiso   1.00
H753   H     0.76134   0.46741   0.61628   0.00000  Uiso   1.00
H754   H     0.90605   0.53154   0.63293   0.00000  Uiso   1.00
H755   H     0.76123   0.46755   0.36724   0.00000  Uiso   1.00
H756   H     0.67744   0.54986   0.42268   0.00000  Uiso   1.00
H757   H     0.98869   0.45090   0.57861   0.00000  Uiso   1.00
H758   H     0.90982   0.40591   0.43056   0.00000  Uiso   1.00
H759   H     0.90911   0.59735   0.58814   0.00000  Uiso   1.00
H760   H     0.90773   0.60708   0.36988   0.00000  Uiso   1.00
N761   N     0.83332   0.49999   0.61907   0.00000  Uiso   1.00
N762   N     0.83335   0.50001   0.38093   0.00000  Uiso   1.00
O763   O     0.83333   0.43892   0.53821   0.00000  Uiso   1.00
O764   O     0.70153   0.42900   0.53566   0.00000  Uiso   1.00
O765   O     0.86493   0.37278   0.38378   0.00000  Uiso   1.00
O766   O     0.85841   0.62662   0.62180   0.00000  Uiso   1.00
O767   O     0.82186   0.61530   0.39187   0.00000  Uiso   1.00
O768   O     0.91048   0.62048   0.40116   0.00000  Uiso   1.00
O769   O     0.83377   0.37603   0.61422   0.00000  Uiso   1.00
O770   O     0.91443   0.39942   0.60325   0.00000  Uiso   1.00
O771   O     0.83334   0.56108   0.46179   0.00000  Uiso   1.00
O772   O     0.83333   0.43893   0.46176   0.00000  Uiso   1.00
O773   O     0.83334   0.56107   0.53824   0.00000  Uiso   1.00
O774   O     0.75725   0.50000   0.52928   0.00000  Uiso   1.00
O775   O     0.90942   0.50000   0.47072   0.00000  Uiso   1.00
O776   O     0.75725   0.50000   0.45284   0.00000  Uiso   1.00
O777   O     0.90942   0.50000   0.54716   0.00000  Uiso   1.00
O778   O     0.96749   0.57151   0.46816   0.00000  Uiso   1.00
Zn779  Zn    0.83333   0.49999   0.55104   0.00000  Uiso   1.00
Zn780  Zn    0.83333   0.50001   0.44896   0.00000  Uiso   1.00
C781   C     0.17406   0.75372   0.50103   0.00000  Uiso   1.00
C782   C     0.19481   0.68815   0.54525   0.00000  Uiso   1.00
C783   C     0.18637   0.95764   0.50157   0.00000  Uiso   1.00
C784   C     0.18961   0.71015   0.50318   0.00000  Uiso   1.00
C785   C     0.20708   0.85085   0.36197   0.00000  Uiso   1.00
C786   C     0.12659   0.81529   0.63808   0.00000  Uiso   1.00
C787   C     0.20704   0.85091   0.64733   0.00000  Uiso   1.00
C788   C     0.12657   0.81534   0.35273   0.00000  Uiso   1.00
C789   C     0.32924   0.87847   0.45509   0.00000  Uiso   1.00
C790   C     0.00456   0.78835   0.54661   0.00000  Uiso   1.00
C791   C     0.21564   0.71360   0.42352   0.00000  Uiso   1.00
C792   C     0.17230   0.91345   0.50043   0.00000  Uiso   1.00
C793   C     0.21265   0.95444   0.58758   0.00000  Uiso   1.00
C794   C     0.19527   0.95892   0.41624   0.00000  Uiso   1.00
C795   C     0.20194   0.71012   0.58995   0.00000  Uiso   1.00
C796   C     0.06727   0.83378   0.48849   0.00000  Uiso   1.00
C797   C     0.26606   0.83235   0.51155   0.00000  Uiso   1.00
C798   C     0.01366   0.84192   0.48458   0.00000  Uiso   1.00
C799   C     0.31973   0.82394   0.51563   0.00000  Uiso   1.00
C800   C     0.19825   0.68973   0.46258   0.00000  Uiso   1.00
C801   C     0.19626   0.97808   0.54442   0.00000  Uiso   1.00
C802   C     0.19235   0.97982   0.46064   0.00000  Uiso   1.00
H803   H     0.23943   0.86469   0.38387   0.00000  Uiso   1.00
H804   H     0.24766   0.74710   0.63383   0.00000  Uiso   1.00
H805   H     0.09467   0.80074   0.61628   0.00000  Uiso   1.00
H806   H     0.23939   0.86487   0.63293   0.00000  Uiso   1.00
H807   H     0.09457   0.80088   0.36724   0.00000  Uiso   1.00
H808   H     0.01077   0.88320   0.42268   0.00000  Uiso   1.00
H809   H     0.32202   0.78424   0.57861   0.00000  Uiso   1.00
H810   H     0.24315   0.73924   0.43056   0.00000  Uiso   1.00
H811   H     0.24244   0.93068   0.58814   0.00000  Uiso   1.00
H812   H     0.24106   0.94042   0.36988   0.00000  Uiso   1.00
N813   N     0.16665   0.83332   0.61907   0.00000  Uiso   1.00
N814   N     0.16668   0.83334   0.38093   0.00000  Uiso   1.00
O815   O     0.16666   0.77225   0.53821   0.00000  Uiso   1.00
O816   O     0.03487   0.76234   0.53566   0.00000  Uiso   1.00
O817   O     0.19826   0.70611   0.38378   0.00000  Uiso   1.00
O818   O     0.19174   0.95995   0.62180   0.00000  Uiso   1.00
O819   O     0.15519   0.94863   0.39187   0.00000  Uiso   1.00
O820   O     0.24381   0.95381   0.40116   0.00000  Uiso   1.00
O821   O     0.16710   0.70936   0.61422   0.00000  Uiso   1.00
O822   O     0.24777   0.73276   0.60325   0.00000  Uiso   1.00
O823   O     0.16667   0.89442   0.46179   0.00000  Uiso   1.00
O824   O     0.16666   0.77226   0.46176   0.00000  Uiso   1.00
O825   O     0.16667   0.89441   0.53824   0.00000  Uiso   1.00
O826   O     0.09058   0.83333   0.52928   0.00000  Uiso   1.00
O827   O     0.24275   0.83334   0.47072   0.00000  Uiso   1.00
O828   O     0.09058   0.83334   0.45284   0.00000  Uiso   1.00
O829   O     0.24275   0.83333   0.54716   0.00000  Uiso   1.00
O830   O     0.30083   0.90485   0.46816   0.00000  Uiso   1.00
Zn831  Zn    0.16667   0.83333   0.55104   0.00000  Uiso   1.00
Zn832  Zn    0.16667   0.83334   0.44896   0.00000  Uiso   1.00
C833   C     0.50739   0.75372   0.50103   0.00000  Uiso   1.00
C834   C     0.52814   0.68815   0.54525   0.00000  Uiso   1.00
C835   C     0.51970   0.95764   0.50157   0.00000  Uiso   1.00
C836   C     0.52294   0.71015   0.50318   0.00000  Uiso   1.00
C837   C     0.54041   0.85085   0.36197   0.00000  Uiso   1.00
C838   C     0.45993   0.81529   0.63808   0.00000  Uiso   1.00
C839   C     0.54037   0.85091   0.64733   0.00000  Uiso   1.00
C840   C     0.45990   0.81534   0.35273   0.00000  Uiso   1.00
C841   C     0.66257   0.87847   0.45509   0.00000  Uiso   1.00
C842   C     0.33789   0.78835   0.54661   0.00000  Uiso   1.00
C843   C     0.54897   0.71360   0.42352   0.00000  Uiso   1.00
C844   C     0.50564   0.91345   0.50043   0.00000  Uiso   1.00
C845   C     0.54598   0.95444   0.58758   0.00000  Uiso   1.00
C846   C     0.52860   0.95892   0.41624   0.00000  Uiso   1.00
C847   C     0.53527   0.71012   0.58995   0.00000  Uiso   1.00
C848   C     0.40060   0.83378   0.48849   0.00000  Uiso   1.00
C849   C     0.59940   0.83235   0.51155   0.00000  Uiso   1.00
C850   C     0.34699   0.84192   0.48458   0.00000  Uiso   1.00
C851   C     0.65306   0.82394   0.51563   0.00000  Uiso   1.00
C852   C     0.53158   0.68973   0.46258   0.00000  Uiso   1.00
C853   C     0.52960   0.97808   0.54442   0.00000  Uiso   1.00
C854   C     0.52568   0.97982   0.46064   0.00000  Uiso   1.00
H855   H     0.57277   0.86469   0.38387   0.00000  Uiso   1.00
H856   H     0.58099   0.74710   0.63383   0.00000  Uiso   1.00
H857   H     0.42801   0.80074   0.61628   0.00000  Uiso   1.00
H858   H     0.57272   0.86487   0.63293   0.00000  Uiso   1.00
H859   H     0.42790   0.80088   0.36724   0.00000  Uiso   1.00
H860   H     0.34410   0.88320   0.42268   0.00000  Uiso   1.00
H861   H     0.65535   0.78424   0.57861   0.00000  Uiso   1.00
H862   H     0.57648   0.73924   0.43056   0.00000  Uiso   1.00
H863   H     0.57578   0.93068   0.58814   0.00000  Uiso   1.00
H864   H     0.57439   0.94042   0.36988   0.00000  Uiso   1.00
N865   N     0.49999   0.83332   0.61907   0.00000  Uiso   1.00
N866   N     0.50001   0.83334   0.38093   0.00000  Uiso   1.00
O867   O     0.50000   0.77225   0.53821   0.00000  Uiso   1.00
O868   O     0.36820   0.76234   0.53566   0.00000  Uiso   1.00
O869   O     0.53159   0.70611   0.38378   0.00000  Uiso   1.00
O870   O     0.52507   0.95995   0.62180   0.00000  Uiso   1.00
O871   O     0.48852   0.94863   0.39187   0.00000  Uiso   1.00
O872   O     0.57715   0.95381   0.40116   0.00000  Uiso   1.00
O873   O     0.50043   0.70936   0.61422   0.00000  Uiso   1.00
O874   O     0.58110   0.73276   0.60325   0.00000  Uiso   1.00
O875   O     0.50000   0.89442   0.46179   0.00000  Uiso   1.00
O876   O     0.50000   0.77226   0.46176   0.00000  Uiso   1.00
O877   O     0.50000   0.89441   0.53824   0.00000  Uiso   1.00
O878   O     0.42392   0.83333   0.52928   0.00000  Uiso   1.00
O879   O     0.57608   0.83334   0.47072   0.00000  Uiso   1.00
O880   O     0.42392   0.83334   0.45284   0.00000  Uiso   1.00
O881   O     0.57608   0.83333   0.54716   0.00000  Uiso   1.00
O882   O     0.63416   0.90485   0.46816   0.00000  Uiso   1.00
Zn883  Zn    0.50000   0.83333   0.55104   0.00000  Uiso   1.00
Zn884  Zn    0.50000   0.83334   0.44896   0.00000  Uiso   1.00
C885   C     0.84073   0.75372   0.50103   0.00000  Uiso   1.00
C886   C     0.86148   0.68815   0.54525   0.00000  Uiso   1.00
C887   C     0.85303   0.95764   0.50157   0.00000  Uiso   1.00
C888   C     0.85627   0.71015   0.50318   0.00000  Uiso   1.00
C889   C     0.87374   0.85085   0.36197   0.00000  Uiso   1.00
C890   C     0.79326   0.81529   0.63808   0.00000  Uiso   1.00
C891   C     0.87370   0.85091   0.64733   0.00000  Uiso   1.00
C892   C     0.79324   0.81534   0.35273   0.00000  Uiso   1.00
C893   C     0.99590   0.87847   0.45509   0.00000  Uiso   1.00
C894   C     0.67122   0.78835   0.54661   0.00000  Uiso   1.00
C895   C     0.88230   0.71360   0.42352   0.00000  Uiso   1.00
C896   C     0.83897   0.91345   0.50043   0.00000  Uiso   1.00
C897   C     0.87932   0.95444   0.58758   0.00000  Uiso   1.00
C898   C     0.86194   0.95892   0.41624   0.00000  Uiso   1.00
C899   C     0.86861   0.71012   0.58995   0.00000  Uiso   1.00
C900   C     0.73394   0.83378   0.48849   0.00000  Uiso   1.00
C901   C     0.93273   0.83235   0.51155   0.00000  Uiso   1.00
C902   C     0.68033   0.84192   0.48458   0.00000  Uiso   1.00
C903   C     0.98640   0.82394   0.51563   0.00000  Uiso   1.00
C904   C     0.86492   0.68973   0.46258   0.00000  Uiso   1.00
C905   C     0.86293   0.97808   0.54442   0.00000  Uiso   1.00
C906   C     0.85902   0.97982   0.46064   0.00000  Uiso   1.00
H907   H     0.90610   0.86469   0.38387   0.00000  Uiso   1.00
H908   H     0.91432   0.74710   0.63383   0.00000  Uiso   1.00
H909   H     0.76134   0.80074   0.61628   0.00000  Uiso   1.00
H910   H     0.90605   0.86487   0.63293   0.00000  Uiso   1.00
H911   H     0.76123   0.80088   0.36724   0.00000  Uiso   1.00
H912   H     0.67744   0.88320   0.42268   0.00000  Uiso   1.00
H913   H     0.98869   0.78424   0.57861   0.00000  Uiso   1.00
H914   H     0.90982   0.73924   0.43056   0.00000  Uiso   1.00
H915   H     0.90911   0.93068   0.58814   0.00000  Uiso   1.00
H916   H     0.90773   0.94042   0.36988   0.00000  Uiso   1.00
N917   N     0.83332   0.83332   0.61907   0.00000  Uiso   1.00
N918   N     0.83335   0.83334   0.38093   0.00000  Uiso   1.00
O919   O     0.83333   0.77225   0.53821   0.00000  Uiso   1.00
O920   O     0.70153   0.76234   0.53566   0.00000  Uiso   1.00
O921   O     0.86493   0.70611   0.38378   0.00000  Uiso   1.00
O922   O     0.85841   0.95995   0.62180   0.00000  Uiso   1.00
O923   O     0.82186   0.94863   0.39187   0.00000  Uiso   1.00
O924   O     0.91048   0.95381   0.40116   0.00000  Uiso   1.00
O925   O     0.83377   0.70936   0.61422   0.00000  Uiso   1.00
O926   O     0.91443   0.73276   0.60325   0.00000  Uiso   1.00
O927   O     0.83334   0.89442   0.46179   0.00000  Uiso   1.00
O928   O     0.83333   0.77226   0.46176   0.00000  Uiso   1.00
O929   O     0.83334   0.89441   0.53824   0.00000  Uiso   1.00
O930   O     0.75725   0.83333   0.52928   0.00000  Uiso   1.00
O931   O     0.90942   0.83334   0.47072   0.00000  Uiso   1.00
O932   O     0.75725   0.83334   0.45284   0.00000  Uiso   1.00
O933   O     0.90942   0.83333   0.54716   0.00000  Uiso   1.00
O934   O     0.96749   0.90485   0.46816   0.00000  Uiso   1.00
Zn935  Zn    0.83333   0.83333   0.55104   0.00000  Uiso   1.00
Zn936  Zn    0.83333   0.83334   0.44896   0.00000  Uiso   1.00
C937   C     0.17406   0.08706   0.83436   0.00000  Uiso   1.00
C938   C     0.19481   0.02148   0.87858   0.00000  Uiso   1.00
C939   C     0.18637   0.29097   0.83490   0.00000  Uiso   1.00
C940   C     0.18961   0.04348   0.83652   0.00000  Uiso   1.00
C941   C     0.20708   0.18418   0.69531   0.00000  Uiso   1.00
C942   C     0.12659   0.14862   0.97142   0.00000  Uiso   1.00
C943   C     0.20704   0.18424   0.98066   0.00000  Uiso   1.00
C944   C     0.12657   0.14867   0.68607   0.00000  Uiso   1.00
C945   C     0.32924   0.21180   0.78842   0.00000  Uiso   1.00
C946   C     0.00456   0.12169   0.87994   0.00000  Uiso   1.00
C947   C     0.21564   0.04694   0.75685   0.00000  Uiso   1.00
C948   C     0.17230   0.24679   0.83376   0.00000  Uiso   1.00
C949   C     0.21265   0.28777   0.92091   0.00000  Uiso   1.00
C950   C     0.19527   0.29225   0.74957   0.00000  Uiso   1.00
C951   C     0.20194   0.04345   0.92328   0.00000  Uiso   1.00
C952   C     0.06727   0.16711   0.82182   0.00000  Uiso   1.00
C953   C     0.26606   0.16568   0.84489   0.00000  Uiso   1.00
C954   C     0.01366   0.17525   0.81791   0.00000  Uiso   1.00
C955   C     0.31973   0.15727   0.84896   0.00000  Uiso   1.00
C956   C     0.19825   0.02306   0.79591   0.00000  Uiso   1.00
C957   C     0.19626   0.31142   0.87776   0.00000  Uiso   1.00
C958   C     0.19235   0.31316   0.79397   0.00000  Uiso   1.00
H959   H     0.23943   0.19802   0.71721   0.00000  Uiso   1.00
H960   H     0.24766   0.08043   0.96716   0.00000  Uiso   1.00
H961   H     0.09467   0.13408   0.94961   0.00000  Uiso   1.00
H962   H     0.23939   0.19820   0.96626   0.00000  Uiso   1.00
H963   H     0.09457   0.13422   0.70057   0.00000  Uiso   1.00
H964   H     0.01077   0.21653   0.75601   0.00000  Uiso   1.00
H965   H     0.32202   0.11757   0.91194   0.00000  Uiso   1.00
H966   H     0.24315   0.07258   0.76390   0.00000  Uiso   1.00
H967   H     0.24244   0.26402   0.92147   0.00000  Uiso   1.00
H968   H     0.24106   0.27375   0.70321   0.00000  Uiso   1.00
N969   N     0.16665   0.16666   0.95240   0.00000  Uiso   1.00
N970   N     0.16668   0.16668   0.71427   0.00000  Uiso   1.00
O971   O     0.16666   0.10558   0.87154   0.00000  Uiso   1.00
O972   O     0.03487   0.09567   0.86900   0.00000  Uiso   1.00
O973   O     0.19826   0.03944   0.71712   0.00000  Uiso   1.00
O974   O     0.19174   0.29329   0.95513   0.00000  Uiso   1.00
O975   O     0.15519   0.28197   0.72520   0.00000  Uiso   1.00
O976   O     0.24381   0.28715   0.73450   0.00000  Uiso   1.00
O977   O     0.16710   0.04269   0.94755   0.00000  Uiso   1.00
O978   O     0.24777   0.06609   0.93658   0.00000  Uiso   1.00
O979   O     0.16667   0.22775   0.79513   0.00000  Uiso   1.00
O980   O     0.16666   0.10559   0.79510   0.00000  Uiso   1.00
O981   O     0.16667   0.22774   0.87157   0.00000  Uiso   1.00
O982   O     0.09058   0.16666   0.86261   0.00000  Uiso   1.00
O983   O     0.24275   0.16667   0.80405   0.00000  Uiso   1.00
O984   O     0.09058   0.16667   0.78617   0.00000  Uiso   1.00
O985   O     0.24275   0.16666   0.88050   0.00000  Uiso   1.00
O986   O     0.30083   0.23818   0.80150   0.00000  Uiso   1.00
Zn987  Zn    0.16667   0.16666   0.88437   0.00000  Uiso   1.00
Zn988  Zn    0.16667   0.16667   0.78229   0.00000  Uiso   1.00
C989   C     0.50739   0.08706   0.83436   0.00000  Uiso   1.00
C990   C     0.52814   0.02148   0.87858   0.00000  Uiso   1.00
C991   C     0.51970   0.29097   0.83490   0.00000  Uiso   1.00
C992   C     0.52294   0.04348   0.83652   0.00000  Uiso   1.00
C993   C     0.54041   0.18418   0.69531   0.00000  Uiso   1.00
C994   C     0.45993   0.14862   0.97142   0.00000  Uiso   1.00
C995   C     0.54037   0.18424   0.98066   0.00000  Uiso   1.00
C996   C     0.45990   0.14867   0.68607   0.00000  Uiso   1.00
C997   C     0.66257   0.21180   0.78842   0.00000  Uiso   1.00
C998   C     0.33789   0.12169   0.87994   0.00000  Uiso   1.00
C999   C     0.54897   0.04694   0.75685   0.00000  Uiso   1.00
C1000  C     0.50564   0.24679   0.83376   0.00000  Uiso   1.00
C1001  C     0.54598   0.28777   0.92091   0.00000  Uiso   1.00
C1002  C     0.52860   0.29225   0.74957   0.00000  Uiso   1.00
C1003  C     0.53527   0.04345   0.92328   0.00000  Uiso   1.00
C1004  C     0.40060   0.16711   0.82182   0.00000  Uiso   1.00
C1005  C     0.59940   0.16568   0.84489   0.00000  Uiso   1.00
C1006  C     0.34699   0.17525   0.81791   0.00000  Uiso   1.00
C1007  C     0.65306   0.15727   0.84896   0.00000  Uiso   1.00
C1008  C     0.53158   0.02306   0.79591   0.00000  Uiso   1.00
C1009  C     0.52960   0.31142   0.87776   0.00000  Uiso   1.00
C1010  C     0.52568   0.31316   0.79397   0.00000  Uiso   1.00
H1011  H     0.57277   0.19802   0.71721   0.00000  Uiso   1.00
H1012  H     0.58099   0.08043   0.96716   0.00000  Uiso   1.00
H1013  H     0.42801   0.13408   0.94961   0.00000  Uiso   1.00
H1014  H     0.57272   0.19820   0.96626   0.00000  Uiso   1.00
H1015  H     0.42790   0.13422   0.70057   0.00000  Uiso   1.00
H1016  H     0.34410   0.21653   0.75601   0.00000  Uiso   1.00
H1017  H     0.65535   0.11757   0.91194   0.00000  Uiso   1.00
H1018  H     0.57648   0.07258   0.76390   0.00000  Uiso   1.00
H1019  H     0.57578   0.26402   0.92147   0.00000  Uiso   1.00
H1020  H     0.57439   0.27375   0.70321   0.00000  Uiso   1.00
N1021  N     0.49999   0.16666   0.95240   0.00000  Uiso   1.00
N1022  N     0.50001   0.16668   0.71427   0.00000  Uiso   1.00
O1023  O     0.50000   0.10558   0.87154   0.00000  Uiso   1.00
O1024  O     0.36820   0.09567   0.86900   0.00000  Uiso   1.00
O1025  O     0.53159   0.03944   0.71712   0.00000  Uiso   1.00
O1026  O     0.52507   0.29329   0.95513   0.00000  Uiso   1.00
O1027  O     0.48852   0.28197   0.72520   0.00000  Uiso   1.00
O1028  O     0.57715   0.28715   0.73450   0.00000  Uiso   1.00
O1029  O     0.50043   0.04269   0.94755   0.00000  Uiso   1.00
O1030  O     0.58110   0.06609   0.93658   0.00000  Uiso   1.00
O1031  O     0.50000   0.22775   0.79513   0.00000  Uiso   1.00
O1032  O     0.50000   0.10559   0.79510   0.00000  Uiso   1.00
O1033  O     0.50000   0.22774   0.87157   0.00000  Uiso   1.00
O1034  O     0.42392   0.16666   0.86261   0.00000  Uiso   1.00
O1035  O     0.57608   0.16667   0.80405   0.00000  Uiso   1.00
O1036  O     0.42392   0.16667   0.78617   0.00000  Uiso   1.00
O1037  O     0.57608   0.16666   0.88050   0.00000  Uiso   1.00
O1038  O     0.63416   0.23818   0.80150   0.00000  Uiso   1.00
Zn1039 Zn    0.50000   0.16666   0.88437   0.00000  Uiso   1.00
Zn1040 Zn    0.50000   0.16667   0.78229   0.00000  Uiso   1.00
C1041  C     0.84073   0.08706   0.83436   0.00000  Uiso   1.00
C1042  C     0.86148   0.02148   0.87858   0.00000  Uiso   1.00
C1043  C     0.85303   0.29097   0.83490   0.00000  Uiso   1.00
C1044  C     0.85627   0.04348   0.83652   0.00000  Uiso   1.00
C1045  C     0.87374   0.18418   0.69531   0.00000  Uiso   1.00
C1046  C     0.79326   0.14862   0.97142   0.00000  Uiso   1.00
C1047  C     0.87370   0.18424   0.98066   0.00000  Uiso   1.00
C1048  C     0.79324   0.14867   0.68607   0.00000  Uiso   1.00
C1049  C     0.99590   0.21180   0.78842   0.00000  Uiso   1.00
C1050  C     0.67122   0.12169   0.87994   0.00000  Uiso   1.00
C1051  C     0.88230   0.04694   0.75685   0.00000  Uiso   1.00
C1052  C     0.83897   0.24679   0.83376   0.00000  Uiso   1.00
C1053  C     0.87932   0.28777   0.92091   0.00000  Uiso   1.00
C1054  C     0.86194   0.29225   0.74957   0.00000  Uiso   1.00
C1055  C     0.86861   0.04345   0.92328   0.00000  Uiso   1.00
C1056  C     0.73394   0.16711   0.82182   0.00000  Uiso   1.00
C1057  C     0.93273   0.16568   0.84489   0.00000  Uiso   1.00
C1058  C     0.68033   0.17525   0.81791   0.00000  Uiso   1.00
C1059  C     0.98640   0.15727   0.84896   0.00000  Uiso   1.00
C1060  C     0.86492   0.02306   0.79591   0.00000  Uiso   1.00
C1061  C     0.86293   0.31142   0.87776   0.00000  Uiso   1.00
C1062  C     0.85902   0.31316   0.79397   0.00000  Uiso   1.00
H1063  H     0.90610   0.19802   0.71721   0.00000  Uiso   1.00
H1064  H     0.91432   0.08043   0.96716   0.00000  Uiso   1.00
H1065  H     0.76134   0.13408   0.94961   0.00000  Uiso   1.00
H1066  H     0.90605   0.19820   0.96626   0.00000  Uiso   1.00
H1067  H     0.76123   0.13422   0.70057   0.00000  Uiso   1.00
H1068  H     0.67744   0.21653   0.75601   0.00000  Uiso   1.00
H1069  H     0.98869   0.11757   0.91194   0.00000  Uiso   1.00
H1070  H     0.90982   0.07258   0.76390   0.00000  Uiso   1.00
H1071  H     0.90911   0.26402   0.92147   0.00000  Uiso   1.00
H1072  H     0.90773   0.27375   0.70321   0.00000  Uiso   1.00
N1073  N     0.83332   0.16666   0.95240   0.00000  Uiso   1.00
N1074  N     0.83335   0.16668   0.71427   0.00000  Uiso   1.00
O1075  O     0.83333   0.10558   0.87154   0.00000  Uiso   1.00
O1076  O     0.70153   0.09567   0.86900   0.00000  Uiso   1.00
O1077  O     0.86493   0.03944   0.71712   0.00000  Uiso   1.00
O1078  O     0.85841   0.29329   0.95513   0.00000  Uiso   1.00
O1079  O     0.82186   0.28197   0.72520   0.00000  Uiso   1.00
O1080  O     0.91048   0.28715   0.73450   0.00000  Uiso   1.00
O1081  O     0.83377   0.04269   0.94755   0.00000  Uiso   1.00
O1082  O     0.91443   0.06609   0.93658   0.00000  Uiso   1.00
O1083  O     0.83334   0.22775   0.79513   0.00000  Uiso   1.00
O1084  O     0.83333   0.10559   0.79510   0.00000  Uiso   1.00
O1085  O     0.83334   0.22774   0.87157   0.00000  Uiso   1.00
O1086  O     0.75725   0.16666   0.86261   0.00000  Uiso   1.00
O1087  O     0.90942   0.16667   0.80405   0.00000  Uiso   1.00
O1088  O     0.75725   0.16667   0.78617   0.00000  Uiso   1.00
O1089  O     0.90942   0.16666   0.88050   0.00000  Uiso   1.00
O1090  O     0.96749   0.23818   0.80150   0.00000  Uiso   1.00
Zn1091 Zn    0.83333   0.16666   0.88437   0.00000  Uiso   1.00
Zn1092 Zn    0.83333   0.16667   0.78229   0.00000  Uiso   1.00
C1093  C     0.17406   0.42039   0.83436   0.00000  Uiso   1.00
C1094  C     0.19481   0.35482   0.87858   0.00000  Uiso   1.00
C1095  C     0.18637   0.62430   0.83490   0.00000  Uiso   1.00
C1096  C     0.18961   0.37681   0.83652   0.00000  Uiso   1.00
C1097  C     0.20708   0.51751   0.69531   0.00000  Uiso   1.00
C1098  C     0.12659   0.48196   0.97142   0.00000  Uiso   1.00
C1099  C     0.20704   0.51757   0.98066   0.00000  Uiso   1.00
C1100  C     0.12657   0.48200   0.68607   0.00000  Uiso   1.00
C1101  C     0.32924   0.54513   0.78842   0.00000  Uiso   1.00
C1102  C     0.00456   0.45502   0.87994   0.00000  Uiso   1.00
C1103  C     0.21564   0.38027   0.75685   0.00000  Uiso   1.00
C1104  C     0.17230   0.58012   0.83376   0.00000  Uiso   1.00
C1105  C     0.21265   0.62111   0.92091   0.00000  Uiso   1.00
C1106  C     0.19527   0.62559   0.74957   0.00000  Uiso   1.00
C1107  C     0.20194   0.37678   0.92328   0.00000  Uiso   1.00
C1108  C     0.06727   0.50044   0.82182   0.00000  Uiso   1.00
C1109  C     0.26606   0.49901   0.84489   0.00000  Uiso   1.00
C1110  C     0.01366   0.50859   0.81791   0.00000  Uiso   1.00
C1111  C     0.31973   0.49060   0.84896   0.00000  Uiso   1.00
C1112  C     0.19825   0.35639   0.79591   0.00000  Uiso   1.00
C1113  C     0.19626   0.64475   0.87776   0.00000  Uiso   1.00
C1114  C     0.19235   0.64649   0.79397   0.00000  Uiso   1.00
H1115  H     0.23943   0.53136   0.71721   0.00000  Uiso   1.00
H1116  H     0.24766   0.41376   0.96716   0.00000  Uiso   1.00
H1117  H     0.09467   0.46741   0.94961   0.00000  Uiso   1.00
H1118  H     0.23939   0.53154   0.96626   0.00000  Uiso   1.00
H1119  H     0.09457   0.46755   0.70057   0.00000  Uiso   1.00
H1120  H     0.01077   0.54986   0.75601   0.00000  Uiso   1.00
H1121  H     0.32202   0.45090   0.91194   0.00000  Uiso   1.00
H1122  H     0.24315   0.40591   0.76390   0.00000  Uiso   1.00
H1123  H     0.24244   0.59735   0.92147   0.00000  Uiso   1.00
H1124  H     0.24106   0.60708   0.70321   0.00000  Uiso   1.00
N1125  N     0.16665   0.49999   0.95240   0.00000  Uiso   1.00
N1126  N     0.16668   0.50001   0.71427   0.00000  Uiso   1.00
O1127  O     0.16666   0.43892   0.87154   0.00000  Uiso   1.00
O1128  O     0.03487   0.42900   0.86900   0.00000  Uiso   1.00
O1129  O     0.19826   0.37278   0.71712   0.00000  Uiso   1.00
O1130  O     0.19174   0.62662   0.95513   0.00000  Uiso   1.00
O1131  O     0.15519   0.61530   0.72520   0.00000  Uiso   1.00
O1132  O     0.24381   0.62048   0.73450   0.00000  Uiso   1.00
O1133  O     0.16710   0.37603   0.94755   0.00000  Uiso   1.00
O1134  O     0.24777   0.39942   0.93658   0.00000  Uiso   1.00
O1135  O     0.16667   0.56108   0.79513   0.00000  Uiso   1.00
O1136  O     0.16666   0.43893   0.79510   0.00000  Uiso   1.00
O1137  O     0.16667   0.56107   0.87157   0.00000  Uiso   1.00
O1138  O     0.09058   0.50000   0.86261   0.00000  Uiso   1.00
O1139  O     0.24275   0.50000   0.80405   0.00000  Uiso   1.00
O1140  O     0.09058   0.50000   0.78617   0.00000  Uiso   1.00
O1141  O     0.24275   0.50000   0.88050   0.00000  Uiso   1.00
O1142  O     0.30083   0.57151   0.80150   0.00000  Uiso   1.00
Zn1143 Zn    0.16667   0.49999   0.88437   0.00000  Uiso   1.00
Zn1144 Zn    0.16667   0.50001   0.78229   0.00000  Uiso   1.00
C1145  C     0.50739   0.42039   0.83436   0.00000  Uiso   1.00
C1146  C     0.52814   0.35482   0.87858   0.00000  Uiso   1.00
C1147  C     0.51970   0.62430   0.83490   0.00000  Uiso   1.00
C1148  C     0.52294   0.37681   0.83652   0.00000  Uiso   1.00
C1149  C     0.54041   0.51751   0.69531   0.00000  Uiso   1.00
C1150  C     0.45993   0.48196   0.97142   0.00000  Uiso   1.00
C1151  C     0.54037   0.51757   0.98066   0.00000  Uiso   1.00
C1152  C     0.45990   0.48200   0.68607   0.00000  Uiso   1.00
C1153  C     0.66257   0.54513   0.78842   0.00000  Uiso   1.00
C1154  C     0.33789   0.45502   0.87994   0.00000  Uiso   1.00
C1155  C     0.54897   0.38027   0.75685   0.00000  Uiso   1.00
C1156  C     0.50564   0.58012   0.83376   0.00000  Uiso   1.00
C1157  C     0.54598   0.62111   0.92091   0.00000  Uiso   1.00
C1158  C     0.52860   0.62559   0.74957   0.00000  Uiso   1.00
C1159  C     0.53527   0.37678   0.92328   0.00000  Uiso   1.00
C1160  C     0.40060   0.50044   0.82182   0.00000  Uiso   1.00
C1161  C     0.59940   0.49901   0.84489   0.00000  Uiso   1.00
C1162  C     0.34699   0.50859   0.81791   0.00000  Uiso   1.00
C1163  C     0.65306   0.49060   0.84896   0.00000  Uiso   1.00
C1164  C     0.53158   0.35639   0.79591   0.00000  Uiso   1.00
C1165  C     0.52960   0.64475   0.87776   0.00000  Uiso   1.00
C1166  C     0.52568   0.64649   0.79397   0.00000  Uiso   1.00
H1167  H     0.57277   0.53136   0.71721   0.00000  Uiso   1.00
H1168  H     0.58099   0.41376   0.96716   0.00000  Uiso   1.00
H1169  H     0.42801   0.46741   0.94961   0.00000  Uiso   1.00
H1170  H     0.57272   0.53154   0.96626   0.00000  Uiso   1.00
H1171  H     0.42790   0.46755   0.70057   0.00000  Uiso   1.00
H1172  H     0.34410   0.54986   0.75601   0.00000  Uiso   1.00
H1173  H     0.65535   0.45090   0.91194   0.00000  Uiso   1.00
H1174  H     0.57648   0.40591   0.76390   0.00000  Uiso   1.00
H1175  H     0.57578   0.59735   0.92147   0.00000  Uiso   1.00
H1176  H     0.57439   0.60708   0.70321   0.00000  Uiso   1.00
N1177  N     0.49999   0.49999   0.95240   0.00000  Uiso   1.00
N1178  N     0.50001   0.50001   0.71427   0.00000  Uiso   1.00
O1179  O     0.50000   0.43892   0.87154   0.00000  Uiso   1.00
O1180  O     0.36820   0.42900   0.86900   0.00000  Uiso   1.00
O1181  O     0.53159   0.37278   0.71712   0.00000  Uiso   1.00
O1182  O     0.52507   0.62662   0.95513   0.00000  Uiso   1.00
O1183  O     0.48852   0.61530   0.72520   0.00000  Uiso   1.00
O1184  O     0.57715   0.62048   0.73450   0.00000  Uiso   1.00
O1185  O     0.50043   0.37603   0.94755   0.00000  Uiso   1.00
O1186  O     0.58110   0.39942   0.93658   0.00000  Uiso   1.00
O1187  O     0.50000   0.56108   0.79513   0.00000  Uiso   1.00
O1188  O     0.50000   0.43893   0.79510   0.00000  Uiso   1.00
O1189  O     0.50000   0.56107   0.87157   0.00000  Uiso   1.00
O1190  O     0.42392   0.50000   0.86261   0.00000  Uiso   1.00
O1191  O     0.57608   0.50000   0.80405   0.00000  Uiso   1.00
O1192  O     0.42392   0.50000   0.78617   0.00000  Uiso   1.00
O1193  O     0.57608   0.50000   0.88050   0.00000  Uiso   1.00
O1194  O     0.63416   0.57151   0.80150   0.00000  Uiso   1.00
Zn1195 Zn    0.50000   0.49999   0.88437   0.00000  Uiso   1.00
Zn1196 Zn    0.50000   0.50001   0.78229   0.00000  Uiso   1.00
C1197  C     0.84073   0.42039   0.83436   0.00000  Uiso   1.00
C1198  C     0.86148   0.35482   0.87858   0.00000  Uiso   1.00
C1199  C     0.85303   0.62430   0.83490   0.00000  Uiso   1.00
C1200  C     0.85627   0.37681   0.83652   0.00000  Uiso   1.00
C1201  C     0.87374   0.51751   0.69531   0.00000  Uiso   1.00
C1202  C     0.79326   0.48196   0.97142   0.00000  Uiso   1.00
C1203  C     0.87370   0.51757   0.98066   0.00000  Uiso   1.00
C1204  C     0.79324   0.48200   0.68607   0.00000  Uiso   1.00
C1205  C     0.99590   0.54513   0.78842   0.00000  Uiso   1.00
C1206  C     0.67122   0.45502   0.87994   0.00000  Uiso   1.00
C1207  C     0.88230   0.38027   0.75685   0.00000  Uiso   1.00
C1208  C     0.83897   0.58012   0.83376   0.00000  Uiso   1.00
C1209  C     0.87932   0.62111   0.92091   0.00000  Uiso   1.00
C1210  C     0.86194   0.62559   0.74957   0.00000  Uiso   1.00
C1211  C     0.86861   0.37678   0.92328   0.00000  Uiso   1.00
C1212  C     0.73394   0.50044   0.82182   0.00000  Uiso   1.00
C1213  C     0.93273   0.49901   0.84489   0.00000  Uiso   1.00
C1214  C     0.68033   0.50859   0.81791   0.00000  Uiso   1.00
C1215  C     0.98640   0.49060   0.84896   0.00000  Uiso   1.00
C1216  C     0.86492   0.35639   0.79591   0.00000  Uiso   1.00
C1217  C     0.86293   0.64475   0.87776   0.00000  Uiso   1.00
C1218  C     0.85902   0.64649   0.79397   0.00000  Uiso   1.00
H1219  H     0.90610   0.53136   0.71721   0.00000  Uiso   1.00
H1220  H     0.91432   0.41376   0.96716   0.00000  Uiso   1.00
H1221  H     0.76134   0.46741   0.94961   0.00000  Uiso   1.00
H1222  H     0.90605   0.53154   0.96626   0.00000  Uiso   1.00
H1223  H     0.76123   0.46755   0.70057   0.00000  Uiso   1.00
H1224  H     0.67744   0.54986   0.75601   0.00000  Uiso   1.00
H1225  H     0.98869   0.45090   0.91194   0.00000  Uiso   1.00
H1226  H     0.90982   0.40591   0.76390   0.00000  Uiso   1.00
H1227  H     0.90911   0.59735   0.92147   0.00000  Uiso   1.00
H1228  H     0.90773   0.60708   0.70321   0.00000  Uiso   1.00
N1229  N     0.83332   0.49999   0.95240   0.00000  Uiso   1.00
N1230  N     0.83335   0.50001   0.71427   0.00000  Uiso   1.00
O1231  O     0.83333   0.43892   0.87154   0.00000  Uiso   1.00
O1232  O     0.70153   0.42900   0.86900   0.00000  Uiso   1.00
O1233  O     0.86493   0.37278   0.71712   0.00000  Uiso   1.00
O1234  O     0.85841   0.62662   0.95513   0.00000  Uiso   1.00
O1235  O     0.82186   0.61530   0.72520   0.00000  Uiso   1.00
O1236  O     0.91048   0.62048   0.73450   0.00000  Uiso   1.00
O1237  O     0.83377   0.37603   0.94755   0.00000  Uiso   1.00
O1238  O     0.91443   0.39942   0.93658   0.00000  Uiso   1.00
O1239  O     0.83334   0.56108   0.79513   0.00000  Uiso   1.00
O1240  O     0.83333   0.43893   0.79510   0.00000  Uiso   1.00
O1241  O     0.83334   0.56107   0.87157   0.00000  Uiso   1.00
O1242  O     0.75725   0.50000   0.86261   0.00000  Uiso   1.00
O1243  O     0.90942   0.50000   0.80405   0.00000  Uiso   1.00
O1244  O     0.75725   0.50000   0.78617   0.00000  Uiso   1.00
O1245  O     0.90942   0.50000   0.88050   0.00000  Uiso   1.00
O1246  O     0.96749   0.57151   0.80150   0.00000  Uiso   1.00
Zn1247 Zn    0.83333   0.49999   0.88437   0.00000  Uiso   1.00
Zn1248 Zn    0.83333   0.50001   0.78229   0.00000  Uiso   1.00
C1249  C     0.17406   0.75372   0.83436   0.00000  Uiso   1.00
C1250  C     0.19481   0.68815   0.87858   0.00000  Uiso   1.00
C1251  C     0.18637   0.95764   0.83490   0.00000  Uiso   1.00
C1252  C     0.18961   0.71015   0.83652   0.00000  Uiso   1.00
C1253  C     0.20708   0.85085   0.69531   0.00000  Uiso   1.00
C1254  C     0.12659   0.81529   0.97142   0.00000  Uiso   1.00
C1255  C     0.20704   0.85091   0.98066   0.00000  Uiso   1.00
C1256  C     0.12657   0.81534   0.68607   0.00000  Uiso   1.00
C1257  C     0.32924   0.87847   0.78842   0.00000  Uiso   1.00
C1258  C     0.00456   0.78835   0.87994   0.00000  Uiso   1.00
C1259  C     0.21564   0.71360   0.75685   0.00000  Uiso   1.00
C1260  C     0.17230   0.91345   0.83376   0.00000  Uiso   1.00
C1261  C     0.21265   0.95444   0.92091   0.00000  Uiso   1.00
C1262  C     0.19527   0.95892   0.74957   0.00000  Uiso   1.00
C1263  C     0.20194   0.71012   0.92328   0.00000  Uiso   1.00
C1264  C     0.06727   0.83378   0.82182   0.00000  Uiso   1.00
C1265  C     0.26606   0.83235   0.84489   0.00000  Uiso   1.00
C1266  C     0.01366   0.84192   0.81791   0.00000  Uiso   1.00
C1267  C     0.31973   0.82394   0.84896   0.00000  Uiso   1.00
C1268  C     0.19825   0.68973   0.79591   0.00000  Uiso   1.00
C1269  C     0.19626   0.97808   0.87776   0.00000  Uiso   1.00
C1270  C     0.19235   0.97982   0.79397   0.00000  Uiso   1.00
H1271  H     0.23943   0.86469   0.71721   0.00000  Uiso   1.00
H1272  H     0.24766   0.74710   0.96716   0.00000  Uiso   1.00
H1273  H     0.09467   0.80074   0.94961   0.00000  Uiso   1.00
H1274  H     0.23939   0.86487   0.96626   0.00000  Uiso   1.00
H1275  H     0.09457   0.80088   0.70057   0.00000  Uiso   1.00
H1276  H     0.01077   0.88320   0.75601   0.00000  Uiso   1.00
H1277  H     0.32202   0.78424   0.91194   0.00000  Uiso   1.00
H1278  H     0.24315   0.73924   0.76390   0.00000  Uiso   1.00
H1279  H     0.24244   0.93068   0.92147   0.00000  Uiso   1.00
H1280  H     0.24106   0.94042   0.70321   0.00000  Uiso   1.00
N1281  N     0.16665   0.83332   0.95240   0.00000  Uiso   1.00
N1282  N     0.16668   0.83334   0.71427   0.00000  Uiso   1.00
O1283  O     0.16666   0.77225   0.87154   0.00000  Uiso   1.00
O1284  O     0.03487   0.76234   0.86900   0.00000  Uiso   1.00
O1285  O     0.19826   0.70611   0.71712   0.00000  Uiso   1.00
O1286  O     0.19174   0.95995   0.95513   0.00000  Uiso   1.00
O1287  O     0.15519   0.94863   0.72520   0.00000  Uiso   1.00
O1288  O     0.24381   0.95381   0.73450   0.00000  Uiso   1.00
O1289  O     0.16710   0.70936   0.94755   0.00000  Uiso   1.00
O1290  O     0.24777   0.73276   0.93658   0.00000  Uiso   1.00
O1291  O     0.16667   0.89442   0.79513   0.00000  Uiso   1.00
O1292  O     0.16666   0.77226   0.79510   0.00000  Uiso   1.00
O1293  O     0.16667   0.89441   0.87157   0.00000  Uiso   1.00
O1294  O     0.09058   0.83333   0.86261   0.00000  Uiso   1.00
O1295  O     0.24275   0.83334   0.80405   0.00000  Uiso   1.00
O1296  O     0.09058   0.83334   0.78617   0.00000  Uiso   1.00
O1297  O     0.24275   0.83333   0.88050   0.00000  Uiso   1.00
O1298  O     0.30083   0.90485   0.80150   0.00000  Uiso   1.00
Zn1299 Zn    0.16667   0.83333   0.88437   0.00000  Uiso   1.00
Zn1300 Zn    0.16667   0.83334   0.78229   0.00000  Uiso   1.00
C1301  C     0.50739   0.75372   0.83436   0.00000  Uiso   1.00
C1302  C     0.52814   0.68815   0.87858   0.00000  Uiso   1.00
C1303  C     0.51970   0.95764   0.83490   0.00000  Uiso   1.00
C1304  C     0.52294   0.71015   0.83652   0.00000  Uiso   1.00
C1305  C     0.54041   0.85085   0.69531   0.00000  Uiso   1.00
C1306  C     0.45993   0.81529   0.97142   0.00000  Uiso   1.00
C1307  C     0.54037   0.85091   0.98066   0.00000  Uiso   1.00
C1308  C     0.45990   0.81534   0.68607   0.00000  Uiso   1.00
C1309  C     0.66257   0.87847   0.78842   0.00000  Uiso   1.00
C1310  C     0.33789   0.78835   0.87994   0.00000  Uiso   1.00
C1311  C     0.54897   0.71360   0.75685   0.00000  Uiso   1.00
C1312  C     0.50564   0.91345   0.83376   0.00000  Uiso   1.00
C1313  C     0.54598   0.95444   0.92091   0.00000  Uiso   1.00
C1314  C     0.52860   0.95892   0.74957   0.00000  Uiso   1.00
C1315  C     0.53527   0.71012   0.92328   0.00000  Uiso   1.00
C1316  C     0.40060   0.83378   0.82182   0.00000  Uiso   1.00
C1317  C     0.59940   0.83235   0.84489   0.00000  Uiso   1.00
C1318  C     0.34699   0.84192   0.81791   0.00000  Uiso   1.00
C1319  C     0.65306   0.82394   0.84896   0.00000  Uiso   1.00
C1320  C     0.53158   0.68973   0.79591   0.00000  Uiso   1.00
C1321  C     0.52960   0.97808   0.87776   0.00000  Uiso   1.00
C1322  C     0.52568   0.97982   0.79397   0.00000  Uiso   1.00
H1323  H     0.57277   0.86469   0.71721   0.00000  Uiso   1.00
H1324  H     0.58099   0.74710   0.96716   0.00000  Uiso   1.00
H1325  H     0.42801   0.80074   0.94961   0.00000  Uiso   1.00
H1326  H     0.57272   0.86487   0.96626   0.00000  Uiso   1.00
H1327  H     0.42790   0.80088   0.70057   0.00000  Uiso   1.00
H1328  H     0.34410   0.88320   0.75601   0.00000  Uiso   1.00
H1329  H     0.65535   0.78424   0.91194   0.00000  Uiso   1.00
H1330  H     0.57648   0.73924   0.76390   0.00000  Uiso   1.00
H1331  H     0.57578   0.93068   0.92147   0.00000  Uiso   1.00
H1332  H     0.57439   0.94042   0.70321   0.00000  Uiso   1.00
N1333  N     0.49999   0.83332   0.95240   0.00000  Uiso   1.00
N1334  N     0.50001   0.83334   0.71427   0.00000  Uiso   1.00
O1335  O     0.50000   0.77225   0.87154   0.00000  Uiso   1.00
O1336  O     0.36820   0.76234   0.86900   0.00000  Uiso   1.00
O1337  O     0.53159   0.70611   0.71712   0.00000  Uiso   1.00
O1338  O     0.52507   0.95995   0.95513   0.00000  Uiso   1.00
O1339  O     0.48852   0.94863   0.72520   0.00000  Uiso   1.00
O1340  O     0.57715   0.95381   0.73450   0.00000  Uiso   1.00
O1341  O     0.50043   0.70936   0.94755   0.00000  Uiso   1.00
O1342  O     0.58110   0.73276   0.93658   0.00000  Uiso   1.00
O1343  O     0.50000   0.89442   0.79513   0.00000  Uiso   1.00
O1344  O     0.50000   0.77226   0.79510   0.00000  Uiso   1.00
O1345  O     0.50000   0.89441   0.87157   0.00000  Uiso   1.00
O1346  O     0.42392   0.83333   0.86261   0.00000  Uiso   1.00
O1347  O     0.57608   0.83334   0.80405   0.00000  Uiso   1.00
O1348  O     0.42392   0.83334   0.78617   0.00000  Uiso   1.00
O1349  O     0.57608   0.83333   0.88050   0.00000  Uiso   1.00
O1350  O     0.63416   0.90485   0.80150   0.00000  Uiso   1.00
Zn1351 Zn    0.50000   0.83333   0.88437   0.00000  Uiso   1.00
Zn1352 Zn    0.50000   0.83334   0.78229   0.00000  Uiso   1.00
C1353  C     0.84073   0.75372   0.83436   0.00000  Uiso   1.00
C1354  C     0.86148   0.68815   0.87858   0.00000  Uiso   1.00
C1355  C     0.85303   0.95764   0.83490   0.00000  Uiso   1.00
C1356  C     0.85627   0.71015   0.83652   0.00000  Uiso   1.00
C1357  C     0.87374   0.85085   0.69531   0.00000  Uiso   1.00
C1358  C     0.79326   0.81529   0.97142   0.00000  Uiso   1.00
C1359  C     0.87370   0.85091   0.98066   0.00000  Uiso   1.00
C1360  C     0.79324   0.81534   0.68607   0.00000  Uiso   1.00
C1361  C     0.99590   0.87847   0.78842   0.00000  Uiso   1.00
C1362  C     0.67122   0.78835   0.87994   0.00000  Uiso   1.00
C1363  C     0.88230   0.71360   0.75685   0.00000  Uiso   1.00
C1364  C     0.83897   0.91345   0.83376   0.00000  Uiso   1.00
C1365  C     0.87932   0.95444   0.92091   0.00000  Uiso   1.00
C1366  C     0.86194   0.95892   0.74957   0.00000  Uiso   1.00
C1367  C     0.86861   0.71012   0.92328   0.00000  Uiso   1.00
C1368  C     0.73394   0.83378   0.82182   0.00000  Uiso   1.00
C1369  C     0.93273   0.83235   0.84489   0.00000  Uiso   1.00
C1370  C     0.68033   0.84192   0.81791   0.00000  Uiso   1.00
C1371  C     0.98640   0.82394   0.84896   0.00000  Uiso   1.00
C1372  C     0.86492   0.68973   0.79591   0.00000  Uiso   1.00
C1373  C     0.86293   0.97808   0.87776   0.00000  Uiso   1.00
C1374  C     0.85902   0.97982   0.79397   0.00000  Uiso   1.00
H1375  H     0.90610   0.86469   0.71721   0.00000  Uiso   1.00
H1376  H     0.91432   0.74710   0.96716   0.00000  Uiso   1.00
H1377  H     0.76134   0.80074   0.94961   0.00000  Uiso   1.00
H1378  H     0.90605   0.86487   0.96626   0.00000  Uiso   1.00
H1379  H     0.76123   0.80088   0.70057   0.00000  Uiso   1.00
H1380  H     0.67744   0.88320   0.75601   0.00000  Uiso   1.00
H1381  H     0.98869   0.78424   0.91194   0.00000  Uiso   1.00
H1382  H     0.90982   0.73924   0.76390   0.00000  Uiso   1.00
H1383  H     0.90911   0.93068   0.92147   0.00000  Uiso   1.00
H1384  H     0.90773   0.94042   0.70321   0.00000  Uiso   1.00
N1385  N     0.83332   0.83332   0.95240   0.00000  Uiso   1.00
N1386  N     0.83335   0.83334   0.71427   0.00000  Uiso   1.00
O1387  O     0.83333   0.77225   0.87154   0.00000  Uiso   1.00
O1388  O     0.70153   0.76234   0.86900   0.00000  Uiso   1.00
O1389  O     0.86493   0.70611   0.71712   0.00000  Uiso   1.00
O1390  O     0.85841   0.95995   0.95513   0.00000  Uiso   1.00
O1391  O     0.82186   0.94863   0.72520   0.00000  Uiso   1.00
O1392  O     0.91048   0.95381   0.73450   0.00000  Uiso   1.00
O1393  O     0.83377   0.70936   0.94755   0.00000  Uiso   1.00
O1394  O     0.91443   0.73276   0.93658   0.00000  Uiso   1.00
O1395  O     0.83334   0.89442   0.79513   0.00000  Uiso   1.00
O1396  O     0.83333   0.77226   0.79510   0.00000  Uiso   1.00
O1397  O     0.83334   0.89441   0.87157   0.00000  Uiso   1.00
O1398  O     0.75725   0.83333   0.86261   0.00000  Uiso   1.00
O1399  O     0.90942   0.83334   0.80405   0.00000  Uiso   1.00
O1400  O     0.75725   0.83334   0.78617   0.00000  Uiso   1.00
O1401  O     0.90942   0.83333   0.88050   0.00000  Uiso   1.00
O1402  O     0.96749   0.90485   0.80150   0.00000  Uiso   1.00
Zn1403 Zn    0.83333   0.83333   0.88437   0.00000  Uiso   1.00
Zn1404 Zn    0.83333   0.83334   0.78229   0.00000  Uiso   1.00
loop_
_geom_bond_atom_site_label_1
_geom_bond_atom_site_label_2
_geom_bond_distance
_geom_bond_site_symmetry_2
_ccdc_geom_bond_type
C1     O44     1.290   .     A
C1     C4      1.455   .     S
C1     O35     1.286   .     A
C2     C4      1.414   .     A
C2     C15     1.486   .     S
C2     C333    1.393   1_545 S
C3     C21     1.417   .     A
C3     C22     1.423   .     A
C3     C12     1.460   .     S
C4     C20     1.411   .     A
C5     H23     1.080   .     S
C5     N34     1.365   .     A
C5     C943    1.413   1_554 S
C6     N33     1.366   .     A
C6     H25     1.080   .     S
C6     C476    1.414   .     S
C7     N33     1.366   .     A
C7     H26     1.081   .     S
C7     C473    1.413   .     S
C8     N34     1.366   .     A
C8     H27     1.081   .     S
C8     C942    1.414   1_554 S
C9     O50     1.221   .     D
C9     C70     1.493   .     S
C9     H80     1.086   .     S
C10    O36     1.222   .     D
C10    C123    1.495   1_455 S
C10    H133    1.085   1_455 S
C11    C20     1.496   .     S
C11    O37     1.221   .     D
C11    H30     1.086   .     S
C12    O43     1.285   .     A
C12    O45     1.292   .     A
C13    C21     1.490   .     S
C13    O38     1.220   .     D
C13    H31     1.085   .     S
C14    C22     1.484   .     S
C14    O40     1.397   .     S
C14    O39     1.223   .     D
C15    O42     1.397   .     S
C15    O41     1.223   .     D
C16    O48     1.279   .     A
C16    C18     1.401   .     S
C16    O46     1.270   .     A
C17    C19     1.404   .     S
C17    O49     1.279   .     A
C17    O47     1.272   .     A
C18    C113    1.493   1_455 S
C18    C123    1.352   1_455 S
C19    C62     1.495   .     S
C19    C70     1.352   .     S
C20    C334    1.394   1_545 S
C21    C158    1.393   .     S
C22    C176    1.394   .     S
H24    O42     1.014   .     S
H28    C113    1.086   1_455 S
H29    C62     1.085   .     S
H32    O40     1.012   .     S
N33    Zn51    2.004   .     S
N34    Zn52    2.004   .     S
O35    Zn51    1.996   .     S
O43    Zn52    1.996   .     S
O44    Zn52    1.993   .     S
O45    Zn51    1.993   .     S
O46    Zn51    1.985   .     S
O47    Zn52    1.985   .     S
O48    Zn52    1.985   .     S
O49    Zn51    1.985   .     S
C53    O96     1.290   .     A
C53    C56     1.455   .     S
C53    O87     1.286   .     A
C54    C56     1.414   .     A
C54    C67     1.486   .     S
C54    C385    1.393   1_545 S
C55    C73     1.417   .     A
C55    C74     1.423   .     A
C55    C64     1.460   .     S
C56    C72     1.411   .     A
C57    H75     1.080   .     S
C57    N86     1.365   .     A
C57    C995    1.413   1_554 S
C58    N85     1.366   .     A
C58    H77     1.080   .     S
C58    C528    1.414   .     S
C59    N85     1.366   .     A
C59    H78     1.081   .     S
C59    C525    1.413   .     S
C60    N86     1.366   .     A
C60    H79     1.081   .     S
C60    C994    1.414   1_554 S
C61    O102    1.221   .     D
C61    C122    1.493   .     S
C61    H132    1.086   .     S
C62    O88     1.222   .     D
C63    C72     1.496   .     S
C63    O89     1.221   .     D
C63    H82     1.086   .     S
C64    O95     1.285   .     A
C64    O97     1.292   .     A
C65    C73     1.490   .     S
C65    O90     1.220   .     D
C65    H83     1.085   .     S
C66    C74     1.484   .     S
C66    O92     1.397   .     S
C66    O91     1.223   .     D
C67    O94     1.397   .     S
C67    O93     1.223   .     D
C68    O100    1.279   .     A
C68    C70     1.401   .     S
C68    O98     1.270   .     A
C69    C71     1.404   .     S
C69    O101    1.279   .     A
C69    O99     1.272   .     A
C71    C114    1.495   .     S
C71    C122    1.352   .     S
C72    C386    1.394   1_545 S
C73    C210    1.393   .     S
C74    C228    1.394   .     S
H76    O94     1.014   .     S
H81    C114    1.085   .     S
H84    O92     1.012   .     S
N85    Zn103   2.004   .     S
N86    Zn104   2.004   .     S
O87    Zn103   1.996   .     S
O95    Zn104   1.996   .     S
O96    Zn104   1.993   .     S
O97    Zn103   1.993   .     S
O98    Zn103   1.985   .     S
O99    Zn104   1.985   .     S
O100   Zn104   1.985   .     S
O101   Zn103   1.985   .     S
C105   O148    1.290   .     A
C105   C108    1.455   .     S
C105   O139    1.286   .     A
C106   C108    1.414   .     A
C106   C119    1.486   .     S
C106   C437    1.393   1_545 S
C107   C125    1.417   .     A
C107   C126    1.423   .     A
C107   C116    1.460   .     S
C108   C124    1.411   .     A
C109   H127    1.080   .     S
C109   N138    1.365   .     A
C109   C1047   1.413   1_554 S
C110   N137    1.366   .     A
C110   H129    1.080   .     S
C110   C580    1.414   .     S
C111   N137    1.366   .     A
C111   H130    1.081   .     S
C111   C577    1.413   .     S
C112   N138    1.366   .     A
C112   H131    1.081   .     S
C112   C1046   1.414   1_554 S
C113   O154    1.221   .     D
C113   C18     1.493   1_655 S
C113   H28     1.086   1_655 S
C114   O140    1.222   .     D
C115   C124    1.496   .     S
C115   O141    1.221   .     D
C115   H134    1.086   .     S
C116   O147    1.285   .     A
C116   O149    1.292   .     A
C117   C125    1.490   .     S
C117   O142    1.220   .     D
C117   H135    1.085   .     S
C118   C126    1.484   .     S
C118   O144    1.397   .     S
C118   O143    1.223   .     D
C119   O146    1.397   .     S
C119   O145    1.223   .     D
C120   O152    1.279   .     A
C120   C122    1.401   .     S
C120   O150    1.270   .     A
C121   C123    1.404   .     S
C121   O153    1.279   .     A
C121   O151    1.272   .     A
C123   C10     1.495   1_655 S
C123   C18     1.352   1_655 S
C124   C438    1.394   1_545 S
C125   C262    1.393   .     S
C126   C280    1.394   .     S
H128   O146    1.014   .     S
H133   C10     1.085   1_655 S
H136   O144    1.012   .     S
N137   Zn155   2.004   .     S
N138   Zn156   2.004   .     S
O139   Zn155   1.996   .     S
O147   Zn156   1.996   .     S
O148   Zn156   1.993   .     S
O149   Zn155   1.993   .     S
O150   Zn155   1.985   .     S
O151   Zn156   1.985   .     S
O152   Zn156   1.985   .     S
O153   Zn155   1.985   .     S
C157   O200    1.290   .     A
C157   C160    1.455   .     S
C157   O191    1.286   .     A
C158   C160    1.414   .     A
C158   C171    1.486   .     S
C159   C177    1.417   .     A
C159   C178    1.423   .     A
C159   C168    1.460   .     S
C160   C176    1.411   .     A
C161   H179    1.080   .     S
C161   N190    1.365   .     A
C161   C1099   1.413   1_554 S
C162   N189    1.366   .     A
C162   H181    1.080   .     S
C162   C632    1.414   .     S
C163   N189    1.366   .     A
C163   H182    1.081   .     S
C163   C629    1.413   .     S
C164   N190    1.366   .     A
C164   H183    1.081   .     S
C164   C1098   1.414   1_554 S
C165   O206    1.221   .     D
C165   C226    1.493   .     S
C165   H236    1.086   .     S
C166   O192    1.222   .     D
C166   C279    1.495   1_455 S
C166   H289    1.085   1_455 S
C167   C176    1.496   .     S
C167   O193    1.221   .     D
C167   H186    1.086   .     S
C168   O199    1.285   .     A
C168   O201    1.292   .     A
C169   C177    1.490   .     S
C169   O194    1.220   .     D
C169   H187    1.085   .     S
C170   C178    1.484   .     S
C170   O196    1.397   .     S
C170   O195    1.223   .     D
C171   O198    1.397   .     S
C171   O197    1.223   .     D
C172   O204    1.279   .     A
C172   C174    1.401   .     S
C172   O202    1.270   .     A
C173   C175    1.404   .     S
C173   O205    1.279   .     A
C173   O203    1.272   .     A
C174   C269    1.493   1_455 S
C174   C279    1.352   1_455 S
C175   C218    1.495   .     S
C175   C226    1.352   .     S
C177   C314    1.393   .     S
C178   C332    1.394   .     S
H180   O198    1.014   .     S
H184   C269    1.086   1_455 S
H185   C218    1.085   .     S
H188   O196    1.012   .     S
N189   Zn207   2.004   .     S
N190   Zn208   2.004   .     S
O191   Zn207   1.996   .     S
O199   Zn208   1.996   .     S
O200   Zn208   1.993   .     S
O201   Zn207   1.993   .     S
O202   Zn207   1.985   .     S
O203   Zn208   1.985   .     S
O204   Zn208   1.985   .     S
O205   Zn207   1.985   .     S
C209   O252    1.290   .     A
C209   C212    1.455   .     S
C209   O243    1.286   .     A
C210   C212    1.414   .     A
C210   C223    1.486   .     S
C211   C229    1.417   .     A
C211   C230    1.423   .     A
C211   C220    1.460   .     S
C212   C228    1.411   .     A
C213   H231    1.080   .     S
C213   N242    1.365   .     A
C213   C1151   1.413   1_554 S
C214   N241    1.366   .     A
C214   H233    1.080   .     S
C214   C684    1.414   .     S
C215   N241    1.366   .     A
C215   H234    1.081   .     S
C215   C681    1.413   .     S
C216   N242    1.366   .     A
C216   H235    1.081   .     S
C216   C1150   1.414   1_554 S
C217   O258    1.221   .     D
C217   C278    1.493   .     S
C217   H288    1.086   .     S
C218   O244    1.222   .     D
C219   C228    1.496   .     S
C219   O245    1.221   .     D
C219   H238    1.086   .     S
C220   O251    1.285   .     A
C220   O253    1.292   .     A
C221   C229    1.490   .     S
C221   O246    1.220   .     D
C221   H239    1.085   .     S
C222   C230    1.484   .     S
C222   O248    1.397   .     S
C222   O247    1.223   .     D
C223   O250    1.397   .     S
C223   O249    1.223   .     D
C224   O256    1.279   .     A
C224   C226    1.401   .     S
C224   O254    1.270   .     A
C225   C227    1.404   .     S
C225   O257    1.279   .     A
C225   O255    1.272   .     A
C227   C270    1.495   .     S
C227   C278    1.352   .     S
C229   C366    1.393   .     S
C230   C384    1.394   .     S
H232   O250    1.014   .     S
H237   C270    1.085   .     S
H240   O248    1.012   .     S
N241   Zn259   2.004   .     S
N242   Zn260   2.004   .     S
O243   Zn259   1.996   .     S
O251   Zn260   1.996   .     S
O252   Zn260   1.993   .     S
O253   Zn259   1.993   .     S
O254   Zn259   1.985   .     S
O255   Zn260   1.985   .     S
O256   Zn260   1.985   .     S
O257   Zn259   1.985   .     S
C261   O304    1.290   .     A
C261   C264    1.455   .     S
C261   O295    1.286   .     A
C262   C264    1.414   .     A
C262   C275    1.486   .     S
C263   C281    1.417   .     A
C263   C282    1.423   .     A
C263   C272    1.460   .     S
C264   C280    1.411   .     A
C265   H283    1.080   .     S
C265   N294    1.365   .     A
C265   C1203   1.413   1_554 S
C266   N293    1.366   .     A
C266   H285    1.080   .     S
C266   C736    1.414   .     S
C267   N293    1.366   .     A
C267   H286    1.081   .     S
C267   C733    1.413   .     S
C268   N294    1.366   .     A
C268   H287    1.081   .     S
C268   C1202   1.414   1_554 S
C269   O310    1.221   .     D
C269   C174    1.493   1_655 S
C269   H184    1.086   1_655 S
C270   O296    1.222   .     D
C271   C280    1.496   .     S
C271   O297    1.221   .     D
C271   H290    1.086   .     S
C272   O303    1.285   .     A
C272   O305    1.292   .     A
C273   C281    1.490   .     S
C273   O298    1.220   .     D
C273   H291    1.085   .     S
C274   C282    1.484   .     S
C274   O300    1.397   .     S
C274   O299    1.223   .     D
C275   O302    1.397   .     S
C275   O301    1.223   .     D
C276   O308    1.279   .     A
C276   C278    1.401   .     S
C276   O306    1.270   .     A
C277   C279    1.404   .     S
C277   O309    1.279   .     A
C277   O307    1.272   .     A
C279   C166    1.495   1_655 S
C279   C174    1.352   1_655 S
C281   C418    1.393   .     S
C282   C436    1.394   .     S
H284   O302    1.014   .     S
H289   C166    1.085   1_655 S
H292   O300    1.012   .     S
N293   Zn311   2.004   .     S
N294   Zn312   2.004   .     S
O295   Zn311   1.996   .     S
O303   Zn312   1.996   .     S
O304   Zn312   1.993   .     S
O305   Zn311   1.993   .     S
O306   Zn311   1.985   .     S
O307   Zn312   1.985   .     S
O308   Zn312   1.985   .     S
O309   Zn311   1.985   .     S
C313   O356    1.290   .     A
C313   C316    1.455   .     S
C313   O347    1.286   .     A
C314   C316    1.414   .     A
C314   C327    1.486   .     S
C315   C333    1.417   .     A
C315   C334    1.423   .     A
C315   C324    1.460   .     S
C316   C332    1.411   .     A
C317   H335    1.080   .     S
C317   N346    1.365   .     A
C317   C1255   1.413   1_554 S
C318   N345    1.366   .     A
C318   H337    1.080   .     S
C318   C788    1.414   .     S
C319   N345    1.366   .     A
C319   H338    1.081   .     S
C319   C785    1.413   .     S
C320   N346    1.366   .     A
C320   H339    1.081   .     S
C320   C1254   1.414   1_554 S
C321   O362    1.221   .     D
C321   C382    1.493   .     S
C321   H392    1.086   .     S
C322   O348    1.222   .     D
C322   C435    1.495   1_455 S
C322   H445    1.085   1_455 S
C323   C332    1.496   .     S
C323   O349    1.221   .     D
C323   H342    1.086   .     S
C324   O355    1.285   .     A
C324   O357    1.292   .     A
C325   C333    1.490   .     S
C325   O350    1.220   .     D
C325   H343    1.085   .     S
C326   C334    1.484   .     S
C326   O352    1.397   .     S
C326   O351    1.223   .     D
C327   O354    1.397   .     S
C327   O353    1.223   .     D
C328   O360    1.279   .     A
C328   C330    1.401   .     S
C328   O358    1.270   .     A
C329   C331    1.404   .     S
C329   O361    1.279   .     A
C329   O359    1.272   .     A
C330   C425    1.493   1_455 S
C330   C435    1.352   1_455 S
C331   C374    1.495   .     S
C331   C382    1.352   .     S
C333   C2      1.393   1_565 S
C334   C20     1.394   1_565 S
H336   O354    1.014   .     S
H340   C425    1.086   1_455 S
H341   C374    1.085   .     S
H344   O352    1.012   .     S
N345   Zn363   2.004   .     S
N346   Zn364   2.004   .     S
O347   Zn363   1.996   .     S
O355   Zn364   1.996   .     S
O356   Zn364   1.993   .     S
O357   Zn363   1.993   .     S
O358   Zn363   1.985   .     S
O359   Zn364   1.985   .     S
O360   Zn364   1.985   .     S
O361   Zn363   1.985   .     S
C365   O408    1.290   .     A
C365   C368    1.455   .     S
C365   O399    1.286   .     A
C366   C368    1.414   .     A
C366   C379    1.486   .     S
C367   C385    1.417   .     A
C367   C386    1.423   .     A
C367   C376    1.460   .     S
C368   C384    1.411   .     A
C369   H387    1.080   .     S
C369   N398    1.365   .     A
C369   C1307   1.413   1_554 S
C370   N397    1.366   .     A
C370   H389    1.080   .     S
C370   C840    1.414   .     S
C371   N397    1.366   .     A
C371   H390    1.081   .     S
C371   C837    1.413   .     S
C372   N398    1.366   .     A
C372   H391    1.081   .     S
C372   C1306   1.414   1_554 S
C373   O414    1.221   .     D
C373   C434    1.493   .     S
C373   H444    1.086   .     S
C374   O400    1.222   .     D
C375   C384    1.496   .     S
C375   O401    1.221   .     D
C375   H394    1.086   .     S
C376   O407    1.285   .     A
C376   O409    1.292   .     A
C377   C385    1.490   .     S
C377   O402    1.220   .     D
C377   H395    1.085   .     S
C378   C386    1.484   .     S
C378   O404    1.397   .     S
C378   O403    1.223   .     D
C379   O406    1.397   .     S
C379   O405    1.223   .     D
C380   O412    1.279   .     A
C380   C382    1.401   .     S
C380   O410    1.270   .     A
C381   C383    1.404   .     S
C381   O413    1.279   .     A
C381   O411    1.272   .     A
C383   C426    1.495   .     S
C383   C434    1.352   .     S
C385   C54     1.393   1_565 S
C386   C72     1.394   1_565 S
H388   O406    1.014   .     S
H393   C426    1.085   .     S
H396   O404    1.012   .     S
N397   Zn415   2.004   .     S
N398   Zn416   2.004   .     S
O399   Zn415   1.996   .     S
O407   Zn416   1.996   .     S
O408   Zn416   1.993   .     S
O409   Zn415   1.993   .     S
O410   Zn415   1.985   .     S
O411   Zn416   1.985   .     S
O412   Zn416   1.985   .     S
O413   Zn415   1.985   .     S
C417   O460    1.290   .     A
C417   C420    1.455   .     S
C417   O451    1.286   .     A
C418   C420    1.414   .     A
C418   C431    1.486   .     S
C419   C437    1.417   .     A
C419   C438    1.423   .     A
C419   C428    1.460   .     S
C420   C436    1.411   .     A
C421   H439    1.080   .     S
C421   N450    1.365   .     A
C421   C1359   1.413   1_554 S
C422   N449    1.366   .     A
C422   H441    1.080   .     S
C422   C892    1.414   .     S
C423   N449    1.366   .     A
C423   H442    1.081   .     S
C423   C889    1.413   .     S
C424   N450    1.366   .     A
C424   H443    1.081   .     S
C424   C1358   1.414   1_554 S
C425   O466    1.221   .     D
C425   C330    1.493   1_655 S
C425   H340    1.086   1_655 S
C426   O452    1.222   .     D
C427   C436    1.496   .     S
C427   O453    1.221   .     D
C427   H446    1.086   .     S
C428   O459    1.285   .     A
C428   O461    1.292   .     A
C429   C437    1.490   .     S
C429   O454    1.220   .     D
C429   H447    1.085   .     S
C430   C438    1.484   .     S
C430   O456    1.397   .     S
C430   O455    1.223   .     D
C431   O458    1.397   .     S
C431   O457    1.223   .     D
C432   O464    1.279   .     A
C432   C434    1.401   .     S
C432   O462    1.270   .     A
C433   C435    1.404   .     S
C433   O465    1.279   .     A
C433   O463    1.272   .     A
C435   C322    1.495   1_655 S
C435   C330    1.352   1_655 S
C437   C106    1.393   1_565 S
C438   C124    1.394   1_565 S
H440   O458    1.014   .     S
H445   C322    1.085   1_655 S
H448   O456    1.012   .     S
N449   Zn467   2.004   .     S
N450   Zn468   2.004   .     S
O451   Zn467   1.996   .     S
O459   Zn468   1.996   .     S
O460   Zn468   1.993   .     S
O461   Zn467   1.993   .     S
O462   Zn467   1.985   .     S
O463   Zn468   1.985   .     S
O464   Zn468   1.985   .     S
O465   Zn467   1.985   .     S
C469   O512    1.290   .     A
C469   C472    1.455   .     S
C469   O503    1.286   .     A
C470   C472    1.414   .     A
C470   C483    1.486   .     S
C470   C801    1.393   1_545 S
C471   C489    1.417   .     A
C471   C490    1.423   .     A
C471   C480    1.460   .     S
C472   C488    1.411   .     A
C473   H491    1.080   .     S
C473   N502    1.365   .     A
C474   N501    1.366   .     A
C474   H493    1.080   .     S
C474   C944    1.414   .     S
C475   N501    1.366   .     A
C475   H494    1.081   .     S
C475   C941    1.413   .     S
C476   N502    1.366   .     A
C476   H495    1.081   .     S
C477   O518    1.221   .     D
C477   C538    1.493   .     S
C477   H548    1.086   .     S
C478   O504    1.222   .     D
C478   C591    1.495   1_455 S
C478   H601    1.085   1_455 S
C479   C488    1.496   .     S
C479   O505    1.221   .     D
C479   H498    1.086   .     S
C480   O511    1.285   .     A
C480   O513    1.292   .     A
C481   C489    1.490   .     S
C481   O506    1.220   .     D
C481   H499    1.085   .     S
C482   C490    1.484   .     S
C482   O508    1.397   .     S
C482   O507    1.223   .     D
C483   O510    1.397   .     S
C483   O509    1.223   .     D
C484   O516    1.279   .     A
C484   C486    1.401   .     S
C484   O514    1.270   .     A
C485   C487    1.404   .     S
C485   O517    1.279   .     A
C485   O515    1.272   .     A
C486   C581    1.493   1_455 S
C486   C591    1.352   1_455 S
C487   C530    1.495   .     S
C487   C538    1.352   .     S
C488   C802    1.394   1_545 S
C489   C626    1.393   .     S
C490   C644    1.394   .     S
H492   O510    1.014   .     S
H496   C581    1.086   1_455 S
H497   C530    1.085   .     S
H500   O508    1.012   .     S
N501   Zn519   2.004   .     S
N502   Zn520   2.004   .     S
O503   Zn519   1.996   .     S
O511   Zn520   1.996   .     S
O512   Zn520   1.993   .     S
O513   Zn519   1.993   .     S
O514   Zn519   1.985   .     S
O515   Zn520   1.985   .     S
O516   Zn520   1.985   .     S
O517   Zn519   1.985   .     S
C521   O564    1.290   .     A
C521   C524    1.455   .     S
C521   O555    1.286   .     A
C522   C524    1.414   .     A
C522   C535    1.486   .     S
C522   C853    1.393   1_545 S
C523   C541    1.417   .     A
C523   C542    1.423   .     A
C523   C532    1.460   .     S
C524   C540    1.411   .     A
C525   H543    1.080   .     S
C525   N554    1.365   .     A
C526   N553    1.366   .     A
C526   H545    1.080   .     S
C526   C996    1.414   .     S
C527   N553    1.366   .     A
C527   H546    1.081   .     S
C527   C993    1.413   .     S
C528   N554    1.366   .     A
C528   H547    1.081   .     S
C529   O570    1.221   .     D
C529   C590    1.493   .     S
C529   H600    1.086   .     S
C530   O556    1.222   .     D
C531   C540    1.496   .     S
C531   O557    1.221   .     D
C531   H550    1.086   .     S
C532   O563    1.285   .     A
C532   O565    1.292   .     A
C533   C541    1.490   .     S
C533   O558    1.220   .     D
C533   H551    1.085   .     S
C534   C542    1.484   .     S
C534   O560    1.397   .     S
C534   O559    1.223   .     D
C535   O562    1.397   .     S
C535   O561    1.223   .     D
C536   O568    1.279   .     A
C536   C538    1.401   .     S
C536   O566    1.270   .     A
C537   C539    1.404   .     S
C537   O569    1.279   .     A
C537   O567    1.272   .     A
C539   C582    1.495   .     S
C539   C590    1.352   .     S
C540   C854    1.394   1_545 S
C541   C678    1.393   .     S
C542   C696    1.394   .     S
H544   O562    1.014   .     S
H549   C582    1.085   .     S
H552   O560    1.012   .     S
N553   Zn571   2.004   .     S
N554   Zn572   2.004   .     S
O555   Zn571   1.996   .     S
O563   Zn572   1.996   .     S
O564   Zn572   1.993   .     S
O565   Zn571   1.993   .     S
O566   Zn571   1.985   .     S
O567   Zn572   1.985   .     S
O568   Zn572   1.985   .     S
O569   Zn571   1.985   .     S
C573   O616    1.290   .     A
C573   C576    1.455   .     S
C573   O607    1.286   .     A
C574   C576    1.414   .     A
C574   C587    1.486   .     S
C574   C905    1.393   1_545 S
C575   C593    1.417   .     A
C575   C594    1.423   .     A
C575   C584    1.460   .     S
C576   C592    1.411   .     A
C577   H595    1.080   .     S
C577   N606    1.365   .     A
C578   N605    1.366   .     A
C578   H597    1.080   .     S
C578   C1048   1.414   .     S
C579   N605    1.366   .     A
C579   H598    1.081   .     S
C579   C1045   1.413   .     S
C580   N606    1.366   .     A
C580   H599    1.081   .     S
C581   O622    1.221   .     D
C581   C486    1.493   1_655 S
C581   H496    1.086   1_655 S
C582   O608    1.222   .     D
C583   C592    1.496   .     S
C583   O609    1.221   .     D
C583   H602    1.086   .     S
C584   O615    1.285   .     A
C584   O617    1.292   .     A
C585   C593    1.490   .     S
C585   O610    1.220   .     D
C585   H603    1.085   .     S
C586   C594    1.484   .     S
C586   O612    1.397   .     S
C586   O611    1.223   .     D
C587   O614    1.397   .     S
C587   O613    1.223   .     D
C588   O620    1.279   .     A
C588   C590    1.401   .     S
C588   O618    1.270   .     A
C589   C591    1.404   .     S
C589   O621    1.279   .     A
C589   O619    1.272   .     A
C591   C478    1.495   1_655 S
C591   C486    1.352   1_655 S
C592   C906    1.394   1_545 S
C593   C730    1.393   .     S
C594   C748    1.394   .     S
H596   O614    1.014   .     S
H601   C478    1.085   1_655 S
H604   O612    1.012   .     S
N605   Zn623   2.004   .     S
N606   Zn624   2.004   .     S
O607   Zn623   1.996   .     S
O615   Zn624   1.996   .     S
O616   Zn624   1.993   .     S
O617   Zn623   1.993   .     S
O618   Zn623   1.985   .     S
O619   Zn624   1.985   .     S
O620   Zn624   1.985   .     S
O621   Zn623   1.985   .     S
C625   O668    1.290   .     A
C625   C628    1.455   .     S
C625   O659    1.286   .     A
C626   C628    1.414   .     A
C626   C639    1.486   .     S
C627   C645    1.417   .     A
C627   C646    1.423   .     A
C627   C636    1.460   .     S
C628   C644    1.411   .     A
C629   H647    1.080   .     S
C629   N658    1.365   .     A
C630   N657    1.366   .     A
C630   H649    1.080   .     S
C630   C1100   1.414   .     S
C631   N657    1.366   .     A
C631   H650    1.081   .     S
C631   C1097   1.413   .     S
C632   N658    1.366   .     A
C632   H651    1.081   .     S
C633   O674    1.221   .     D
C633   C694    1.493   .     S
C633   H704    1.086   .     S
C634   O660    1.222   .     D
C634   C747    1.495   1_455 S
C634   H757    1.085   1_455 S
C635   C644    1.496   .     S
C635   O661    1.221   .     D
C635   H654    1.086   .     S
C636   O667    1.285   .     A
C636   O669    1.292   .     A
C637   C645    1.490   .     S
C637   O662    1.220   .     D
C637   H655    1.085   .     S
C638   C646    1.484   .     S
C638   O664    1.397   .     S
C638   O663    1.223   .     D
C639   O666    1.397   .     S
C639   O665    1.223   .     D
C640   O672    1.279   .     A
C640   C642    1.401   .     S
C640   O670    1.270   .     A
C641   C643    1.404   .     S
C641   O673    1.279   .     A
C641   O671    1.272   .     A
C642   C737    1.493   1_455 S
C642   C747    1.352   1_455 S
C643   C686    1.495   .     S
C643   C694    1.352   .     S
C645   C782    1.393   .     S
C646   C800    1.394   .     S
H648   O666    1.014   .     S
H652   C737    1.086   1_455 S
H653   C686    1.085   .     S
H656   O664    1.012   .     S
N657   Zn675   2.004   .     S
N658   Zn676   2.004   .     S
O659   Zn675   1.996   .     S
O667   Zn676   1.996   .     S
O668   Zn676   1.993   .     S
O669   Zn675   1.993   .     S
O670   Zn675   1.985   .     S
O671   Zn676   1.985   .     S
O672   Zn676   1.985   .     S
O673   Zn675   1.985   .     S
C677   O720    1.290   .     A
C677   C680    1.455   .     S
C677   O711    1.286   .     A
C678   C680    1.414   .     A
C678   C691    1.486   .     S
C679   C697    1.417   .     A
C679   C698    1.423   .     A
C679   C688    1.460   .     S
C680   C696    1.411   .     A
C681   H699    1.080   .     S
C681   N710    1.365   .     A
C682   N709    1.366   .     A
C682   H701    1.080   .     S
C682   C1152   1.414   .     S
C683   N709    1.366   .     A
C683   H702    1.081   .     S
C683   C1149   1.413   .     S
C684   N710    1.366   .     A
C684   H703    1.081   .     S
C685   O726    1.221   .     D
C685   C746    1.493   .     S
C685   H756    1.086   .     S
C686   O712    1.222   .     D
C687   C696    1.496   .     S
C687   O713    1.221   .     D
C687   H706    1.086   .     S
C688   O719    1.285   .     A
C688   O721    1.292   .     A
C689   C697    1.490   .     S
C689   O714    1.220   .     D
C689   H707    1.085   .     S
C690   C698    1.484   .     S
C690   O716    1.397   .     S
C690   O715    1.223   .     D
C691   O718    1.397   .     S
C691   O717    1.223   .     D
C692   O724    1.279   .     A
C692   C694    1.401   .     S
C692   O722    1.270   .     A
C693   C695    1.404   .     S
C693   O725    1.279   .     A
C693   O723    1.272   .     A
C695   C738    1.495   .     S
C695   C746    1.352   .     S
C697   C834    1.393   .     S
C698   C852    1.394   .     S
H700   O718    1.014   .     S
H705   C738    1.085   .     S
H708   O716    1.012   .     S
N709   Zn727   2.004   .     S
N710   Zn728   2.004   .     S
O711   Zn727   1.996   .     S
O719   Zn728   1.996   .     S
O720   Zn728   1.993   .     S
O721   Zn727   1.993   .     S
O722   Zn727   1.985   .     S
O723   Zn728   1.985   .     S
O724   Zn728   1.985   .     S
O725   Zn727   1.985   .     S
C729   O772    1.290   .     A
C729   C732    1.455   .     S
C729   O763    1.286   .     A
C730   C732    1.414   .     A
C730   C743    1.486   .     S
C731   C749    1.417   .     A
C731   C750    1.423   .     A
C731   C740    1.460   .     S
C732   C748    1.411   .     A
C733   H751    1.080   .     S
C733   N762    1.365   .     A
C734   N761    1.366   .     A
C734   H753    1.080   .     S
C734   C1204   1.414   .     S
C735   N761    1.366   .     A
C735   H754    1.081   .     S
C735   C1201   1.413   .     S
C736   N762    1.366   .     A
C736   H755    1.081   .     S
C737   O778    1.221   .     D
C737   C642    1.493   1_655 S
C737   H652    1.086   1_655 S
C738   O764    1.222   .     D
C739   C748    1.496   .     S
C739   O765    1.221   .     D
C739   H758    1.086   .     S
C740   O771    1.285   .     A
C740   O773    1.292   .     A
C741   C749    1.490   .     S
C741   O766    1.220   .     D
C741   H759    1.085   .     S
C742   C750    1.484   .     S
C742   O768    1.397   .     S
C742   O767    1.223   .     D
C743   O770    1.397   .     S
C743   O769    1.223   .     D
C744   O776    1.279   .     A
C744   C746    1.401   .     S
C744   O774    1.270   .     A
C745   C747    1.404   .     S
C745   O777    1.279   .     A
C745   O775    1.272   .     A
C747   C634    1.495   1_655 S
C747   C642    1.352   1_655 S
C749   C886    1.393   .     S
C750   C904    1.394   .     S
H752   O770    1.014   .     S
H757   C634    1.085   1_655 S
H760   O768    1.012   .     S
N761   Zn779   2.004   .     S
N762   Zn780   2.004   .     S
O763   Zn779   1.996   .     S
O771   Zn780   1.996   .     S
O772   Zn780   1.993   .     S
O773   Zn779   1.993   .     S
O774   Zn779   1.985   .     S
O775   Zn780   1.985   .     S
O776   Zn780   1.985   .     S
O777   Zn779   1.985   .     S
C781   O824    1.290   .     A
C781   C784    1.455   .     S
C781   O815    1.286   .     A
C782   C784    1.414   .     A
C782   C795    1.486   .     S
C783   C801    1.417   .     A
C783   C802    1.423   .     A
C783   C792    1.460   .     S
C784   C800    1.411   .     A
C785   H803    1.080   .     S
C785   N814    1.365   .     A
C786   N813    1.366   .     A
C786   H805    1.080   .     S
C786   C1256   1.414   .     S
C787   N813    1.366   .     A
C787   H806    1.081   .     S
C787   C1253   1.413   .     S
C788   N814    1.366   .     A
C788   H807    1.081   .     S
C789   O830    1.221   .     D
C789   C850    1.493   .     S
C789   H860    1.086   .     S
C790   O816    1.222   .     D
C790   C903    1.495   1_455 S
C790   H913    1.085   1_455 S
C791   C800    1.496   .     S
C791   O817    1.221   .     D
C791   H810    1.086   .     S
C792   O823    1.285   .     A
C792   O825    1.292   .     A
C793   C801    1.490   .     S
C793   O818    1.220   .     D
C793   H811    1.085   .     S
C794   C802    1.484   .     S
C794   O820    1.397   .     S
C794   O819    1.223   .     D
C795   O822    1.397   .     S
C795   O821    1.223   .     D
C796   O828    1.279   .     A
C796   C798    1.401   .     S
C796   O826    1.270   .     A
C797   C799    1.404   .     S
C797   O829    1.279   .     A
C797   O827    1.272   .     A
C798   C893    1.493   1_455 S
C798   C903    1.352   1_455 S
C799   C842    1.495   .     S
C799   C850    1.352   .     S
C801   C470    1.393   1_565 S
C802   C488    1.394   1_565 S
H804   O822    1.014   .     S
H808   C893    1.086   1_455 S
H809   C842    1.085   .     S
H812   O820    1.012   .     S
N813   Zn831   2.004   .     S
N814   Zn832   2.004   .     S
O815   Zn831   1.996   .     S
O823   Zn832   1.996   .     S
O824   Zn832   1.993   .     S
O825   Zn831   1.993   .     S
O826   Zn831   1.985   .     S
O827   Zn832   1.985   .     S
O828   Zn832   1.985   .     S
O829   Zn831   1.985   .     S
C833   O876    1.290   .     A
C833   C836    1.455   .     S
C833   O867    1.286   .     A
C834   C836    1.414   .     A
C834   C847    1.486   .     S
C835   C853    1.417   .     A
C835   C854    1.423   .     A
C835   C844    1.460   .     S
C836   C852    1.411   .     A
C837   H855    1.080   .     S
C837   N866    1.365   .     A
C838   N865    1.366   .     A
C838   H857    1.080   .     S
C838   C1308   1.414   .     S
C839   N865    1.366   .     A
C839   H858    1.081   .     S
C839   C1305   1.413   .     S
C840   N866    1.366   .     A
C840   H859    1.081   .     S
C841   O882    1.221   .     D
C841   C902    1.493   .     S
C841   H912    1.086   .     S
C842   O868    1.222   .     D
C843   C852    1.496   .     S
C843   O869    1.221   .     D
C843   H862    1.086   .     S
C844   O875    1.285   .     A
C844   O877    1.292   .     A
C845   C853    1.490   .     S
C845   O870    1.220   .     D
C845   H863    1.085   .     S
C846   C854    1.484   .     S
C846   O872    1.397   .     S
C846   O871    1.223   .     D
C847   O874    1.397   .     S
C847   O873    1.223   .     D
C848   O880    1.279   .     A
C848   C850    1.401   .     S
C848   O878    1.270   .     A
C849   C851    1.404   .     S
C849   O881    1.279   .     A
C849   O879    1.272   .     A
C851   C894    1.495   .     S
C851   C902    1.352   .     S
C853   C522    1.393   1_565 S
C854   C540    1.394   1_565 S
H856   O874    1.014   .     S
H861   C894    1.085   .     S
H864   O872    1.012   .     S
N865   Zn883   2.004   .     S
N866   Zn884   2.004   .     S
O867   Zn883   1.996   .     S
O875   Zn884   1.996   .     S
O876   Zn884   1.993   .     S
O877   Zn883   1.993   .     S
O878   Zn883   1.985   .     S
O879   Zn884   1.985   .     S
O880   Zn884   1.985   .     S
O881   Zn883   1.985   .     S
C885   O928    1.290   .     A
C885   C888    1.455   .     S
C885   O919    1.286   .     A
C886   C888    1.414   .     A
C886   C899    1.486   .     S
C887   C905    1.417   .     A
C887   C906    1.423   .     A
C887   C896    1.460   .     S
C888   C904    1.411   .     A
C889   H907    1.080   .     S
C889   N918    1.365   .     A
C890   N917    1.366   .     A
C890   H909    1.080   .     S
C890   C1360   1.414   .     S
C891   N917    1.366   .     A
C891   H910    1.081   .     S
C891   C1357   1.413   .     S
C892   N918    1.366   .     A
C892   H911    1.081   .     S
C893   O934    1.221   .     D
C893   C798    1.493   1_655 S
C893   H808    1.086   1_655 S
C894   O920    1.222   .     D
C895   C904    1.496   .     S
C895   O921    1.221   .     D
C895   H914    1.086   .     S
C896   O927    1.285   .     A
C896   O929    1.292   .     A
C897   C905    1.490   .     S
C897   O922    1.220   .     D
C897   H915    1.085   .     S
C898   C906    1.484   .     S
C898   O924    1.397   .     S
C898   O923    1.223   .     D
C899   O926    1.397   .     S
C899   O925    1.223   .     D
C900   O932    1.279   .     A
C900   C902    1.401   .     S
C900   O930    1.270   .     A
C901   C903    1.404   .     S
C901   O933    1.279   .     A
C901   O931    1.272   .     A
C903   C790    1.495   1_655 S
C903   C798    1.352   1_655 S
C905   C574    1.393   1_565 S
C906   C592    1.394   1_565 S
H908   O926    1.014   .     S
H913   C790    1.085   1_655 S
H916   O924    1.012   .     S
N917   Zn935   2.004   .     S
N918   Zn936   2.004   .     S
O919   Zn935   1.996   .     S
O927   Zn936   1.996   .     S
O928   Zn936   1.993   .     S
O929   Zn935   1.993   .     S
O930   Zn935   1.985   .     S
O931   Zn936   1.985   .     S
O932   Zn936   1.985   .     S
O933   Zn935   1.985   .     S
C937   O980    1.290   .     A
C937   C940    1.455   .     S
C937   O971    1.286   .     A
C938   C940    1.414   .     A
C938   C951    1.486   .     S
C938   C1269   1.393   1_545 S
C939   C957    1.417   .     A
C939   C958    1.423   .     A
C939   C948    1.460   .     S
C940   C956    1.411   .     A
C941   H959    1.080   .     S
C941   N970    1.365   .     A
C942   N969    1.366   .     A
C942   H961    1.080   .     S
C942   C8      1.414   1_556 S
C943   N969    1.366   .     A
C943   H962    1.081   .     S
C943   C5      1.413   1_556 S
C944   N970    1.366   .     A
C944   H963    1.081   .     S
C945   O986    1.221   .     D
C945   C1006   1.493   .     S
C945   H1016   1.086   .     S
C946   O972    1.222   .     D
C946   C1059   1.495   1_455 S
C946   H1069   1.085   1_455 S
C947   C956    1.496   .     S
C947   O973    1.221   .     D
C947   H966    1.086   .     S
C948   O979    1.285   .     A
C948   O981    1.292   .     A
C949   C957    1.490   .     S
C949   O974    1.220   .     D
C949   H967    1.085   .     S
C950   C958    1.484   .     S
C950   O976    1.397   .     S
C950   O975    1.223   .     D
C951   O978    1.397   .     S
C951   O977    1.223   .     D
C952   O984    1.279   .     A
C952   C954    1.401   .     S
C952   O982    1.270   .     A
C953   C955    1.404   .     S
C953   O985    1.279   .     A
C953   O983    1.272   .     A
C954   C1049   1.493   1_455 S
C954   C1059   1.352   1_455 S
C955   C998    1.495   .     S
C955   C1006   1.352   .     S
C956   C1270   1.394   1_545 S
C957   C1094   1.393   .     S
C958   C1112   1.394   .     S
H960   O978    1.014   .     S
H964   C1049   1.086   1_455 S
H965   C998    1.085   .     S
H968   O976    1.012   .     S
N969   Zn987   2.004   .     S
N970   Zn988   2.004   .     S
O971   Zn987   1.996   .     S
O979   Zn988   1.996   .     S
O980   Zn988   1.993   .     S
O981   Zn987   1.993   .     S
O982   Zn987   1.985   .     S
O983   Zn988   1.985   .     S
O984   Zn988   1.985   .     S
O985   Zn987   1.985   .     S
C989   O1032   1.290   .     A
C989   C992    1.455   .     S
C989   O1023   1.286   .     A
C990   C992    1.414   .     A
C990   C1003   1.486   .     S
C990   C1321   1.393   1_545 S
C991   C1009   1.417   .     A
C991   C1010   1.423   .     A
C991   C1000   1.460   .     S
C992   C1008   1.411   .     A
C993   H1011   1.080   .     S
C993   N1022   1.365   .     A
C994   N1021   1.366   .     A
C994   H1013   1.080   .     S
C994   C60     1.414   1_556 S
C995   N1021   1.366   .     A
C995   H1014   1.081   .     S
C995   C57     1.413   1_556 S
C996   N1022   1.366   .     A
C996   H1015   1.081   .     S
C997   O1038   1.221   .     D
C997   C1058   1.493   .     S
C997   H1068   1.086   .     S
C998   O1024   1.222   .     D
C999   C1008   1.496   .     S
C999   O1025   1.221   .     D
C999   H1018   1.086   .     S
C1000  O1031   1.285   .     A
C1000  O1033   1.292   .     A
C1001  C1009   1.490   .     S
C1001  O1026   1.220   .     D
C1001  H1019   1.085   .     S
C1002  C1010   1.484   .     S
C1002  O1028   1.397   .     S
C1002  O1027   1.223   .     D
C1003  O1030   1.397   .     S
C1003  O1029   1.223   .     D
C1004  O1036   1.279   .     A
C1004  C1006   1.401   .     S
C1004  O1034   1.270   .     A
C1005  C1007   1.404   .     S
C1005  O1037   1.279   .     A
C1005  O1035   1.272   .     A
C1007  C1050   1.495   .     S
C1007  C1058   1.352   .     S
C1008  C1322   1.394   1_545 S
C1009  C1146   1.393   .     S
C1010  C1164   1.394   .     S
H1012  O1030   1.014   .     S
H1017  C1050   1.085   .     S
H1020  O1028   1.012   .     S
N1021  Zn1039  2.004   .     S
N1022  Zn1040  2.004   .     S
O1023  Zn1039  1.996   .     S
O1031  Zn1040  1.996   .     S
O1032  Zn1040  1.993   .     S
O1033  Zn1039  1.993   .     S
O1034  Zn1039  1.985   .     S
O1035  Zn1040  1.985   .     S
O1036  Zn1040  1.985   .     S
O1037  Zn1039  1.985   .     S
C1041  O1084   1.290   .     A
C1041  C1044   1.455   .     S
C1041  O1075   1.286   .     A
C1042  C1044   1.414   .     A
C1042  C1055   1.486   .     S
C1042  C1373   1.393   1_545 S
C1043  C1061   1.417   .     A
C1043  C1062   1.423   .     A
C1043  C1052   1.460   .     S
C1044  C1060   1.411   .     A
C1045  H1063   1.080   .     S
C1045  N1074   1.365   .     A
C1046  N1073   1.366   .     A
C1046  H1065   1.080   .     S
C1046  C112    1.414   1_556 S
C1047  N1073   1.366   .     A
C1047  H1066   1.081   .     S
C1047  C109    1.413   1_556 S
C1048  N1074   1.366   .     A
C1048  H1067   1.081   .     S
C1049  O1090   1.221   .     D
C1049  C954    1.493   1_655 S
C1049  H964    1.086   1_655 S
C1050  O1076   1.222   .     D
C1051  C1060   1.496   .     S
C1051  O1077   1.221   .     D
C1051  H1070   1.086   .     S
C1052  O1083   1.285   .     A
C1052  O1085   1.292   .     A
C1053  C1061   1.490   .     S
C1053  O1078   1.220   .     D
C1053  H1071   1.085   .     S
C1054  C1062   1.484   .     S
C1054  O1080   1.397   .     S
C1054  O1079   1.223   .     D
C1055  O1082   1.397   .     S
C1055  O1081   1.223   .     D
C1056  O1088   1.279   .     A
C1056  C1058   1.401   .     S
C1056  O1086   1.270   .     A
C1057  C1059   1.404   .     S
C1057  O1089   1.279   .     A
C1057  O1087   1.272   .     A
C1059  C946    1.495   1_655 S
C1059  C954    1.352   1_655 S
C1060  C1374   1.394   1_545 S
C1061  C1198   1.393   .     S
C1062  C1216   1.394   .     S
H1064  O1082   1.014   .     S
H1069  C946    1.085   1_655 S
H1072  O1080   1.012   .     S
N1073  Zn1091  2.004   .     S
N1074  Zn1092  2.004   .     S
O1075  Zn1091  1.996   .     S
O1083  Zn1092  1.996   .     S
O1084  Zn1092  1.993   .     S
O1085  Zn1091  1.993   .     S
O1086  Zn1091  1.985   .     S
O1087  Zn1092  1.985   .     S
O1088  Zn1092  1.985   .     S
O1089  Zn1091  1.985   .     S
C1093  O1136   1.290   .     A
C1093  C1096   1.455   .     S
C1093  O1127   1.286   .     A
C1094  C1096   1.414   .     A
C1094  C1107   1.486   .     S
C1095  C1113   1.417   .     A
C1095  C1114   1.423   .     A
C1095  C1104   1.460   .     S
C1096  C1112   1.411   .     A
C1097  H1115   1.080   .     S
C1097  N1126   1.365   .     A
C1098  N1125   1.366   .     A
C1098  H1117   1.080   .     S
C1098  C164    1.414   1_556 S
C1099  N1125   1.366   .     A
C1099  H1118   1.081   .     S
C1099  C161    1.413   1_556 S
C1100  N1126   1.366   .     A
C1100  H1119   1.081   .     S
C1101  O1142   1.221   .     D
C1101  C1162   1.493   .     S
C1101  H1172   1.086   .     S
C1102  O1128   1.222   .     D
C1102  C1215   1.495   1_455 S
C1102  H1225   1.085   1_455 S
C1103  C1112   1.496   .     S
C1103  O1129   1.221   .     D
C1103  H1122   1.086   .     S
C1104  O1135   1.285   .     A
C1104  O1137   1.292   .     A
C1105  C1113   1.490   .     S
C1105  O1130   1.220   .     D
C1105  H1123   1.085   .     S
C1106  C1114   1.484   .     S
C1106  O1132   1.397   .     S
C1106  O1131   1.223   .     D
C1107  O1134   1.397   .     S
C1107  O1133   1.223   .     D
C1108  O1140   1.279   .     A
C1108  C1110   1.401   .     S
C1108  O1138   1.270   .     A
C1109  C1111   1.404   .     S
C1109  O1141   1.279   .     A
C1109  O1139   1.272   .     A
C1110  C1205   1.493   1_455 S
C1110  C1215   1.352   1_455 S
C1111  C1154   1.495   .     S
C1111  C1162   1.352   .     S
C1113  C1250   1.393   .     S
C1114  C1268   1.394   .     S
H1116  O1134   1.014   .     S
H1120  C1205   1.086   1_455 S
H1121  C1154   1.085   .     S
H1124  O1132   1.012   .     S
N1125  Zn1143  2.004   .     S
N1126  Zn1144  2.004   .     S
O1127  Zn1143  1.996   .     S
O1135  Zn1144  1.996   .     S
O1136  Zn1144  1.993   .     S
O1137  Zn1143  1.993   .     S
O1138  Zn1143  1.985   .     S
O1139  Zn1144  1.985   .     S
O1140  Zn1144  1.985   .     S
O1141  Zn1143  1.985   .     S
C1145  O1188   1.290   .     A
C1145  C1148   1.455   .     S
C1145  O1179   1.286   .     A
C1146  C1148   1.414   .     A
C1146  C1159   1.486   .     S
C1147  C1165   1.417   .     A
C1147  C1166   1.423   .     A
C1147  C1156   1.460   .     S
C1148  C1164   1.411   .     A
C1149  H1167   1.080   .     S
C1149  N1178   1.365   .     A
C1150  N1177   1.366   .     A
C1150  H1169   1.080   .     S
C1150  C216    1.414   1_556 S
C1151  N1177   1.366   .     A
C1151  H1170   1.081   .     S
C1151  C213    1.413   1_556 S
C1152  N1178   1.366   .     A
C1152  H1171   1.081   .     S
C1153  O1194   1.221   .     D
C1153  C1214   1.493   .     S
C1153  H1224   1.086   .     S
C1154  O1180   1.222   .     D
C1155  C1164   1.496   .     S
C1155  O1181   1.221   .     D
C1155  H1174   1.086   .     S
C1156  O1187   1.285   .     A
C1156  O1189   1.292   .     A
C1157  C1165   1.490   .     S
C1157  O1182   1.220   .     D
C1157  H1175   1.085   .     S
C1158  C1166   1.484   .     S
C1158  O1184   1.397   .     S
C1158  O1183   1.223   .     D
C1159  O1186   1.397   .     S
C1159  O1185   1.223   .     D
C1160  O1192   1.279   .     A
C1160  C1162   1.401   .     S
C1160  O1190   1.270   .     A
C1161  C1163   1.404   .     S
C1161  O1193   1.279   .     A
C1161  O1191   1.272   .     A
C1163  C1206   1.495   .     S
C1163  C1214   1.352   .     S
C1165  C1302   1.393   .     S
C1166  C1320   1.394   .     S
H1168  O1186   1.014   .     S
H1173  C1206   1.085   .     S
H1176  O1184   1.012   .     S
N1177  Zn1195  2.004   .     S
N1178  Zn1196  2.004   .     S
O1179  Zn1195  1.996   .     S
O1187  Zn1196  1.996   .     S
O1188  Zn1196  1.993   .     S
O1189  Zn1195  1.993   .     S
O1190  Zn1195  1.985   .     S
O1191  Zn1196  1.985   .     S
O1192  Zn1196  1.985   .     S
O1193  Zn1195  1.985   .     S
C1197  O1240   1.290   .     A
C1197  C1200   1.455   .     S
C1197  O1231   1.286   .     A
C1198  C1200   1.414   .     A
C1198  C1211   1.486   .     S
C1199  C1217   1.417   .     A
C1199  C1218   1.423   .     A
C1199  C1208   1.460   .     S
C1200  C1216   1.411   .     A
C1201  H1219   1.080   .     S
C1201  N1230   1.365   .     A
C1202  N1229   1.366   .     A
C1202  H1221   1.080   .     S
C1202  C268    1.414   1_556 S
C1203  N1229   1.366   .     A
C1203  H1222   1.081   .     S
C1203  C265    1.413   1_556 S
C1204  N1230   1.366   .     A
C1204  H1223   1.081   .     S
C1205  O1246   1.221   .     D
C1205  C1110   1.493   1_655 S
C1205  H1120   1.086   1_655 S
C1206  O1232   1.222   .     D
C1207  C1216   1.496   .     S
C1207  O1233   1.221   .     D
C1207  H1226   1.086   .     S
C1208  O1239   1.285   .     A
C1208  O1241   1.292   .     A
C1209  C1217   1.490   .     S
C1209  O1234   1.220   .     D
C1209  H1227   1.085   .     S
C1210  C1218   1.484   .     S
C1210  O1236   1.397   .     S
C1210  O1235   1.223   .     D
C1211  O1238   1.397   .     S
C1211  O1237   1.223   .     D
C1212  O1244   1.279   .     A
C1212  C1214   1.401   .     S
C1212  O1242   1.270   .     A
C1213  C1215   1.404   .     S
C1213  O1245   1.279   .     A
C1213  O1243   1.272   .     A
C1215  C1102   1.495   1_655 S
C1215  C1110   1.352   1_655 S
C1217  C1354   1.393   .     S
C1218  C1372   1.394   .     S
H1220  O1238   1.014   .     S
H1225  C1102   1.085   1_655 S
H1228  O1236   1.012   .     S
N1229  Zn1247  2.004   .     S
N1230  Zn1248  2.004   .     S
O1231  Zn1247  1.996   .     S
O1239  Zn1248  1.996   .     S
O1240  Zn1248  1.993   .     S
O1241  Zn1247  1.993   .     S
O1242  Zn1247  1.985   .     S
O1243  Zn1248  1.985   .     S
O1244  Zn1248  1.985   .     S
O1245  Zn1247  1.985   .     S
C1249  O1292   1.290   .     A
C1249  C1252   1.455   .     S
C1249  O1283   1.286   .     A
C1250  C1252   1.414   .     A
C1250  C1263   1.486   .     S
C1251  C1269   1.417   .     A
C1251  C1270   1.423   .     A
C1251  C1260   1.460   .     S
C1252  C1268   1.411   .     A
C1253  H1271   1.080   .     S
C1253  N1282   1.365   .     A
C1254  N1281   1.366   .     A
C1254  H1273   1.080   .     S
C1254  C320    1.414   1_556 S
C1255  N1281   1.366   .     A
C1255  H1274   1.081   .     S
C1255  C317    1.413   1_556 S
C1256  N1282   1.366   .     A
C1256  H1275   1.081   .     S
C1257  O1298   1.221   .     D
C1257  C1318   1.493   .     S
C1257  H1328   1.086   .     S
C1258  O1284   1.222   .     D
C1258  C1371   1.495   1_455 S
C1258  H1381   1.085   1_455 S
C1259  C1268   1.496   .     S
C1259  O1285   1.221   .     D
C1259  H1278   1.086   .     S
C1260  O1291   1.285   .     A
C1260  O1293   1.292   .     A
C1261  C1269   1.490   .     S
C1261  O1286   1.220   .     D
C1261  H1279   1.085   .     S
C1262  C1270   1.484   .     S
C1262  O1288   1.397   .     S
C1262  O1287   1.223   .     D
C1263  O1290   1.397   .     S
C1263  O1289   1.223   .     D
C1264  O1296   1.279   .     A
C1264  C1266   1.401   .     S
C1264  O1294   1.270   .     A
C1265  C1267   1.404   .     S
C1265  O1297   1.279   .     A
C1265  O1295   1.272   .     A
C1266  C1361   1.493   1_455 S
C1266  C1371   1.352   1_455 S
C1267  C1310   1.495   .     S
C1267  C1318   1.352   .     S
C1269  C938    1.393   1_565 S
C1270  C956    1.394   1_565 S
H1272  O1290   1.014   .     S
H1276  C1361   1.086   1_455 S
H1277  C1310   1.085   .     S
H1280  O1288   1.012   .     S
N1281  Zn1299  2.004   .     S
N1282  Zn1300  2.004   .     S
O1283  Zn1299  1.996   .     S
O1291  Zn1300  1.996   .     S
O1292  Zn1300  1.993   .     S
O1293  Zn1299  1.993   .     S
O1294  Zn1299  1.985   .     S
O1295  Zn1300  1.985   .     S
O1296  Zn1300  1.985   .     S
O1297  Zn1299  1.985   .     S
C1301  O1344   1.290   .     A
C1301  C1304   1.455   .     S
C1301  O1335   1.286   .     A
C1302  C1304   1.414   .     A
C1302  C1315   1.486   .     S
C1303  C1321   1.417   .     A
C1303  C1322   1.423   .     A
C1303  C1312   1.460   .     S
C1304  C1320   1.411   .     A
C1305  H1323   1.080   .     S
C1305  N1334   1.365   .     A
C1306  N1333   1.366   .     A
C1306  H1325   1.080   .     S
C1306  C372    1.414   1_556 S
C1307  N1333   1.366   .     A
C1307  H1326   1.081   .     S
C1307  C369    1.413   1_556 S
C1308  N1334   1.366   .     A
C1308  H1327   1.081   .     S
C1309  O1350   1.221   .     D
C1309  C1370   1.493   .     S
C1309  H1380   1.086   .     S
C1310  O1336   1.222   .     D
C1311  C1320   1.496   .     S
C1311  O1337   1.221   .     D
C1311  H1330   1.086   .     S
C1312  O1343   1.285   .     A
C1312  O1345   1.292   .     A
C1313  C1321   1.490   .     S
C1313  O1338   1.220   .     D
C1313  H1331   1.085   .     S
C1314  C1322   1.484   .     S
C1314  O1340   1.397   .     S
C1314  O1339   1.223   .     D
C1315  O1342   1.397   .     S
C1315  O1341   1.223   .     D
C1316  O1348   1.279   .     A
C1316  C1318   1.401   .     S
C1316  O1346   1.270   .     A
C1317  C1319   1.404   .     S
C1317  O1349   1.279   .     A
C1317  O1347   1.272   .     A
C1319  C1362   1.495   .     S
C1319  C1370   1.352   .     S
C1321  C990    1.393   1_565 S
C1322  C1008   1.394   1_565 S
H1324  O1342   1.014   .     S
H1329  C1362   1.085   .     S
H1332  O1340   1.012   .     S
N1333  Zn1351  2.004   .     S
N1334  Zn1352  2.004   .     S
O1335  Zn1351  1.996   .     S
O1343  Zn1352  1.996   .     S
O1344  Zn1352  1.993   .     S
O1345  Zn1351  1.993   .     S
O1346  Zn1351  1.985   .     S
O1347  Zn1352  1.985   .     S
O1348  Zn1352  1.985   .     S
O1349  Zn1351  1.985   .     S
C1353  O1396   1.290   .     A
C1353  C1356   1.455   .     S
C1353  O1387   1.286   .     A
C1354  C1356   1.414   .     A
C1354  C1367   1.486   .     S
C1355  C1373   1.417   .     A
C1355  C1374   1.423   .     A
C1355  C1364   1.460   .     S
C1356  C1372   1.411   .     A
C1357  H1375   1.080   .     S
C1357  N1386   1.365   .     A
C1358  N1385   1.366   .     A
C1358  H1377   1.080   .     S
C1358  C424    1.414   1_556 S
C1359  N1385   1.366   .     A
C1359  H1378   1.081   .     S
C1359  C421    1.413   1_556 S
C1360  N1386   1.366   .     A
C1360  H1379   1.081   .     S
C1361  O1402   1.221   .     D
C1361  C1266   1.493   1_655 S
C1361  H1276   1.086   1_655 S
C1362  O1388   1.222   .     D
C1363  C1372   1.496   .     S
C1363  O1389   1.221   .     D
C1363  H1382   1.086   .     S
C1364  O1395   1.285   .     A
C1364  O1397   1.292   .     A
C1365  C1373   1.490   .     S
C1365  O1390   1.220   .     D
C1365  H1383   1.085   .     S
C1366  C1374   1.484   .     S
C1366  O1392   1.397   .     S
C1366  O1391   1.223   .     D
C1367  O1394   1.397   .     S
C1367  O1393   1.223   .     D
C1368  O1400   1.279   .     A
C1368  C1370   1.401   .     S
C1368  O1398   1.270   .     A
C1369  C1371   1.404   .     S
C1369  O1401   1.279   .     A
C1369  O1399   1.272   .     A
C1371  C1258   1.495   1_655 S
C1371  C1266   1.352   1_655 S
C1373  C1042   1.393   1_565 S
C1374  C1060   1.394   1_565 S
H1376  O1394   1.014   .     S
H1381  C1258   1.085   1_655 S
H1384  O1392   1.012   .     S
N1385  Zn1403  2.004   .     S
N1386  Zn1404  2.004   .     S
O1387  Zn1403  1.996   .     S
O1395  Zn1404  1.996   .     S
O1396  Zn1404  1.993   .     S
O1397  Zn1403  1.993   .     S
O1398  Zn1403  1.985   .     S
O1399  Zn1404  1.985   .     S
O1400  Zn1404  1.985   .     S
O1401  Zn1403  1.985   .     S
