data_str_m3_o1_o18_pcu_sym.134
_audit_creation_date              2020-01-03
_audit_creation_method            'Materials Studio'
_symmetry_space_group_name_H-M    'P1'
_symmetry_Int_Tables_number       1
_symmetry_cell_setting            triclinic
loop_
_symmetry_equiv_pos_as_xyz
  x,y,z
_cell_length_a                    29.7620
_cell_length_b                    31.9304
_cell_length_c                    31.0058
_cell_angle_alpha                 90.4542
_cell_angle_beta                  67.8360
_cell_angle_gamma                 87.8534
loop_
_atom_site_label
_atom_site_type_symbol
_atom_site_fract_x
_atom_site_fract_y
_atom_site_fract_z
_atom_site_U_iso_or_equiv
_atom_site_adp_type
_atom_site_occupancy
O1     O     0.12846   0.22775   0.25000   0.00000  Uiso   1.00
O2     O     0.20488   0.10558   0.24999   0.00000  Uiso   1.00
O3     O     0.20490   0.22774   0.25000   0.00000  Uiso   1.00
O4     O     0.12843   0.10559   0.25000   0.00000  Uiso   1.00
C5     C     0.16583   0.24661   0.25067   0.00000  Uiso   1.00
C6     C     0.16751   0.08672   0.24933   0.00000  Uiso   1.00
O7     O     0.10661   0.16667   0.31612   0.00000  Uiso   1.00
O8     O     0.22672   0.16666   0.18387   0.00000  Uiso   1.00
O9     O     0.18305   0.16666   0.31612   0.00000  Uiso   1.00
O10    O     0.15028   0.16667   0.18388   0.00000  Uiso   1.00
C11    C     0.13633   0.16639   0.33789   0.00000  Uiso   1.00
C12    C     0.19701   0.16695   0.16211   0.00000  Uiso   1.00
Zn13   Zn    0.11562   0.16667   0.25000   0.00000  Uiso   1.00
Zn14   Zn    0.21771   0.16666   0.25000   0.00000  Uiso   1.00
C15    C     0.11800   0.16148   0.38817   0.00000  Uiso   1.00
C16    C     0.21533   0.17186   0.11183   0.00000  Uiso   1.00
C17    C     0.06259   0.13061   0.45844   0.00000  Uiso   1.00
C18    C     0.27075   0.20273   0.04156   0.00000  Uiso   1.00
C19    C     0.07626   0.13998   0.41132   0.00000  Uiso   1.00
C20    C     0.25707   0.19335   0.08868   0.00000  Uiso   1.00
C21    C     0.14713   0.17309   0.41150   0.00000  Uiso   1.00
C22    C     0.18621   0.16024   0.08850   0.00000  Uiso   1.00
C23    C     0.13868   0.15965   0.45635   0.00000  Uiso   1.00
C24    C     0.19465   0.17368   0.04364   0.00000  Uiso   1.00
C25    C     0.09322   0.14208   0.48290   0.00000  Uiso   1.00
C26    C     0.24011   0.19126   0.01710   0.00000  Uiso   1.00
C27    C     0.17403   0.16621   0.47578   0.00000  Uiso   1.00
C28    C     0.15931   0.16713   0.02422   0.00000  Uiso   1.00
C29    C     0.10988   0.16061   0.05181   0.00000  Uiso   1.00
C30    C     0.22346   0.17273   0.44819   0.00000  Uiso   1.00
C31    C     0.08034   0.14056   0.03212   0.00000  Uiso   1.00
C32    C     0.25300   0.19278   0.46788   0.00000  Uiso   1.00
H33    H     0.15575   0.14100   0.10624   0.00000  Uiso   1.00
H34    H     0.17758   0.19234   0.39376   0.00000  Uiso   1.00
H35    H     0.27904   0.20316   0.10767   0.00000  Uiso   1.00
H36    H     0.05430   0.13018   0.39233   0.00000  Uiso   1.00
C37    C     0.19229   0.31113   0.27270   0.00000  Uiso   1.00
C38    C     0.14104   0.02221   0.22730   0.00000  Uiso   1.00
H39    H     0.21200   0.29392   0.29051   0.00000  Uiso   1.00
H40    H     0.12134   0.03942   0.20948   0.00000  Uiso   1.00
C41    C     0.19407   0.02060   0.27125   0.00000  Uiso   1.00
C42    C     0.13926   0.31273   0.22875   0.00000  Uiso   1.00
H43    H     0.21430   0.03653   0.28862   0.00000  Uiso   1.00
H44    H     0.11903   0.29680   0.21138   0.00000  Uiso   1.00
C45    C     0.16840   0.04251   0.24861   0.00000  Uiso   1.00
C46    C     0.16493   0.29083   0.25139   0.00000  Uiso   1.00
C47    C     0.31927   0.13352   0.23027   0.00000  Uiso   1.00
C48    C     0.01407   0.19982   0.26974   0.00000  Uiso   1.00
C49    C     0.03356   0.13408   0.23081   0.00000  Uiso   1.00
C50    C     0.29978   0.19925   0.26919   0.00000  Uiso   1.00
H51    H     0.05991   0.10858   0.21622   0.00000  Uiso   1.00
H52    H     0.27342   0.22475   0.28378   0.00000  Uiso   1.00
N53    N     0.04759   0.16668   0.25001   0.00000  Uiso   1.00
N54    N     0.28574   0.16666   0.24999   0.00000  Uiso   1.00
C55    C     0.03728   0.11790   0.06472   0.00000  Uiso   1.00
C56    C     0.04716   0.07038   0.05899   0.00000  Uiso   1.00
H57    H     0.06035   0.05988   0.02196   0.00000  Uiso   1.00
H58    H     0.07556   0.06087   0.07253   0.00000  Uiso   1.00
H59    H     0.01339   0.05421   0.07882   0.00000  Uiso   1.00
H60    H     0.02995   0.12540   0.10165   0.00000  Uiso   1.00
H61    H     0.00337   0.12853   0.06086   0.00000  Uiso   1.00
C62    C     0.29605   0.21543   0.43528   0.00000  Uiso   1.00
C63    C     0.28618   0.26296   0.44101   0.00000  Uiso   1.00
H64    H     0.25777   0.27246   0.42747   0.00000  Uiso   1.00
H65    H     0.27298   0.27346   0.47804   0.00000  Uiso   1.00
H66    H     0.31994   0.27913   0.42117   0.00000  Uiso   1.00
H67    H     0.32996   0.20481   0.43914   0.00000  Uiso   1.00
H68    H     0.30339   0.20794   0.39835   0.00000  Uiso   1.00
I69    I     0.32880   0.09922   0.48184   0.00000  Uiso   1.00
I70    I     0.00453   0.23412   0.01816   0.00000  Uiso   1.00
I71    I     0.07456   0.19534   0.11661   0.00000  Uiso   1.00
I72    I     0.25878   0.13800   0.38339   0.00000  Uiso   1.00
C73    C     0.30500   0.09544   0.20968   0.00000  Uiso   1.00
C74    C     0.01280   0.06414   0.18147   0.00000  Uiso   1.00
H75    H     0.04267   0.08028   0.15476   0.00000  Uiso   1.00
H76    H     0.02722   0.04688   0.20481   0.00000  Uiso   1.00
H77    H     0.33186   0.04075   0.16377   0.00000  Uiso   1.00
H78    H     0.28067   0.07748   0.23899   0.00000  Uiso   1.00
H79    H     0.28639   0.10613   0.18649   0.00000  Uiso   1.00
C80    C     0.02833   0.23789   0.29034   0.00000  Uiso   1.00
C81    C     0.32053   0.26919   0.31853   0.00000  Uiso   1.00
H82    H     0.30611   0.28645   0.29518   0.00000  Uiso   1.00
H83    H     0.29065   0.25305   0.34524   0.00000  Uiso   1.00
H84    H     0.00147   0.29259   0.33623   0.00000  Uiso   1.00
H85    H     0.04692   0.22720   0.31354   0.00000  Uiso   1.00
H86    H     0.05266   0.25585   0.26103   0.00000  Uiso   1.00
O87    O     0.46179   0.22775   0.25000   0.00000  Uiso   1.00
O88    O     0.53821   0.10558   0.24999   0.00000  Uiso   1.00
O89    O     0.53823   0.22774   0.25000   0.00000  Uiso   1.00
O90    O     0.46177   0.10559   0.25000   0.00000  Uiso   1.00
C91    C     0.49916   0.24661   0.25067   0.00000  Uiso   1.00
C92    C     0.50084   0.08672   0.24933   0.00000  Uiso   1.00
O93    O     0.43994   0.16667   0.31612   0.00000  Uiso   1.00
O94    O     0.56006   0.16666   0.18387   0.00000  Uiso   1.00
O95    O     0.51639   0.16666   0.31612   0.00000  Uiso   1.00
O96    O     0.48361   0.16667   0.18388   0.00000  Uiso   1.00
C97    C     0.46966   0.16639   0.33789   0.00000  Uiso   1.00
C98    C     0.53034   0.16695   0.16211   0.00000  Uiso   1.00
Zn99   Zn    0.44896   0.16667   0.25000   0.00000  Uiso   1.00
Zn100  Zn    0.55104   0.16666   0.25000   0.00000  Uiso   1.00
C101   C     0.45134   0.16148   0.38817   0.00000  Uiso   1.00
C102   C     0.54866   0.17186   0.11183   0.00000  Uiso   1.00
C103   C     0.39592   0.13061   0.45844   0.00000  Uiso   1.00
C104   C     0.60408   0.20273   0.04156   0.00000  Uiso   1.00
C105   C     0.40959   0.13998   0.41132   0.00000  Uiso   1.00
C106   C     0.59041   0.19335   0.08868   0.00000  Uiso   1.00
C107   C     0.48046   0.17309   0.41150   0.00000  Uiso   1.00
C108   C     0.51954   0.16024   0.08850   0.00000  Uiso   1.00
C109   C     0.47201   0.15965   0.45635   0.00000  Uiso   1.00
C110   C     0.52799   0.17368   0.04364   0.00000  Uiso   1.00
C111   C     0.42656   0.14208   0.48290   0.00000  Uiso   1.00
C112   C     0.57344   0.19126   0.01710   0.00000  Uiso   1.00
C113   C     0.50736   0.16621   0.47578   0.00000  Uiso   1.00
C114   C     0.49264   0.16713   0.02422   0.00000  Uiso   1.00
C115   C     0.44321   0.16061   0.05181   0.00000  Uiso   1.00
C116   C     0.55679   0.17273   0.44819   0.00000  Uiso   1.00
C117   C     0.41367   0.14056   0.03212   0.00000  Uiso   1.00
C118   C     0.58633   0.19278   0.46788   0.00000  Uiso   1.00
H119   H     0.48908   0.14100   0.10624   0.00000  Uiso   1.00
H120   H     0.51092   0.19234   0.39376   0.00000  Uiso   1.00
H121   H     0.61237   0.20316   0.10767   0.00000  Uiso   1.00
H122   H     0.38763   0.13018   0.39233   0.00000  Uiso   1.00
C123   C     0.52563   0.31113   0.27270   0.00000  Uiso   1.00
C124   C     0.47437   0.02221   0.22730   0.00000  Uiso   1.00
H125   H     0.54533   0.29392   0.29051   0.00000  Uiso   1.00
H126   H     0.45467   0.03942   0.20948   0.00000  Uiso   1.00
C127   C     0.52741   0.02060   0.27125   0.00000  Uiso   1.00
C128   C     0.47259   0.31273   0.22875   0.00000  Uiso   1.00
H129   H     0.54764   0.03653   0.28862   0.00000  Uiso   1.00
H130   H     0.45236   0.29680   0.21138   0.00000  Uiso   1.00
C131   C     0.50173   0.04251   0.24861   0.00000  Uiso   1.00
C132   C     0.49827   0.29083   0.25139   0.00000  Uiso   1.00
C133   C     0.65260   0.13352   0.23027   0.00000  Uiso   1.00
C134   C     0.34740   0.19982   0.26974   0.00000  Uiso   1.00
C135   C     0.36689   0.13408   0.23081   0.00000  Uiso   1.00
C136   C     0.63311   0.19925   0.26919   0.00000  Uiso   1.00
H137   H     0.39324   0.10858   0.21622   0.00000  Uiso   1.00
H138   H     0.60676   0.22475   0.28378   0.00000  Uiso   1.00
N139   N     0.38093   0.16668   0.25001   0.00000  Uiso   1.00
N140   N     0.61907   0.16666   0.24999   0.00000  Uiso   1.00
C141   C     0.37062   0.11790   0.06472   0.00000  Uiso   1.00
C142   C     0.38049   0.07038   0.05899   0.00000  Uiso   1.00
H143   H     0.39369   0.05988   0.02196   0.00000  Uiso   1.00
H144   H     0.40890   0.06087   0.07253   0.00000  Uiso   1.00
H145   H     0.34673   0.05421   0.07882   0.00000  Uiso   1.00
H146   H     0.36328   0.12540   0.10165   0.00000  Uiso   1.00
H147   H     0.33671   0.12853   0.06086   0.00000  Uiso   1.00
C148   C     0.62939   0.21543   0.43528   0.00000  Uiso   1.00
C149   C     0.61951   0.26296   0.44101   0.00000  Uiso   1.00
H150   H     0.59111   0.27246   0.42747   0.00000  Uiso   1.00
H151   H     0.60632   0.27346   0.47804   0.00000  Uiso   1.00
H152   H     0.65328   0.27913   0.42117   0.00000  Uiso   1.00
H153   H     0.66330   0.20481   0.43914   0.00000  Uiso   1.00
H154   H     0.63672   0.20794   0.39835   0.00000  Uiso   1.00
I155   I     0.66214   0.09922   0.48184   0.00000  Uiso   1.00
I156   I     0.33786   0.23412   0.01816   0.00000  Uiso   1.00
I157   I     0.40789   0.19534   0.11661   0.00000  Uiso   1.00
I158   I     0.59211   0.13800   0.38339   0.00000  Uiso   1.00
C159   C     0.63833   0.09544   0.20968   0.00000  Uiso   1.00
C160   C     0.34613   0.06414   0.18147   0.00000  Uiso   1.00
H161   H     0.37600   0.08028   0.15476   0.00000  Uiso   1.00
H162   H     0.36055   0.04688   0.20481   0.00000  Uiso   1.00
H163   H     0.66519   0.04075   0.16377   0.00000  Uiso   1.00
H164   H     0.61401   0.07748   0.23899   0.00000  Uiso   1.00
H165   H     0.61973   0.10613   0.18649   0.00000  Uiso   1.00
C166   C     0.36166   0.23789   0.29034   0.00000  Uiso   1.00
C167   C     0.65386   0.26919   0.31853   0.00000  Uiso   1.00
H168   H     0.63944   0.28645   0.29518   0.00000  Uiso   1.00
H169   H     0.62399   0.25305   0.34524   0.00000  Uiso   1.00
H170   H     0.33480   0.29259   0.33623   0.00000  Uiso   1.00
H171   H     0.38025   0.22720   0.31354   0.00000  Uiso   1.00
H172   H     0.38600   0.25585   0.26103   0.00000  Uiso   1.00
O173   O     0.79512   0.22775   0.25000   0.00000  Uiso   1.00
O174   O     0.87154   0.10558   0.24999   0.00000  Uiso   1.00
O175   O     0.87157   0.22774   0.25000   0.00000  Uiso   1.00
O176   O     0.79510   0.10559   0.25000   0.00000  Uiso   1.00
C177   C     0.83249   0.24661   0.25067   0.00000  Uiso   1.00
C178   C     0.83417   0.08672   0.24933   0.00000  Uiso   1.00
O179   O     0.77328   0.16667   0.31612   0.00000  Uiso   1.00
O180   O     0.89339   0.16666   0.18387   0.00000  Uiso   1.00
O181   O     0.84972   0.16666   0.31612   0.00000  Uiso   1.00
O182   O     0.81695   0.16667   0.18388   0.00000  Uiso   1.00
C183   C     0.80299   0.16639   0.33789   0.00000  Uiso   1.00
C184   C     0.86367   0.16695   0.16211   0.00000  Uiso   1.00
Zn185  Zn    0.78229   0.16667   0.25000   0.00000  Uiso   1.00
Zn186  Zn    0.88438   0.16666   0.25000   0.00000  Uiso   1.00
C187   C     0.78467   0.16148   0.38817   0.00000  Uiso   1.00
C188   C     0.88200   0.17186   0.11183   0.00000  Uiso   1.00
C189   C     0.72925   0.13061   0.45844   0.00000  Uiso   1.00
C190   C     0.93741   0.20273   0.04156   0.00000  Uiso   1.00
C191   C     0.74293   0.13998   0.41132   0.00000  Uiso   1.00
C192   C     0.92374   0.19335   0.08868   0.00000  Uiso   1.00
C193   C     0.81379   0.17309   0.41150   0.00000  Uiso   1.00
C194   C     0.85288   0.16024   0.08850   0.00000  Uiso   1.00
C195   C     0.80535   0.15965   0.45635   0.00000  Uiso   1.00
C196   C     0.86132   0.17368   0.04364   0.00000  Uiso   1.00
C197   C     0.75989   0.14208   0.48290   0.00000  Uiso   1.00
C198   C     0.90678   0.19126   0.01710   0.00000  Uiso   1.00
C199   C     0.84069   0.16621   0.47578   0.00000  Uiso   1.00
C200   C     0.82598   0.16713   0.02422   0.00000  Uiso   1.00
C201   C     0.77654   0.16061   0.05181   0.00000  Uiso   1.00
C202   C     0.89012   0.17273   0.44819   0.00000  Uiso   1.00
C203   C     0.74700   0.14056   0.03212   0.00000  Uiso   1.00
C204   C     0.91967   0.19278   0.46788   0.00000  Uiso   1.00
H205   H     0.82242   0.14100   0.10624   0.00000  Uiso   1.00
H206   H     0.84425   0.19234   0.39376   0.00000  Uiso   1.00
H207   H     0.94570   0.20316   0.10767   0.00000  Uiso   1.00
H208   H     0.72096   0.13018   0.39233   0.00000  Uiso   1.00
C209   C     0.85896   0.31113   0.27270   0.00000  Uiso   1.00
C210   C     0.80770   0.02221   0.22730   0.00000  Uiso   1.00
H211   H     0.87866   0.29392   0.29051   0.00000  Uiso   1.00
H212   H     0.78801   0.03942   0.20948   0.00000  Uiso   1.00
C213   C     0.86074   0.02060   0.27125   0.00000  Uiso   1.00
C214   C     0.80592   0.31273   0.22875   0.00000  Uiso   1.00
H215   H     0.88097   0.03653   0.28862   0.00000  Uiso   1.00
H216   H     0.78569   0.29680   0.21138   0.00000  Uiso   1.00
C217   C     0.83506   0.04251   0.24861   0.00000  Uiso   1.00
C218   C     0.83160   0.29083   0.25139   0.00000  Uiso   1.00
C219   C     0.98593   0.13352   0.23027   0.00000  Uiso   1.00
C220   C     0.68073   0.19982   0.26974   0.00000  Uiso   1.00
C221   C     0.70022   0.13408   0.23081   0.00000  Uiso   1.00
C222   C     0.96644   0.19925   0.26919   0.00000  Uiso   1.00
H223   H     0.72657   0.10858   0.21622   0.00000  Uiso   1.00
H224   H     0.94009   0.22475   0.28378   0.00000  Uiso   1.00
N225   N     0.71426   0.16668   0.25001   0.00000  Uiso   1.00
N226   N     0.95241   0.16666   0.24999   0.00000  Uiso   1.00
C227   C     0.70395   0.11790   0.06472   0.00000  Uiso   1.00
C228   C     0.71383   0.07038   0.05899   0.00000  Uiso   1.00
H229   H     0.72702   0.05988   0.02196   0.00000  Uiso   1.00
H230   H     0.74223   0.06087   0.07253   0.00000  Uiso   1.00
H231   H     0.68006   0.05421   0.07882   0.00000  Uiso   1.00
H232   H     0.69661   0.12540   0.10165   0.00000  Uiso   1.00
H233   H     0.67004   0.12853   0.06086   0.00000  Uiso   1.00
C234   C     0.96272   0.21543   0.43528   0.00000  Uiso   1.00
C235   C     0.95284   0.26296   0.44101   0.00000  Uiso   1.00
H236   H     0.92444   0.27246   0.42747   0.00000  Uiso   1.00
H237   H     0.93965   0.27346   0.47804   0.00000  Uiso   1.00
H238   H     0.98661   0.27913   0.42117   0.00000  Uiso   1.00
H239   H     0.99663   0.20481   0.43914   0.00000  Uiso   1.00
H240   H     0.97006   0.20794   0.39835   0.00000  Uiso   1.00
I241   I     0.99547   0.09922   0.48184   0.00000  Uiso   1.00
I242   I     0.67120   0.23412   0.01816   0.00000  Uiso   1.00
I243   I     0.74123   0.19534   0.11661   0.00000  Uiso   1.00
I244   I     0.92544   0.13800   0.38339   0.00000  Uiso   1.00
C245   C     0.97166   0.09544   0.20968   0.00000  Uiso   1.00
C246   C     0.67946   0.06414   0.18147   0.00000  Uiso   1.00
H247   H     0.70933   0.08028   0.15476   0.00000  Uiso   1.00
H248   H     0.69389   0.04688   0.20481   0.00000  Uiso   1.00
H249   H     0.99852   0.04075   0.16377   0.00000  Uiso   1.00
H250   H     0.94734   0.07748   0.23899   0.00000  Uiso   1.00
H251   H     0.95306   0.10613   0.18649   0.00000  Uiso   1.00
C252   C     0.69500   0.23789   0.29034   0.00000  Uiso   1.00
C253   C     0.98719   0.26919   0.31853   0.00000  Uiso   1.00
H254   H     0.97278   0.28645   0.29518   0.00000  Uiso   1.00
H255   H     0.95732   0.25305   0.34524   0.00000  Uiso   1.00
H256   H     0.66813   0.29259   0.33623   0.00000  Uiso   1.00
H257   H     0.71358   0.22720   0.31354   0.00000  Uiso   1.00
H258   H     0.71933   0.25585   0.26103   0.00000  Uiso   1.00
O259   O     0.12846   0.56108   0.25000   0.00000  Uiso   1.00
O260   O     0.20488   0.43892   0.24999   0.00000  Uiso   1.00
O261   O     0.20490   0.56107   0.25000   0.00000  Uiso   1.00
O262   O     0.12843   0.43893   0.25000   0.00000  Uiso   1.00
C263   C     0.16583   0.57995   0.25067   0.00000  Uiso   1.00
C264   C     0.16751   0.42005   0.24933   0.00000  Uiso   1.00
O265   O     0.10661   0.50001   0.31612   0.00000  Uiso   1.00
O266   O     0.22672   0.49999   0.18387   0.00000  Uiso   1.00
O267   O     0.18305   0.50000   0.31612   0.00000  Uiso   1.00
O268   O     0.15028   0.50000   0.18388   0.00000  Uiso   1.00
C269   C     0.13633   0.49972   0.33789   0.00000  Uiso   1.00
C270   C     0.19701   0.50028   0.16211   0.00000  Uiso   1.00
Zn271  Zn    0.11562   0.50001   0.25000   0.00000  Uiso   1.00
Zn272  Zn    0.21771   0.49999   0.25000   0.00000  Uiso   1.00
C273   C     0.11800   0.49481   0.38817   0.00000  Uiso   1.00
C274   C     0.21533   0.50519   0.11183   0.00000  Uiso   1.00
C275   C     0.06259   0.46394   0.45844   0.00000  Uiso   1.00
C276   C     0.27075   0.53606   0.04156   0.00000  Uiso   1.00
C277   C     0.07626   0.47331   0.41132   0.00000  Uiso   1.00
C278   C     0.25707   0.52669   0.08868   0.00000  Uiso   1.00
C279   C     0.14713   0.50643   0.41150   0.00000  Uiso   1.00
C280   C     0.18621   0.49358   0.08850   0.00000  Uiso   1.00
C281   C     0.13868   0.49299   0.45635   0.00000  Uiso   1.00
C282   C     0.19465   0.50702   0.04364   0.00000  Uiso   1.00
C283   C     0.09322   0.47541   0.48290   0.00000  Uiso   1.00
C284   C     0.24011   0.52459   0.01710   0.00000  Uiso   1.00
C285   C     0.17403   0.49954   0.47578   0.00000  Uiso   1.00
C286   C     0.15931   0.50046   0.02422   0.00000  Uiso   1.00
C287   C     0.10988   0.49394   0.05181   0.00000  Uiso   1.00
C288   C     0.22346   0.50606   0.44819   0.00000  Uiso   1.00
C289   C     0.08034   0.47389   0.03212   0.00000  Uiso   1.00
C290   C     0.25300   0.52611   0.46788   0.00000  Uiso   1.00
H291   H     0.15575   0.47433   0.10624   0.00000  Uiso   1.00
H292   H     0.17758   0.52567   0.39376   0.00000  Uiso   1.00
H293   H     0.27904   0.53649   0.10767   0.00000  Uiso   1.00
H294   H     0.05430   0.46351   0.39233   0.00000  Uiso   1.00
C295   C     0.19229   0.64446   0.27270   0.00000  Uiso   1.00
C296   C     0.14104   0.35554   0.22730   0.00000  Uiso   1.00
H297   H     0.21200   0.62725   0.29051   0.00000  Uiso   1.00
H298   H     0.12134   0.37275   0.20948   0.00000  Uiso   1.00
C299   C     0.19407   0.35394   0.27125   0.00000  Uiso   1.00
C300   C     0.13926   0.64606   0.22875   0.00000  Uiso   1.00
H301   H     0.21430   0.36986   0.28862   0.00000  Uiso   1.00
H302   H     0.11903   0.63014   0.21138   0.00000  Uiso   1.00
C303   C     0.16840   0.37584   0.24861   0.00000  Uiso   1.00
C304   C     0.16493   0.62416   0.25139   0.00000  Uiso   1.00
C305   C     0.31927   0.46685   0.23027   0.00000  Uiso   1.00
C306   C     0.01407   0.53315   0.26974   0.00000  Uiso   1.00
C307   C     0.03356   0.46741   0.23081   0.00000  Uiso   1.00
C308   C     0.29978   0.53259   0.26919   0.00000  Uiso   1.00
H309   H     0.05991   0.44191   0.21622   0.00000  Uiso   1.00
H310   H     0.27342   0.55809   0.28378   0.00000  Uiso   1.00
N311   N     0.04759   0.50001   0.25001   0.00000  Uiso   1.00
N312   N     0.28574   0.49999   0.24999   0.00000  Uiso   1.00
C313   C     0.03728   0.45124   0.06472   0.00000  Uiso   1.00
C314   C     0.04716   0.40371   0.05899   0.00000  Uiso   1.00
H315   H     0.06035   0.39321   0.02196   0.00000  Uiso   1.00
H316   H     0.07556   0.39420   0.07253   0.00000  Uiso   1.00
H317   H     0.01339   0.38754   0.07882   0.00000  Uiso   1.00
H318   H     0.02995   0.45873   0.10165   0.00000  Uiso   1.00
H319   H     0.00337   0.46186   0.06086   0.00000  Uiso   1.00
C320   C     0.29605   0.54876   0.43528   0.00000  Uiso   1.00
C321   C     0.28618   0.59629   0.44101   0.00000  Uiso   1.00
H322   H     0.25777   0.60580   0.42747   0.00000  Uiso   1.00
H323   H     0.27298   0.60679   0.47804   0.00000  Uiso   1.00
H324   H     0.31994   0.61246   0.42117   0.00000  Uiso   1.00
H325   H     0.32996   0.53814   0.43914   0.00000  Uiso   1.00
H326   H     0.30339   0.54127   0.39835   0.00000  Uiso   1.00
I327   I     0.32880   0.43255   0.48184   0.00000  Uiso   1.00
I328   I     0.00453   0.56745   0.01816   0.00000  Uiso   1.00
I329   I     0.07456   0.52867   0.11661   0.00000  Uiso   1.00
I330   I     0.25878   0.47133   0.38339   0.00000  Uiso   1.00
C331   C     0.30500   0.42877   0.20968   0.00000  Uiso   1.00
C332   C     0.01280   0.39748   0.18147   0.00000  Uiso   1.00
H333   H     0.04267   0.41362   0.15476   0.00000  Uiso   1.00
H334   H     0.02722   0.38022   0.20481   0.00000  Uiso   1.00
H335   H     0.33186   0.37408   0.16377   0.00000  Uiso   1.00
H336   H     0.28067   0.41081   0.23899   0.00000  Uiso   1.00
H337   H     0.28639   0.43946   0.18649   0.00000  Uiso   1.00
C338   C     0.02833   0.57122   0.29034   0.00000  Uiso   1.00
C339   C     0.32053   0.60252   0.31853   0.00000  Uiso   1.00
H340   H     0.30611   0.61978   0.29518   0.00000  Uiso   1.00
H341   H     0.29065   0.58639   0.34524   0.00000  Uiso   1.00
H342   H     0.00147   0.62592   0.33623   0.00000  Uiso   1.00
H343   H     0.04692   0.56053   0.31354   0.00000  Uiso   1.00
H344   H     0.05266   0.58919   0.26103   0.00000  Uiso   1.00
O345   O     0.46179   0.56108   0.25000   0.00000  Uiso   1.00
O346   O     0.53821   0.43892   0.24999   0.00000  Uiso   1.00
O347   O     0.53823   0.56107   0.25000   0.00000  Uiso   1.00
O348   O     0.46177   0.43893   0.25000   0.00000  Uiso   1.00
C349   C     0.49916   0.57995   0.25067   0.00000  Uiso   1.00
C350   C     0.50084   0.42005   0.24933   0.00000  Uiso   1.00
O351   O     0.43994   0.50001   0.31612   0.00000  Uiso   1.00
O352   O     0.56006   0.49999   0.18387   0.00000  Uiso   1.00
O353   O     0.51639   0.50000   0.31612   0.00000  Uiso   1.00
O354   O     0.48361   0.50000   0.18388   0.00000  Uiso   1.00
C355   C     0.46966   0.49972   0.33789   0.00000  Uiso   1.00
C356   C     0.53034   0.50028   0.16211   0.00000  Uiso   1.00
Zn357  Zn    0.44896   0.50001   0.25000   0.00000  Uiso   1.00
Zn358  Zn    0.55104   0.49999   0.25000   0.00000  Uiso   1.00
C359   C     0.45134   0.49481   0.38817   0.00000  Uiso   1.00
C360   C     0.54866   0.50519   0.11183   0.00000  Uiso   1.00
C361   C     0.39592   0.46394   0.45844   0.00000  Uiso   1.00
C362   C     0.60408   0.53606   0.04156   0.00000  Uiso   1.00
C363   C     0.40959   0.47331   0.41132   0.00000  Uiso   1.00
C364   C     0.59041   0.52669   0.08868   0.00000  Uiso   1.00
C365   C     0.48046   0.50643   0.41150   0.00000  Uiso   1.00
C366   C     0.51954   0.49358   0.08850   0.00000  Uiso   1.00
C367   C     0.47201   0.49299   0.45635   0.00000  Uiso   1.00
C368   C     0.52799   0.50702   0.04364   0.00000  Uiso   1.00
C369   C     0.42656   0.47541   0.48290   0.00000  Uiso   1.00
C370   C     0.57344   0.52459   0.01710   0.00000  Uiso   1.00
C371   C     0.50736   0.49954   0.47578   0.00000  Uiso   1.00
C372   C     0.49264   0.50046   0.02422   0.00000  Uiso   1.00
C373   C     0.44321   0.49394   0.05181   0.00000  Uiso   1.00
C374   C     0.55679   0.50606   0.44819   0.00000  Uiso   1.00
C375   C     0.41367   0.47389   0.03212   0.00000  Uiso   1.00
C376   C     0.58633   0.52611   0.46788   0.00000  Uiso   1.00
H377   H     0.48908   0.47433   0.10624   0.00000  Uiso   1.00
H378   H     0.51092   0.52567   0.39376   0.00000  Uiso   1.00
H379   H     0.61237   0.53649   0.10767   0.00000  Uiso   1.00
H380   H     0.38763   0.46351   0.39233   0.00000  Uiso   1.00
C381   C     0.52563   0.64446   0.27270   0.00000  Uiso   1.00
C382   C     0.47437   0.35554   0.22730   0.00000  Uiso   1.00
H383   H     0.54533   0.62725   0.29051   0.00000  Uiso   1.00
H384   H     0.45467   0.37275   0.20948   0.00000  Uiso   1.00
C385   C     0.52741   0.35394   0.27125   0.00000  Uiso   1.00
C386   C     0.47259   0.64606   0.22875   0.00000  Uiso   1.00
H387   H     0.54764   0.36986   0.28862   0.00000  Uiso   1.00
H388   H     0.45236   0.63014   0.21138   0.00000  Uiso   1.00
C389   C     0.50173   0.37584   0.24861   0.00000  Uiso   1.00
C390   C     0.49827   0.62416   0.25139   0.00000  Uiso   1.00
C391   C     0.65260   0.46685   0.23027   0.00000  Uiso   1.00
C392   C     0.34740   0.53315   0.26974   0.00000  Uiso   1.00
C393   C     0.36689   0.46741   0.23081   0.00000  Uiso   1.00
C394   C     0.63311   0.53259   0.26919   0.00000  Uiso   1.00
H395   H     0.39324   0.44191   0.21622   0.00000  Uiso   1.00
H396   H     0.60676   0.55809   0.28378   0.00000  Uiso   1.00
N397   N     0.38093   0.50001   0.25001   0.00000  Uiso   1.00
N398   N     0.61907   0.49999   0.24999   0.00000  Uiso   1.00
C399   C     0.37062   0.45124   0.06472   0.00000  Uiso   1.00
C400   C     0.38049   0.40371   0.05899   0.00000  Uiso   1.00
H401   H     0.39369   0.39321   0.02196   0.00000  Uiso   1.00
H402   H     0.40890   0.39420   0.07253   0.00000  Uiso   1.00
H403   H     0.34673   0.38754   0.07882   0.00000  Uiso   1.00
H404   H     0.36328   0.45873   0.10165   0.00000  Uiso   1.00
H405   H     0.33671   0.46186   0.06086   0.00000  Uiso   1.00
C406   C     0.62939   0.54876   0.43528   0.00000  Uiso   1.00
C407   C     0.61951   0.59629   0.44101   0.00000  Uiso   1.00
H408   H     0.59111   0.60580   0.42747   0.00000  Uiso   1.00
H409   H     0.60632   0.60679   0.47804   0.00000  Uiso   1.00
H410   H     0.65328   0.61246   0.42117   0.00000  Uiso   1.00
H411   H     0.66330   0.53814   0.43914   0.00000  Uiso   1.00
H412   H     0.63672   0.54127   0.39835   0.00000  Uiso   1.00
I413   I     0.66214   0.43255   0.48184   0.00000  Uiso   1.00
I414   I     0.33786   0.56745   0.01816   0.00000  Uiso   1.00
I415   I     0.40789   0.52867   0.11661   0.00000  Uiso   1.00
I416   I     0.59211   0.47133   0.38339   0.00000  Uiso   1.00
C417   C     0.63833   0.42877   0.20968   0.00000  Uiso   1.00
C418   C     0.34613   0.39748   0.18147   0.00000  Uiso   1.00
H419   H     0.37600   0.41362   0.15476   0.00000  Uiso   1.00
H420   H     0.36055   0.38022   0.20481   0.00000  Uiso   1.00
H421   H     0.66519   0.37408   0.16377   0.00000  Uiso   1.00
H422   H     0.61401   0.41081   0.23899   0.00000  Uiso   1.00
H423   H     0.61973   0.43946   0.18649   0.00000  Uiso   1.00
C424   C     0.36166   0.57122   0.29034   0.00000  Uiso   1.00
C425   C     0.65386   0.60252   0.31853   0.00000  Uiso   1.00
H426   H     0.63944   0.61978   0.29518   0.00000  Uiso   1.00
H427   H     0.62399   0.58639   0.34524   0.00000  Uiso   1.00
H428   H     0.33480   0.62592   0.33623   0.00000  Uiso   1.00
H429   H     0.38025   0.56053   0.31354   0.00000  Uiso   1.00
H430   H     0.38600   0.58919   0.26103   0.00000  Uiso   1.00
O431   O     0.79512   0.56108   0.25000   0.00000  Uiso   1.00
O432   O     0.87154   0.43892   0.24999   0.00000  Uiso   1.00
O433   O     0.87157   0.56107   0.25000   0.00000  Uiso   1.00
O434   O     0.79510   0.43893   0.25000   0.00000  Uiso   1.00
C435   C     0.83249   0.57995   0.25067   0.00000  Uiso   1.00
C436   C     0.83417   0.42005   0.24933   0.00000  Uiso   1.00
O437   O     0.77328   0.50001   0.31612   0.00000  Uiso   1.00
O438   O     0.89339   0.49999   0.18387   0.00000  Uiso   1.00
O439   O     0.84972   0.50000   0.31612   0.00000  Uiso   1.00
O440   O     0.81695   0.50000   0.18388   0.00000  Uiso   1.00
C441   C     0.80299   0.49972   0.33789   0.00000  Uiso   1.00
C442   C     0.86367   0.50028   0.16211   0.00000  Uiso   1.00
Zn443  Zn    0.78229   0.50001   0.25000   0.00000  Uiso   1.00
Zn444  Zn    0.88438   0.49999   0.25000   0.00000  Uiso   1.00
C445   C     0.78467   0.49481   0.38817   0.00000  Uiso   1.00
C446   C     0.88200   0.50519   0.11183   0.00000  Uiso   1.00
C447   C     0.72925   0.46394   0.45844   0.00000  Uiso   1.00
C448   C     0.93741   0.53606   0.04156   0.00000  Uiso   1.00
C449   C     0.74293   0.47331   0.41132   0.00000  Uiso   1.00
C450   C     0.92374   0.52669   0.08868   0.00000  Uiso   1.00
C451   C     0.81379   0.50643   0.41150   0.00000  Uiso   1.00
C452   C     0.85288   0.49358   0.08850   0.00000  Uiso   1.00
C453   C     0.80535   0.49299   0.45635   0.00000  Uiso   1.00
C454   C     0.86132   0.50702   0.04364   0.00000  Uiso   1.00
C455   C     0.75989   0.47541   0.48290   0.00000  Uiso   1.00
C456   C     0.90678   0.52459   0.01710   0.00000  Uiso   1.00
C457   C     0.84069   0.49954   0.47578   0.00000  Uiso   1.00
C458   C     0.82598   0.50046   0.02422   0.00000  Uiso   1.00
C459   C     0.77654   0.49394   0.05181   0.00000  Uiso   1.00
C460   C     0.89012   0.50606   0.44819   0.00000  Uiso   1.00
C461   C     0.74700   0.47389   0.03212   0.00000  Uiso   1.00
C462   C     0.91967   0.52611   0.46788   0.00000  Uiso   1.00
H463   H     0.82242   0.47433   0.10624   0.00000  Uiso   1.00
H464   H     0.84425   0.52567   0.39376   0.00000  Uiso   1.00
H465   H     0.94570   0.53649   0.10767   0.00000  Uiso   1.00
H466   H     0.72096   0.46351   0.39233   0.00000  Uiso   1.00
C467   C     0.85896   0.64446   0.27270   0.00000  Uiso   1.00
C468   C     0.80770   0.35554   0.22730   0.00000  Uiso   1.00
H469   H     0.87866   0.62725   0.29051   0.00000  Uiso   1.00
H470   H     0.78801   0.37275   0.20948   0.00000  Uiso   1.00
C471   C     0.86074   0.35394   0.27125   0.00000  Uiso   1.00
C472   C     0.80592   0.64606   0.22875   0.00000  Uiso   1.00
H473   H     0.88097   0.36986   0.28862   0.00000  Uiso   1.00
H474   H     0.78569   0.63014   0.21138   0.00000  Uiso   1.00
C475   C     0.83506   0.37584   0.24861   0.00000  Uiso   1.00
C476   C     0.83160   0.62416   0.25139   0.00000  Uiso   1.00
C477   C     0.98593   0.46685   0.23027   0.00000  Uiso   1.00
C478   C     0.68073   0.53315   0.26974   0.00000  Uiso   1.00
C479   C     0.70022   0.46741   0.23081   0.00000  Uiso   1.00
C480   C     0.96644   0.53259   0.26919   0.00000  Uiso   1.00
H481   H     0.72657   0.44191   0.21622   0.00000  Uiso   1.00
H482   H     0.94009   0.55809   0.28378   0.00000  Uiso   1.00
N483   N     0.71426   0.50001   0.25001   0.00000  Uiso   1.00
N484   N     0.95241   0.49999   0.24999   0.00000  Uiso   1.00
C485   C     0.70395   0.45124   0.06472   0.00000  Uiso   1.00
C486   C     0.71383   0.40371   0.05899   0.00000  Uiso   1.00
H487   H     0.72702   0.39321   0.02196   0.00000  Uiso   1.00
H488   H     0.74223   0.39420   0.07253   0.00000  Uiso   1.00
H489   H     0.68006   0.38754   0.07882   0.00000  Uiso   1.00
H490   H     0.69661   0.45873   0.10165   0.00000  Uiso   1.00
H491   H     0.67004   0.46186   0.06086   0.00000  Uiso   1.00
C492   C     0.96272   0.54876   0.43528   0.00000  Uiso   1.00
C493   C     0.95284   0.59629   0.44101   0.00000  Uiso   1.00
H494   H     0.92444   0.60580   0.42747   0.00000  Uiso   1.00
H495   H     0.93965   0.60679   0.47804   0.00000  Uiso   1.00
H496   H     0.98661   0.61246   0.42117   0.00000  Uiso   1.00
H497   H     0.99663   0.53814   0.43914   0.00000  Uiso   1.00
H498   H     0.97006   0.54127   0.39835   0.00000  Uiso   1.00
I499   I     0.99547   0.43255   0.48184   0.00000  Uiso   1.00
I500   I     0.67120   0.56745   0.01816   0.00000  Uiso   1.00
I501   I     0.74123   0.52867   0.11661   0.00000  Uiso   1.00
I502   I     0.92544   0.47133   0.38339   0.00000  Uiso   1.00
C503   C     0.97166   0.42877   0.20968   0.00000  Uiso   1.00
C504   C     0.67946   0.39748   0.18147   0.00000  Uiso   1.00
H505   H     0.70933   0.41362   0.15476   0.00000  Uiso   1.00
H506   H     0.69389   0.38022   0.20481   0.00000  Uiso   1.00
H507   H     0.99852   0.37408   0.16377   0.00000  Uiso   1.00
H508   H     0.94734   0.41081   0.23899   0.00000  Uiso   1.00
H509   H     0.95306   0.43946   0.18649   0.00000  Uiso   1.00
C510   C     0.69500   0.57122   0.29034   0.00000  Uiso   1.00
C511   C     0.98719   0.60252   0.31853   0.00000  Uiso   1.00
H512   H     0.97278   0.61978   0.29518   0.00000  Uiso   1.00
H513   H     0.95732   0.58639   0.34524   0.00000  Uiso   1.00
H514   H     0.66813   0.62592   0.33623   0.00000  Uiso   1.00
H515   H     0.71358   0.56053   0.31354   0.00000  Uiso   1.00
H516   H     0.71933   0.58919   0.26103   0.00000  Uiso   1.00
O517   O     0.12846   0.89442   0.25000   0.00000  Uiso   1.00
O518   O     0.20488   0.77225   0.24999   0.00000  Uiso   1.00
O519   O     0.20490   0.89441   0.25000   0.00000  Uiso   1.00
O520   O     0.12843   0.77226   0.25000   0.00000  Uiso   1.00
C521   C     0.16583   0.91328   0.25067   0.00000  Uiso   1.00
C522   C     0.16751   0.75339   0.24933   0.00000  Uiso   1.00
O523   O     0.10661   0.83334   0.31612   0.00000  Uiso   1.00
O524   O     0.22672   0.83333   0.18387   0.00000  Uiso   1.00
O525   O     0.18305   0.83333   0.31612   0.00000  Uiso   1.00
O526   O     0.15028   0.83334   0.18388   0.00000  Uiso   1.00
C527   C     0.13633   0.83305   0.33789   0.00000  Uiso   1.00
C528   C     0.19701   0.83362   0.16211   0.00000  Uiso   1.00
Zn529  Zn    0.11562   0.83334   0.25000   0.00000  Uiso   1.00
Zn530  Zn    0.21771   0.83333   0.25000   0.00000  Uiso   1.00
C531   C     0.11800   0.82814   0.38817   0.00000  Uiso   1.00
C532   C     0.21533   0.83852   0.11183   0.00000  Uiso   1.00
C533   C     0.06259   0.79727   0.45844   0.00000  Uiso   1.00
C534   C     0.27075   0.86940   0.04156   0.00000  Uiso   1.00
C535   C     0.07626   0.80665   0.41132   0.00000  Uiso   1.00
C536   C     0.25707   0.86002   0.08868   0.00000  Uiso   1.00
C537   C     0.14713   0.83976   0.41150   0.00000  Uiso   1.00
C538   C     0.18621   0.82691   0.08850   0.00000  Uiso   1.00
C539   C     0.13868   0.82632   0.45635   0.00000  Uiso   1.00
C540   C     0.19465   0.84035   0.04364   0.00000  Uiso   1.00
C541   C     0.09322   0.80874   0.48290   0.00000  Uiso   1.00
C542   C     0.24011   0.85793   0.01710   0.00000  Uiso   1.00
C543   C     0.17403   0.83287   0.47578   0.00000  Uiso   1.00
C544   C     0.15931   0.83380   0.02422   0.00000  Uiso   1.00
C545   C     0.10988   0.82727   0.05181   0.00000  Uiso   1.00
C546   C     0.22346   0.83940   0.44819   0.00000  Uiso   1.00
C547   C     0.08034   0.80723   0.03212   0.00000  Uiso   1.00
C548   C     0.25300   0.85944   0.46788   0.00000  Uiso   1.00
H549   H     0.15575   0.80767   0.10624   0.00000  Uiso   1.00
H550   H     0.17758   0.85900   0.39376   0.00000  Uiso   1.00
H551   H     0.27904   0.86982   0.10767   0.00000  Uiso   1.00
H552   H     0.05430   0.79684   0.39233   0.00000  Uiso   1.00
C553   C     0.19229   0.97779   0.27270   0.00000  Uiso   1.00
C554   C     0.14104   0.68887   0.22730   0.00000  Uiso   1.00
H555   H     0.21200   0.96058   0.29051   0.00000  Uiso   1.00
H556   H     0.12134   0.70608   0.20948   0.00000  Uiso   1.00
C557   C     0.19407   0.68727   0.27125   0.00000  Uiso   1.00
C558   C     0.13926   0.97940   0.22875   0.00000  Uiso   1.00
H559   H     0.21430   0.70320   0.28862   0.00000  Uiso   1.00
H560   H     0.11903   0.96347   0.21138   0.00000  Uiso   1.00
C561   C     0.16840   0.70917   0.24861   0.00000  Uiso   1.00
C562   C     0.16493   0.95749   0.25139   0.00000  Uiso   1.00
C563   C     0.31927   0.80018   0.23027   0.00000  Uiso   1.00
C564   C     0.01407   0.86648   0.26974   0.00000  Uiso   1.00
C565   C     0.03356   0.80075   0.23081   0.00000  Uiso   1.00
C566   C     0.29978   0.86592   0.26919   0.00000  Uiso   1.00
H567   H     0.05991   0.77525   0.21622   0.00000  Uiso   1.00
H568   H     0.27342   0.89142   0.28378   0.00000  Uiso   1.00
N569   N     0.04759   0.83334   0.25001   0.00000  Uiso   1.00
N570   N     0.28574   0.83332   0.24999   0.00000  Uiso   1.00
C571   C     0.03728   0.78457   0.06472   0.00000  Uiso   1.00
C572   C     0.04716   0.73704   0.05899   0.00000  Uiso   1.00
H573   H     0.06035   0.72654   0.02196   0.00000  Uiso   1.00
H574   H     0.07556   0.72754   0.07253   0.00000  Uiso   1.00
H575   H     0.01339   0.72087   0.07882   0.00000  Uiso   1.00
H576   H     0.02995   0.79207   0.10165   0.00000  Uiso   1.00
H577   H     0.00337   0.79520   0.06086   0.00000  Uiso   1.00
C578   C     0.29605   0.88210   0.43528   0.00000  Uiso   1.00
C579   C     0.28618   0.92963   0.44101   0.00000  Uiso   1.00
H580   H     0.25777   0.93913   0.42747   0.00000  Uiso   1.00
H581   H     0.27298   0.94013   0.47804   0.00000  Uiso   1.00
H582   H     0.31994   0.94580   0.42117   0.00000  Uiso   1.00
H583   H     0.32996   0.87147   0.43914   0.00000  Uiso   1.00
H584   H     0.30339   0.87460   0.39835   0.00000  Uiso   1.00
I585   I     0.32880   0.76589   0.48184   0.00000  Uiso   1.00
I586   I     0.00453   0.90078   0.01816   0.00000  Uiso   1.00
I587   I     0.07456   0.86201   0.11661   0.00000  Uiso   1.00
I588   I     0.25878   0.80466   0.38339   0.00000  Uiso   1.00
C589   C     0.30500   0.76211   0.20968   0.00000  Uiso   1.00
C590   C     0.01280   0.73081   0.18147   0.00000  Uiso   1.00
H591   H     0.04267   0.74695   0.15476   0.00000  Uiso   1.00
H592   H     0.02722   0.71355   0.20481   0.00000  Uiso   1.00
H593   H     0.33186   0.70742   0.16377   0.00000  Uiso   1.00
H594   H     0.28067   0.74415   0.23899   0.00000  Uiso   1.00
H595   H     0.28639   0.77279   0.18649   0.00000  Uiso   1.00
C596   C     0.02833   0.90456   0.29034   0.00000  Uiso   1.00
C597   C     0.32053   0.93586   0.31853   0.00000  Uiso   1.00
H598   H     0.30611   0.95311   0.29518   0.00000  Uiso   1.00
H599   H     0.29065   0.91972   0.34524   0.00000  Uiso   1.00
H600   H     0.00147   0.95925   0.33623   0.00000  Uiso   1.00
H601   H     0.04692   0.89386   0.31354   0.00000  Uiso   1.00
H602   H     0.05266   0.92252   0.26103   0.00000  Uiso   1.00
O603   O     0.46179   0.89442   0.25000   0.00000  Uiso   1.00
O604   O     0.53821   0.77225   0.24999   0.00000  Uiso   1.00
O605   O     0.53823   0.89441   0.25000   0.00000  Uiso   1.00
O606   O     0.46177   0.77226   0.25000   0.00000  Uiso   1.00
C607   C     0.49916   0.91328   0.25067   0.00000  Uiso   1.00
C608   C     0.50084   0.75339   0.24933   0.00000  Uiso   1.00
O609   O     0.43994   0.83334   0.31612   0.00000  Uiso   1.00
O610   O     0.56006   0.83333   0.18387   0.00000  Uiso   1.00
O611   O     0.51639   0.83333   0.31612   0.00000  Uiso   1.00
O612   O     0.48361   0.83334   0.18388   0.00000  Uiso   1.00
C613   C     0.46966   0.83305   0.33789   0.00000  Uiso   1.00
C614   C     0.53034   0.83362   0.16211   0.00000  Uiso   1.00
Zn615  Zn    0.44896   0.83334   0.25000   0.00000  Uiso   1.00
Zn616  Zn    0.55104   0.83333   0.25000   0.00000  Uiso   1.00
C617   C     0.45134   0.82814   0.38817   0.00000  Uiso   1.00
C618   C     0.54866   0.83852   0.11183   0.00000  Uiso   1.00
C619   C     0.39592   0.79727   0.45844   0.00000  Uiso   1.00
C620   C     0.60408   0.86940   0.04156   0.00000  Uiso   1.00
C621   C     0.40959   0.80665   0.41132   0.00000  Uiso   1.00
C622   C     0.59041   0.86002   0.08868   0.00000  Uiso   1.00
C623   C     0.48046   0.83976   0.41150   0.00000  Uiso   1.00
C624   C     0.51954   0.82691   0.08850   0.00000  Uiso   1.00
C625   C     0.47201   0.82632   0.45635   0.00000  Uiso   1.00
C626   C     0.52799   0.84035   0.04364   0.00000  Uiso   1.00
C627   C     0.42656   0.80874   0.48290   0.00000  Uiso   1.00
C628   C     0.57344   0.85793   0.01710   0.00000  Uiso   1.00
C629   C     0.50736   0.83287   0.47578   0.00000  Uiso   1.00
C630   C     0.49264   0.83380   0.02422   0.00000  Uiso   1.00
C631   C     0.44321   0.82727   0.05181   0.00000  Uiso   1.00
C632   C     0.55679   0.83940   0.44819   0.00000  Uiso   1.00
C633   C     0.41367   0.80723   0.03212   0.00000  Uiso   1.00
C634   C     0.58633   0.85944   0.46788   0.00000  Uiso   1.00
H635   H     0.48908   0.80767   0.10624   0.00000  Uiso   1.00
H636   H     0.51092   0.85900   0.39376   0.00000  Uiso   1.00
H637   H     0.61237   0.86982   0.10767   0.00000  Uiso   1.00
H638   H     0.38763   0.79684   0.39233   0.00000  Uiso   1.00
C639   C     0.52563   0.97779   0.27270   0.00000  Uiso   1.00
C640   C     0.47437   0.68887   0.22730   0.00000  Uiso   1.00
H641   H     0.54533   0.96058   0.29051   0.00000  Uiso   1.00
H642   H     0.45467   0.70608   0.20948   0.00000  Uiso   1.00
C643   C     0.52741   0.68727   0.27125   0.00000  Uiso   1.00
C644   C     0.47259   0.97940   0.22875   0.00000  Uiso   1.00
H645   H     0.54764   0.70320   0.28862   0.00000  Uiso   1.00
H646   H     0.45236   0.96347   0.21138   0.00000  Uiso   1.00
C647   C     0.50173   0.70917   0.24861   0.00000  Uiso   1.00
C648   C     0.49827   0.95749   0.25139   0.00000  Uiso   1.00
C649   C     0.65260   0.80018   0.23027   0.00000  Uiso   1.00
C650   C     0.34740   0.86648   0.26974   0.00000  Uiso   1.00
C651   C     0.36689   0.80075   0.23081   0.00000  Uiso   1.00
C652   C     0.63311   0.86592   0.26919   0.00000  Uiso   1.00
H653   H     0.39324   0.77525   0.21622   0.00000  Uiso   1.00
H654   H     0.60676   0.89142   0.28378   0.00000  Uiso   1.00
N655   N     0.38093   0.83334   0.25001   0.00000  Uiso   1.00
N656   N     0.61907   0.83332   0.24999   0.00000  Uiso   1.00
C657   C     0.37062   0.78457   0.06472   0.00000  Uiso   1.00
C658   C     0.38049   0.73704   0.05899   0.00000  Uiso   1.00
H659   H     0.39369   0.72654   0.02196   0.00000  Uiso   1.00
H660   H     0.40890   0.72754   0.07253   0.00000  Uiso   1.00
H661   H     0.34673   0.72087   0.07882   0.00000  Uiso   1.00
H662   H     0.36328   0.79207   0.10165   0.00000  Uiso   1.00
H663   H     0.33671   0.79520   0.06086   0.00000  Uiso   1.00
C664   C     0.62939   0.88210   0.43528   0.00000  Uiso   1.00
C665   C     0.61951   0.92963   0.44101   0.00000  Uiso   1.00
H666   H     0.59111   0.93913   0.42747   0.00000  Uiso   1.00
H667   H     0.60632   0.94013   0.47804   0.00000  Uiso   1.00
H668   H     0.65328   0.94580   0.42117   0.00000  Uiso   1.00
H669   H     0.66330   0.87147   0.43914   0.00000  Uiso   1.00
H670   H     0.63672   0.87460   0.39835   0.00000  Uiso   1.00
I671   I     0.66214   0.76589   0.48184   0.00000  Uiso   1.00
I672   I     0.33786   0.90078   0.01816   0.00000  Uiso   1.00
I673   I     0.40789   0.86201   0.11661   0.00000  Uiso   1.00
I674   I     0.59211   0.80466   0.38339   0.00000  Uiso   1.00
C675   C     0.63833   0.76211   0.20968   0.00000  Uiso   1.00
C676   C     0.34613   0.73081   0.18147   0.00000  Uiso   1.00
H677   H     0.37600   0.74695   0.15476   0.00000  Uiso   1.00
H678   H     0.36055   0.71355   0.20481   0.00000  Uiso   1.00
H679   H     0.66519   0.70742   0.16377   0.00000  Uiso   1.00
H680   H     0.61401   0.74415   0.23899   0.00000  Uiso   1.00
H681   H     0.61973   0.77279   0.18649   0.00000  Uiso   1.00
C682   C     0.36166   0.90456   0.29034   0.00000  Uiso   1.00
C683   C     0.65386   0.93586   0.31853   0.00000  Uiso   1.00
H684   H     0.63944   0.95311   0.29518   0.00000  Uiso   1.00
H685   H     0.62399   0.91972   0.34524   0.00000  Uiso   1.00
H686   H     0.33480   0.95925   0.33623   0.00000  Uiso   1.00
H687   H     0.38025   0.89386   0.31354   0.00000  Uiso   1.00
H688   H     0.38600   0.92252   0.26103   0.00000  Uiso   1.00
O689   O     0.79512   0.89442   0.25000   0.00000  Uiso   1.00
O690   O     0.87154   0.77225   0.24999   0.00000  Uiso   1.00
O691   O     0.87157   0.89441   0.25000   0.00000  Uiso   1.00
O692   O     0.79510   0.77226   0.25000   0.00000  Uiso   1.00
C693   C     0.83249   0.91328   0.25067   0.00000  Uiso   1.00
C694   C     0.83417   0.75339   0.24933   0.00000  Uiso   1.00
O695   O     0.77328   0.83334   0.31612   0.00000  Uiso   1.00
O696   O     0.89339   0.83333   0.18387   0.00000  Uiso   1.00
O697   O     0.84972   0.83333   0.31612   0.00000  Uiso   1.00
O698   O     0.81695   0.83334   0.18388   0.00000  Uiso   1.00
C699   C     0.80299   0.83305   0.33789   0.00000  Uiso   1.00
C700   C     0.86367   0.83362   0.16211   0.00000  Uiso   1.00
Zn701  Zn    0.78229   0.83334   0.25000   0.00000  Uiso   1.00
Zn702  Zn    0.88438   0.83333   0.25000   0.00000  Uiso   1.00
C703   C     0.78467   0.82814   0.38817   0.00000  Uiso   1.00
C704   C     0.88200   0.83852   0.11183   0.00000  Uiso   1.00
C705   C     0.72925   0.79727   0.45844   0.00000  Uiso   1.00
C706   C     0.93741   0.86940   0.04156   0.00000  Uiso   1.00
C707   C     0.74293   0.80665   0.41132   0.00000  Uiso   1.00
C708   C     0.92374   0.86002   0.08868   0.00000  Uiso   1.00
C709   C     0.81379   0.83976   0.41150   0.00000  Uiso   1.00
C710   C     0.85288   0.82691   0.08850   0.00000  Uiso   1.00
C711   C     0.80535   0.82632   0.45635   0.00000  Uiso   1.00
C712   C     0.86132   0.84035   0.04364   0.00000  Uiso   1.00
C713   C     0.75989   0.80874   0.48290   0.00000  Uiso   1.00
C714   C     0.90678   0.85793   0.01710   0.00000  Uiso   1.00
C715   C     0.84069   0.83287   0.47578   0.00000  Uiso   1.00
C716   C     0.82598   0.83380   0.02422   0.00000  Uiso   1.00
C717   C     0.77654   0.82727   0.05181   0.00000  Uiso   1.00
C718   C     0.89012   0.83940   0.44819   0.00000  Uiso   1.00
C719   C     0.74700   0.80723   0.03212   0.00000  Uiso   1.00
C720   C     0.91967   0.85944   0.46788   0.00000  Uiso   1.00
H721   H     0.82242   0.80767   0.10624   0.00000  Uiso   1.00
H722   H     0.84425   0.85900   0.39376   0.00000  Uiso   1.00
H723   H     0.94570   0.86982   0.10767   0.00000  Uiso   1.00
H724   H     0.72096   0.79684   0.39233   0.00000  Uiso   1.00
C725   C     0.85896   0.97779   0.27270   0.00000  Uiso   1.00
C726   C     0.80770   0.68887   0.22730   0.00000  Uiso   1.00
H727   H     0.87866   0.96058   0.29051   0.00000  Uiso   1.00
H728   H     0.78801   0.70608   0.20948   0.00000  Uiso   1.00
C729   C     0.86074   0.68727   0.27125   0.00000  Uiso   1.00
C730   C     0.80592   0.97940   0.22875   0.00000  Uiso   1.00
H731   H     0.88097   0.70320   0.28862   0.00000  Uiso   1.00
H732   H     0.78569   0.96347   0.21138   0.00000  Uiso   1.00
C733   C     0.83506   0.70917   0.24861   0.00000  Uiso   1.00
C734   C     0.83160   0.95749   0.25139   0.00000  Uiso   1.00
C735   C     0.98593   0.80018   0.23027   0.00000  Uiso   1.00
C736   C     0.68073   0.86648   0.26974   0.00000  Uiso   1.00
C737   C     0.70022   0.80075   0.23081   0.00000  Uiso   1.00
C738   C     0.96644   0.86592   0.26919   0.00000  Uiso   1.00
H739   H     0.72657   0.77525   0.21622   0.00000  Uiso   1.00
H740   H     0.94009   0.89142   0.28378   0.00000  Uiso   1.00
N741   N     0.71426   0.83334   0.25001   0.00000  Uiso   1.00
N742   N     0.95241   0.83332   0.24999   0.00000  Uiso   1.00
C743   C     0.70395   0.78457   0.06472   0.00000  Uiso   1.00
C744   C     0.71383   0.73704   0.05899   0.00000  Uiso   1.00
H745   H     0.72702   0.72654   0.02196   0.00000  Uiso   1.00
H746   H     0.74223   0.72754   0.07253   0.00000  Uiso   1.00
H747   H     0.68006   0.72087   0.07882   0.00000  Uiso   1.00
H748   H     0.69661   0.79207   0.10165   0.00000  Uiso   1.00
H749   H     0.67004   0.79520   0.06086   0.00000  Uiso   1.00
C750   C     0.96272   0.88210   0.43528   0.00000  Uiso   1.00
C751   C     0.95284   0.92963   0.44101   0.00000  Uiso   1.00
H752   H     0.92444   0.93913   0.42747   0.00000  Uiso   1.00
H753   H     0.93965   0.94013   0.47804   0.00000  Uiso   1.00
H754   H     0.98661   0.94580   0.42117   0.00000  Uiso   1.00
H755   H     0.99663   0.87147   0.43914   0.00000  Uiso   1.00
H756   H     0.97006   0.87460   0.39835   0.00000  Uiso   1.00
I757   I     0.99547   0.76589   0.48184   0.00000  Uiso   1.00
I758   I     0.67120   0.90078   0.01816   0.00000  Uiso   1.00
I759   I     0.74123   0.86201   0.11661   0.00000  Uiso   1.00
I760   I     0.92544   0.80466   0.38339   0.00000  Uiso   1.00
C761   C     0.97166   0.76211   0.20968   0.00000  Uiso   1.00
C762   C     0.67946   0.73081   0.18147   0.00000  Uiso   1.00
H763   H     0.70933   0.74695   0.15476   0.00000  Uiso   1.00
H764   H     0.69389   0.71355   0.20481   0.00000  Uiso   1.00
H765   H     0.99852   0.70742   0.16377   0.00000  Uiso   1.00
H766   H     0.94734   0.74415   0.23899   0.00000  Uiso   1.00
H767   H     0.95306   0.77279   0.18649   0.00000  Uiso   1.00
C768   C     0.69500   0.90456   0.29034   0.00000  Uiso   1.00
C769   C     0.98719   0.93586   0.31853   0.00000  Uiso   1.00
H770   H     0.97278   0.95311   0.29518   0.00000  Uiso   1.00
H771   H     0.95732   0.91972   0.34524   0.00000  Uiso   1.00
H772   H     0.66813   0.95925   0.33623   0.00000  Uiso   1.00
H773   H     0.71358   0.89386   0.31354   0.00000  Uiso   1.00
H774   H     0.71933   0.92252   0.26103   0.00000  Uiso   1.00
O775   O     0.12846   0.22775   0.75000   0.00000  Uiso   1.00
O776   O     0.20488   0.10558   0.74999   0.00000  Uiso   1.00
O777   O     0.20490   0.22774   0.75000   0.00000  Uiso   1.00
O778   O     0.12843   0.10559   0.75000   0.00000  Uiso   1.00
C779   C     0.16583   0.24661   0.75067   0.00000  Uiso   1.00
C780   C     0.16751   0.08672   0.74933   0.00000  Uiso   1.00
O781   O     0.10661   0.16667   0.81612   0.00000  Uiso   1.00
O782   O     0.22672   0.16666   0.68387   0.00000  Uiso   1.00
O783   O     0.18305   0.16666   0.81612   0.00000  Uiso   1.00
O784   O     0.15028   0.16667   0.68388   0.00000  Uiso   1.00
C785   C     0.13633   0.16639   0.83789   0.00000  Uiso   1.00
C786   C     0.19701   0.16695   0.66211   0.00000  Uiso   1.00
Zn787  Zn    0.11562   0.16667   0.75000   0.00000  Uiso   1.00
Zn788  Zn    0.21771   0.16666   0.75000   0.00000  Uiso   1.00
C789   C     0.11800   0.16148   0.88817   0.00000  Uiso   1.00
C790   C     0.21533   0.17186   0.61183   0.00000  Uiso   1.00
C791   C     0.06259   0.13061   0.95844   0.00000  Uiso   1.00
C792   C     0.27075   0.20273   0.54156   0.00000  Uiso   1.00
C793   C     0.07626   0.13998   0.91132   0.00000  Uiso   1.00
C794   C     0.25707   0.19335   0.58868   0.00000  Uiso   1.00
C795   C     0.14713   0.17309   0.91150   0.00000  Uiso   1.00
C796   C     0.18621   0.16024   0.58850   0.00000  Uiso   1.00
C797   C     0.13868   0.15965   0.95635   0.00000  Uiso   1.00
C798   C     0.19465   0.17368   0.54364   0.00000  Uiso   1.00
C799   C     0.09322   0.14208   0.98290   0.00000  Uiso   1.00
C800   C     0.24011   0.19126   0.51710   0.00000  Uiso   1.00
C801   C     0.17403   0.16621   0.97578   0.00000  Uiso   1.00
C802   C     0.15931   0.16713   0.52422   0.00000  Uiso   1.00
C803   C     0.10988   0.16061   0.55181   0.00000  Uiso   1.00
C804   C     0.22346   0.17273   0.94819   0.00000  Uiso   1.00
C805   C     0.08034   0.14056   0.53212   0.00000  Uiso   1.00
C806   C     0.25300   0.19278   0.96788   0.00000  Uiso   1.00
H807   H     0.15575   0.14100   0.60624   0.00000  Uiso   1.00
H808   H     0.17758   0.19234   0.89376   0.00000  Uiso   1.00
H809   H     0.27904   0.20316   0.60767   0.00000  Uiso   1.00
H810   H     0.05430   0.13018   0.89233   0.00000  Uiso   1.00
C811   C     0.19229   0.31113   0.77270   0.00000  Uiso   1.00
C812   C     0.14104   0.02221   0.72730   0.00000  Uiso   1.00
H813   H     0.21200   0.29392   0.79051   0.00000  Uiso   1.00
H814   H     0.12134   0.03942   0.70948   0.00000  Uiso   1.00
C815   C     0.19407   0.02060   0.77125   0.00000  Uiso   1.00
C816   C     0.13926   0.31273   0.72875   0.00000  Uiso   1.00
H817   H     0.21430   0.03653   0.78862   0.00000  Uiso   1.00
H818   H     0.11903   0.29680   0.71138   0.00000  Uiso   1.00
C819   C     0.16840   0.04251   0.74861   0.00000  Uiso   1.00
C820   C     0.16493   0.29083   0.75139   0.00000  Uiso   1.00
C821   C     0.31927   0.13352   0.73027   0.00000  Uiso   1.00
C822   C     0.01407   0.19982   0.76974   0.00000  Uiso   1.00
C823   C     0.03356   0.13408   0.73081   0.00000  Uiso   1.00
C824   C     0.29978   0.19925   0.76919   0.00000  Uiso   1.00
H825   H     0.05991   0.10858   0.71622   0.00000  Uiso   1.00
H826   H     0.27342   0.22475   0.78378   0.00000  Uiso   1.00
N827   N     0.04759   0.16668   0.75001   0.00000  Uiso   1.00
N828   N     0.28574   0.16666   0.74999   0.00000  Uiso   1.00
C829   C     0.03728   0.11790   0.56472   0.00000  Uiso   1.00
C830   C     0.04716   0.07038   0.55899   0.00000  Uiso   1.00
H831   H     0.06035   0.05988   0.52196   0.00000  Uiso   1.00
H832   H     0.07556   0.06087   0.57253   0.00000  Uiso   1.00
H833   H     0.01339   0.05421   0.57882   0.00000  Uiso   1.00
H834   H     0.02995   0.12540   0.60165   0.00000  Uiso   1.00
H835   H     0.00337   0.12853   0.56086   0.00000  Uiso   1.00
C836   C     0.29605   0.21543   0.93528   0.00000  Uiso   1.00
C837   C     0.28618   0.26296   0.94101   0.00000  Uiso   1.00
H838   H     0.25777   0.27246   0.92747   0.00000  Uiso   1.00
H839   H     0.27298   0.27346   0.97804   0.00000  Uiso   1.00
H840   H     0.31994   0.27913   0.92117   0.00000  Uiso   1.00
H841   H     0.32996   0.20481   0.93914   0.00000  Uiso   1.00
H842   H     0.30339   0.20794   0.89835   0.00000  Uiso   1.00
I843   I     0.32880   0.09922   0.98184   0.00000  Uiso   1.00
I844   I     0.00453   0.23412   0.51816   0.00000  Uiso   1.00
I845   I     0.07456   0.19534   0.61661   0.00000  Uiso   1.00
I846   I     0.25878   0.13800   0.88339   0.00000  Uiso   1.00
C847   C     0.30500   0.09544   0.70968   0.00000  Uiso   1.00
C848   C     0.01280   0.06414   0.68147   0.00000  Uiso   1.00
H849   H     0.04267   0.08028   0.65476   0.00000  Uiso   1.00
H850   H     0.02722   0.04688   0.70481   0.00000  Uiso   1.00
H851   H     0.33186   0.04075   0.66377   0.00000  Uiso   1.00
H852   H     0.28067   0.07748   0.73899   0.00000  Uiso   1.00
H853   H     0.28639   0.10613   0.68649   0.00000  Uiso   1.00
C854   C     0.02833   0.23789   0.79034   0.00000  Uiso   1.00
C855   C     0.32053   0.26919   0.81853   0.00000  Uiso   1.00
H856   H     0.30611   0.28645   0.79518   0.00000  Uiso   1.00
H857   H     0.29065   0.25305   0.84524   0.00000  Uiso   1.00
H858   H     0.00147   0.29259   0.83623   0.00000  Uiso   1.00
H859   H     0.04692   0.22720   0.81354   0.00000  Uiso   1.00
H860   H     0.05266   0.25585   0.76103   0.00000  Uiso   1.00
O861   O     0.46179   0.22775   0.75000   0.00000  Uiso   1.00
O862   O     0.53821   0.10558   0.74999   0.00000  Uiso   1.00
O863   O     0.53823   0.22774   0.75000   0.00000  Uiso   1.00
O864   O     0.46177   0.10559   0.75000   0.00000  Uiso   1.00
C865   C     0.49916   0.24661   0.75067   0.00000  Uiso   1.00
C866   C     0.50084   0.08672   0.74933   0.00000  Uiso   1.00
O867   O     0.43994   0.16667   0.81612   0.00000  Uiso   1.00
O868   O     0.56006   0.16666   0.68387   0.00000  Uiso   1.00
O869   O     0.51639   0.16666   0.81612   0.00000  Uiso   1.00
O870   O     0.48361   0.16667   0.68388   0.00000  Uiso   1.00
C871   C     0.46966   0.16639   0.83789   0.00000  Uiso   1.00
C872   C     0.53034   0.16695   0.66211   0.00000  Uiso   1.00
Zn873  Zn    0.44896   0.16667   0.75000   0.00000  Uiso   1.00
Zn874  Zn    0.55104   0.16666   0.75000   0.00000  Uiso   1.00
C875   C     0.45134   0.16148   0.88817   0.00000  Uiso   1.00
C876   C     0.54866   0.17186   0.61183   0.00000  Uiso   1.00
C877   C     0.39592   0.13061   0.95844   0.00000  Uiso   1.00
C878   C     0.60408   0.20273   0.54156   0.00000  Uiso   1.00
C879   C     0.40959   0.13998   0.91132   0.00000  Uiso   1.00
C880   C     0.59041   0.19335   0.58868   0.00000  Uiso   1.00
C881   C     0.48046   0.17309   0.91150   0.00000  Uiso   1.00
C882   C     0.51954   0.16024   0.58850   0.00000  Uiso   1.00
C883   C     0.47201   0.15965   0.95635   0.00000  Uiso   1.00
C884   C     0.52799   0.17368   0.54364   0.00000  Uiso   1.00
C885   C     0.42656   0.14208   0.98290   0.00000  Uiso   1.00
C886   C     0.57344   0.19126   0.51710   0.00000  Uiso   1.00
C887   C     0.50736   0.16621   0.97578   0.00000  Uiso   1.00
C888   C     0.49264   0.16713   0.52422   0.00000  Uiso   1.00
C889   C     0.44321   0.16061   0.55181   0.00000  Uiso   1.00
C890   C     0.55679   0.17273   0.94819   0.00000  Uiso   1.00
C891   C     0.41367   0.14056   0.53212   0.00000  Uiso   1.00
C892   C     0.58633   0.19278   0.96788   0.00000  Uiso   1.00
H893   H     0.48908   0.14100   0.60624   0.00000  Uiso   1.00
H894   H     0.51092   0.19234   0.89376   0.00000  Uiso   1.00
H895   H     0.61237   0.20316   0.60767   0.00000  Uiso   1.00
H896   H     0.38763   0.13018   0.89233   0.00000  Uiso   1.00
C897   C     0.52563   0.31113   0.77270   0.00000  Uiso   1.00
C898   C     0.47437   0.02221   0.72730   0.00000  Uiso   1.00
H899   H     0.54533   0.29392   0.79051   0.00000  Uiso   1.00
H900   H     0.45467   0.03942   0.70948   0.00000  Uiso   1.00
C901   C     0.52741   0.02060   0.77125   0.00000  Uiso   1.00
C902   C     0.47259   0.31273   0.72875   0.00000  Uiso   1.00
H903   H     0.54764   0.03653   0.78862   0.00000  Uiso   1.00
H904   H     0.45236   0.29680   0.71138   0.00000  Uiso   1.00
C905   C     0.50173   0.04251   0.74861   0.00000  Uiso   1.00
C906   C     0.49827   0.29083   0.75139   0.00000  Uiso   1.00
C907   C     0.65260   0.13352   0.73027   0.00000  Uiso   1.00
C908   C     0.34740   0.19982   0.76974   0.00000  Uiso   1.00
C909   C     0.36689   0.13408   0.73081   0.00000  Uiso   1.00
C910   C     0.63311   0.19925   0.76919   0.00000  Uiso   1.00
H911   H     0.39324   0.10858   0.71622   0.00000  Uiso   1.00
H912   H     0.60676   0.22475   0.78378   0.00000  Uiso   1.00
N913   N     0.38093   0.16668   0.75001   0.00000  Uiso   1.00
N914   N     0.61907   0.16666   0.74999   0.00000  Uiso   1.00
C915   C     0.37062   0.11790   0.56472   0.00000  Uiso   1.00
C916   C     0.38049   0.07038   0.55899   0.00000  Uiso   1.00
H917   H     0.39369   0.05988   0.52196   0.00000  Uiso   1.00
H918   H     0.40890   0.06087   0.57253   0.00000  Uiso   1.00
H919   H     0.34673   0.05421   0.57882   0.00000  Uiso   1.00
H920   H     0.36328   0.12540   0.60165   0.00000  Uiso   1.00
H921   H     0.33671   0.12853   0.56086   0.00000  Uiso   1.00
C922   C     0.62939   0.21543   0.93528   0.00000  Uiso   1.00
C923   C     0.61951   0.26296   0.94101   0.00000  Uiso   1.00
H924   H     0.59111   0.27246   0.92747   0.00000  Uiso   1.00
H925   H     0.60632   0.27346   0.97804   0.00000  Uiso   1.00
H926   H     0.65328   0.27913   0.92117   0.00000  Uiso   1.00
H927   H     0.66330   0.20481   0.93914   0.00000  Uiso   1.00
H928   H     0.63672   0.20794   0.89835   0.00000  Uiso   1.00
I929   I     0.66214   0.09922   0.98184   0.00000  Uiso   1.00
I930   I     0.33786   0.23412   0.51816   0.00000  Uiso   1.00
I931   I     0.40789   0.19534   0.61661   0.00000  Uiso   1.00
I932   I     0.59211   0.13800   0.88339   0.00000  Uiso   1.00
C933   C     0.63833   0.09544   0.70968   0.00000  Uiso   1.00
C934   C     0.34613   0.06414   0.68147   0.00000  Uiso   1.00
H935   H     0.37600   0.08028   0.65476   0.00000  Uiso   1.00
H936   H     0.36055   0.04688   0.70481   0.00000  Uiso   1.00
H937   H     0.66519   0.04075   0.66377   0.00000  Uiso   1.00
H938   H     0.61401   0.07748   0.73899   0.00000  Uiso   1.00
H939   H     0.61973   0.10613   0.68649   0.00000  Uiso   1.00
C940   C     0.36166   0.23789   0.79034   0.00000  Uiso   1.00
C941   C     0.65386   0.26919   0.81853   0.00000  Uiso   1.00
H942   H     0.63944   0.28645   0.79518   0.00000  Uiso   1.00
H943   H     0.62399   0.25305   0.84524   0.00000  Uiso   1.00
H944   H     0.33480   0.29259   0.83623   0.00000  Uiso   1.00
H945   H     0.38025   0.22720   0.81354   0.00000  Uiso   1.00
H946   H     0.38600   0.25585   0.76103   0.00000  Uiso   1.00
O947   O     0.79512   0.22775   0.75000   0.00000  Uiso   1.00
O948   O     0.87154   0.10558   0.74999   0.00000  Uiso   1.00
O949   O     0.87157   0.22774   0.75000   0.00000  Uiso   1.00
O950   O     0.79510   0.10559   0.75000   0.00000  Uiso   1.00
C951   C     0.83249   0.24661   0.75067   0.00000  Uiso   1.00
C952   C     0.83417   0.08672   0.74933   0.00000  Uiso   1.00
O953   O     0.77328   0.16667   0.81612   0.00000  Uiso   1.00
O954   O     0.89339   0.16666   0.68387   0.00000  Uiso   1.00
O955   O     0.84972   0.16666   0.81612   0.00000  Uiso   1.00
O956   O     0.81695   0.16667   0.68388   0.00000  Uiso   1.00
C957   C     0.80299   0.16639   0.83789   0.00000  Uiso   1.00
C958   C     0.86367   0.16695   0.66211   0.00000  Uiso   1.00
Zn959  Zn    0.78229   0.16667   0.75000   0.00000  Uiso   1.00
Zn960  Zn    0.88438   0.16666   0.75000   0.00000  Uiso   1.00
C961   C     0.78467   0.16148   0.88817   0.00000  Uiso   1.00
C962   C     0.88200   0.17186   0.61183   0.00000  Uiso   1.00
C963   C     0.72925   0.13061   0.95844   0.00000  Uiso   1.00
C964   C     0.93741   0.20273   0.54156   0.00000  Uiso   1.00
C965   C     0.74293   0.13998   0.91132   0.00000  Uiso   1.00
C966   C     0.92374   0.19335   0.58868   0.00000  Uiso   1.00
C967   C     0.81379   0.17309   0.91150   0.00000  Uiso   1.00
C968   C     0.85288   0.16024   0.58850   0.00000  Uiso   1.00
C969   C     0.80535   0.15965   0.95635   0.00000  Uiso   1.00
C970   C     0.86132   0.17368   0.54364   0.00000  Uiso   1.00
C971   C     0.75989   0.14208   0.98290   0.00000  Uiso   1.00
C972   C     0.90678   0.19126   0.51710   0.00000  Uiso   1.00
C973   C     0.84069   0.16621   0.97578   0.00000  Uiso   1.00
C974   C     0.82598   0.16713   0.52422   0.00000  Uiso   1.00
C975   C     0.77654   0.16061   0.55181   0.00000  Uiso   1.00
C976   C     0.89012   0.17273   0.94819   0.00000  Uiso   1.00
C977   C     0.74700   0.14056   0.53212   0.00000  Uiso   1.00
C978   C     0.91967   0.19278   0.96788   0.00000  Uiso   1.00
H979   H     0.82242   0.14100   0.60624   0.00000  Uiso   1.00
H980   H     0.84425   0.19234   0.89376   0.00000  Uiso   1.00
H981   H     0.94570   0.20316   0.60767   0.00000  Uiso   1.00
H982   H     0.72096   0.13018   0.89233   0.00000  Uiso   1.00
C983   C     0.85896   0.31113   0.77270   0.00000  Uiso   1.00
C984   C     0.80770   0.02221   0.72730   0.00000  Uiso   1.00
H985   H     0.87866   0.29392   0.79051   0.00000  Uiso   1.00
H986   H     0.78801   0.03942   0.70948   0.00000  Uiso   1.00
C987   C     0.86074   0.02060   0.77125   0.00000  Uiso   1.00
C988   C     0.80592   0.31273   0.72875   0.00000  Uiso   1.00
H989   H     0.88097   0.03653   0.78862   0.00000  Uiso   1.00
H990   H     0.78569   0.29680   0.71138   0.00000  Uiso   1.00
C991   C     0.83506   0.04251   0.74861   0.00000  Uiso   1.00
C992   C     0.83160   0.29083   0.75139   0.00000  Uiso   1.00
C993   C     0.98593   0.13352   0.73027   0.00000  Uiso   1.00
C994   C     0.68073   0.19982   0.76974   0.00000  Uiso   1.00
C995   C     0.70022   0.13408   0.73081   0.00000  Uiso   1.00
C996   C     0.96644   0.19925   0.76919   0.00000  Uiso   1.00
H997   H     0.72657   0.10858   0.71622   0.00000  Uiso   1.00
H998   H     0.94009   0.22475   0.78378   0.00000  Uiso   1.00
N999   N     0.71426   0.16668   0.75001   0.00000  Uiso   1.00
N1000  N     0.95241   0.16666   0.74999   0.00000  Uiso   1.00
C1001  C     0.70395   0.11790   0.56472   0.00000  Uiso   1.00
C1002  C     0.71383   0.07038   0.55899   0.00000  Uiso   1.00
H1003  H     0.72702   0.05988   0.52196   0.00000  Uiso   1.00
H1004  H     0.74223   0.06087   0.57253   0.00000  Uiso   1.00
H1005  H     0.68006   0.05421   0.57882   0.00000  Uiso   1.00
H1006  H     0.69661   0.12540   0.60165   0.00000  Uiso   1.00
H1007  H     0.67004   0.12853   0.56086   0.00000  Uiso   1.00
C1008  C     0.96272   0.21543   0.93528   0.00000  Uiso   1.00
C1009  C     0.95284   0.26296   0.94101   0.00000  Uiso   1.00
H1010  H     0.92444   0.27246   0.92747   0.00000  Uiso   1.00
H1011  H     0.93965   0.27346   0.97804   0.00000  Uiso   1.00
H1012  H     0.98661   0.27913   0.92117   0.00000  Uiso   1.00
H1013  H     0.99663   0.20481   0.93914   0.00000  Uiso   1.00
H1014  H     0.97006   0.20794   0.89835   0.00000  Uiso   1.00
I1015  I     0.99547   0.09922   0.98184   0.00000  Uiso   1.00
I1016  I     0.67120   0.23412   0.51816   0.00000  Uiso   1.00
I1017  I     0.74123   0.19534   0.61661   0.00000  Uiso   1.00
I1018  I     0.92544   0.13800   0.88339   0.00000  Uiso   1.00
C1019  C     0.97166   0.09544   0.70968   0.00000  Uiso   1.00
C1020  C     0.67946   0.06414   0.68147   0.00000  Uiso   1.00
H1021  H     0.70933   0.08028   0.65476   0.00000  Uiso   1.00
H1022  H     0.69389   0.04688   0.70481   0.00000  Uiso   1.00
H1023  H     0.99852   0.04075   0.66377   0.00000  Uiso   1.00
H1024  H     0.94734   0.07748   0.73899   0.00000  Uiso   1.00
H1025  H     0.95306   0.10613   0.68649   0.00000  Uiso   1.00
C1026  C     0.69500   0.23789   0.79034   0.00000  Uiso   1.00
C1027  C     0.98719   0.26919   0.81853   0.00000  Uiso   1.00
H1028  H     0.97278   0.28645   0.79518   0.00000  Uiso   1.00
H1029  H     0.95732   0.25305   0.84524   0.00000  Uiso   1.00
H1030  H     0.66813   0.29259   0.83623   0.00000  Uiso   1.00
H1031  H     0.71358   0.22720   0.81354   0.00000  Uiso   1.00
H1032  H     0.71933   0.25585   0.76103   0.00000  Uiso   1.00
O1033  O     0.12846   0.56108   0.75000   0.00000  Uiso   1.00
O1034  O     0.20488   0.43892   0.74999   0.00000  Uiso   1.00
O1035  O     0.20490   0.56107   0.75000   0.00000  Uiso   1.00
O1036  O     0.12843   0.43893   0.75000   0.00000  Uiso   1.00
C1037  C     0.16583   0.57995   0.75067   0.00000  Uiso   1.00
C1038  C     0.16751   0.42005   0.74933   0.00000  Uiso   1.00
O1039  O     0.10661   0.50001   0.81612   0.00000  Uiso   1.00
O1040  O     0.22672   0.49999   0.68387   0.00000  Uiso   1.00
O1041  O     0.18305   0.50000   0.81612   0.00000  Uiso   1.00
O1042  O     0.15028   0.50000   0.68388   0.00000  Uiso   1.00
C1043  C     0.13633   0.49972   0.83789   0.00000  Uiso   1.00
C1044  C     0.19701   0.50028   0.66211   0.00000  Uiso   1.00
Zn1045 Zn    0.11562   0.50001   0.75000   0.00000  Uiso   1.00
Zn1046 Zn    0.21771   0.49999   0.75000   0.00000  Uiso   1.00
C1047  C     0.11800   0.49481   0.88817   0.00000  Uiso   1.00
C1048  C     0.21533   0.50519   0.61183   0.00000  Uiso   1.00
C1049  C     0.06259   0.46394   0.95844   0.00000  Uiso   1.00
C1050  C     0.27075   0.53606   0.54156   0.00000  Uiso   1.00
C1051  C     0.07626   0.47331   0.91132   0.00000  Uiso   1.00
C1052  C     0.25707   0.52669   0.58868   0.00000  Uiso   1.00
C1053  C     0.14713   0.50643   0.91150   0.00000  Uiso   1.00
C1054  C     0.18621   0.49358   0.58850   0.00000  Uiso   1.00
C1055  C     0.13868   0.49299   0.95635   0.00000  Uiso   1.00
C1056  C     0.19465   0.50702   0.54364   0.00000  Uiso   1.00
C1057  C     0.09322   0.47541   0.98290   0.00000  Uiso   1.00
C1058  C     0.24011   0.52459   0.51710   0.00000  Uiso   1.00
C1059  C     0.17403   0.49954   0.97578   0.00000  Uiso   1.00
C1060  C     0.15931   0.50046   0.52422   0.00000  Uiso   1.00
C1061  C     0.10988   0.49394   0.55181   0.00000  Uiso   1.00
C1062  C     0.22346   0.50606   0.94819   0.00000  Uiso   1.00
C1063  C     0.08034   0.47389   0.53212   0.00000  Uiso   1.00
C1064  C     0.25300   0.52611   0.96788   0.00000  Uiso   1.00
H1065  H     0.15575   0.47433   0.60624   0.00000  Uiso   1.00
H1066  H     0.17758   0.52567   0.89376   0.00000  Uiso   1.00
H1067  H     0.27904   0.53649   0.60767   0.00000  Uiso   1.00
H1068  H     0.05430   0.46351   0.89233   0.00000  Uiso   1.00
C1069  C     0.19229   0.64446   0.77270   0.00000  Uiso   1.00
C1070  C     0.14104   0.35554   0.72730   0.00000  Uiso   1.00
H1071  H     0.21200   0.62725   0.79051   0.00000  Uiso   1.00
H1072  H     0.12134   0.37275   0.70948   0.00000  Uiso   1.00
C1073  C     0.19407   0.35394   0.77125   0.00000  Uiso   1.00
C1074  C     0.13926   0.64606   0.72875   0.00000  Uiso   1.00
H1075  H     0.21430   0.36986   0.78862   0.00000  Uiso   1.00
H1076  H     0.11903   0.63014   0.71138   0.00000  Uiso   1.00
C1077  C     0.16840   0.37584   0.74861   0.00000  Uiso   1.00
C1078  C     0.16493   0.62416   0.75139   0.00000  Uiso   1.00
C1079  C     0.31927   0.46685   0.73027   0.00000  Uiso   1.00
C1080  C     0.01407   0.53315   0.76974   0.00000  Uiso   1.00
C1081  C     0.03356   0.46741   0.73081   0.00000  Uiso   1.00
C1082  C     0.29978   0.53259   0.76919   0.00000  Uiso   1.00
H1083  H     0.05991   0.44191   0.71622   0.00000  Uiso   1.00
H1084  H     0.27342   0.55809   0.78378   0.00000  Uiso   1.00
N1085  N     0.04759   0.50001   0.75001   0.00000  Uiso   1.00
N1086  N     0.28574   0.49999   0.74999   0.00000  Uiso   1.00
C1087  C     0.03728   0.45124   0.56472   0.00000  Uiso   1.00
C1088  C     0.04716   0.40371   0.55899   0.00000  Uiso   1.00
H1089  H     0.06035   0.39321   0.52196   0.00000  Uiso   1.00
H1090  H     0.07556   0.39420   0.57253   0.00000  Uiso   1.00
H1091  H     0.01339   0.38754   0.57882   0.00000  Uiso   1.00
H1092  H     0.02995   0.45873   0.60165   0.00000  Uiso   1.00
H1093  H     0.00337   0.46186   0.56086   0.00000  Uiso   1.00
C1094  C     0.29605   0.54876   0.93528   0.00000  Uiso   1.00
C1095  C     0.28618   0.59629   0.94101   0.00000  Uiso   1.00
H1096  H     0.25777   0.60580   0.92747   0.00000  Uiso   1.00
H1097  H     0.27298   0.60679   0.97804   0.00000  Uiso   1.00
H1098  H     0.31994   0.61246   0.92117   0.00000  Uiso   1.00
H1099  H     0.32996   0.53814   0.93914   0.00000  Uiso   1.00
H1100  H     0.30339   0.54127   0.89835   0.00000  Uiso   1.00
I1101  I     0.32880   0.43255   0.98184   0.00000  Uiso   1.00
I1102  I     0.00453   0.56745   0.51816   0.00000  Uiso   1.00
I1103  I     0.07456   0.52867   0.61661   0.00000  Uiso   1.00
I1104  I     0.25878   0.47133   0.88339   0.00000  Uiso   1.00
C1105  C     0.30500   0.42877   0.70968   0.00000  Uiso   1.00
C1106  C     0.01280   0.39748   0.68147   0.00000  Uiso   1.00
H1107  H     0.04267   0.41362   0.65476   0.00000  Uiso   1.00
H1108  H     0.02722   0.38022   0.70481   0.00000  Uiso   1.00
H1109  H     0.33186   0.37408   0.66377   0.00000  Uiso   1.00
H1110  H     0.28067   0.41081   0.73899   0.00000  Uiso   1.00
H1111  H     0.28639   0.43946   0.68649   0.00000  Uiso   1.00
C1112  C     0.02833   0.57122   0.79034   0.00000  Uiso   1.00
C1113  C     0.32053   0.60252   0.81853   0.00000  Uiso   1.00
H1114  H     0.30611   0.61978   0.79518   0.00000  Uiso   1.00
H1115  H     0.29065   0.58639   0.84524   0.00000  Uiso   1.00
H1116  H     0.00147   0.62592   0.83623   0.00000  Uiso   1.00
H1117  H     0.04692   0.56053   0.81354   0.00000  Uiso   1.00
H1118  H     0.05266   0.58919   0.76103   0.00000  Uiso   1.00
O1119  O     0.46179   0.56108   0.75000   0.00000  Uiso   1.00
O1120  O     0.53821   0.43892   0.74999   0.00000  Uiso   1.00
O1121  O     0.53823   0.56107   0.75000   0.00000  Uiso   1.00
O1122  O     0.46177   0.43893   0.75000   0.00000  Uiso   1.00
C1123  C     0.49916   0.57995   0.75067   0.00000  Uiso   1.00
C1124  C     0.50084   0.42005   0.74933   0.00000  Uiso   1.00
O1125  O     0.43994   0.50001   0.81612   0.00000  Uiso   1.00
O1126  O     0.56006   0.49999   0.68387   0.00000  Uiso   1.00
O1127  O     0.51639   0.50000   0.81612   0.00000  Uiso   1.00
O1128  O     0.48361   0.50000   0.68388   0.00000  Uiso   1.00
C1129  C     0.46966   0.49972   0.83789   0.00000  Uiso   1.00
C1130  C     0.53034   0.50028   0.66211   0.00000  Uiso   1.00
Zn1131 Zn    0.44896   0.50001   0.75000   0.00000  Uiso   1.00
Zn1132 Zn    0.55104   0.49999   0.75000   0.00000  Uiso   1.00
C1133  C     0.45134   0.49481   0.88817   0.00000  Uiso   1.00
C1134  C     0.54866   0.50519   0.61183   0.00000  Uiso   1.00
C1135  C     0.39592   0.46394   0.95844   0.00000  Uiso   1.00
C1136  C     0.60408   0.53606   0.54156   0.00000  Uiso   1.00
C1137  C     0.40959   0.47331   0.91132   0.00000  Uiso   1.00
C1138  C     0.59041   0.52669   0.58868   0.00000  Uiso   1.00
C1139  C     0.48046   0.50643   0.91150   0.00000  Uiso   1.00
C1140  C     0.51954   0.49358   0.58850   0.00000  Uiso   1.00
C1141  C     0.47201   0.49299   0.95635   0.00000  Uiso   1.00
C1142  C     0.52799   0.50702   0.54364   0.00000  Uiso   1.00
C1143  C     0.42656   0.47541   0.98290   0.00000  Uiso   1.00
C1144  C     0.57344   0.52459   0.51710   0.00000  Uiso   1.00
C1145  C     0.50736   0.49954   0.97578   0.00000  Uiso   1.00
C1146  C     0.49264   0.50046   0.52422   0.00000  Uiso   1.00
C1147  C     0.44321   0.49394   0.55181   0.00000  Uiso   1.00
C1148  C     0.55679   0.50606   0.94819   0.00000  Uiso   1.00
C1149  C     0.41367   0.47389   0.53212   0.00000  Uiso   1.00
C1150  C     0.58633   0.52611   0.96788   0.00000  Uiso   1.00
H1151  H     0.48908   0.47433   0.60624   0.00000  Uiso   1.00
H1152  H     0.51092   0.52567   0.89376   0.00000  Uiso   1.00
H1153  H     0.61237   0.53649   0.60767   0.00000  Uiso   1.00
H1154  H     0.38763   0.46351   0.89233   0.00000  Uiso   1.00
C1155  C     0.52563   0.64446   0.77270   0.00000  Uiso   1.00
C1156  C     0.47437   0.35554   0.72730   0.00000  Uiso   1.00
H1157  H     0.54533   0.62725   0.79051   0.00000  Uiso   1.00
H1158  H     0.45467   0.37275   0.70948   0.00000  Uiso   1.00
C1159  C     0.52741   0.35394   0.77125   0.00000  Uiso   1.00
C1160  C     0.47259   0.64606   0.72875   0.00000  Uiso   1.00
H1161  H     0.54764   0.36986   0.78862   0.00000  Uiso   1.00
H1162  H     0.45236   0.63014   0.71138   0.00000  Uiso   1.00
C1163  C     0.50173   0.37584   0.74861   0.00000  Uiso   1.00
C1164  C     0.49827   0.62416   0.75139   0.00000  Uiso   1.00
C1165  C     0.65260   0.46685   0.73027   0.00000  Uiso   1.00
C1166  C     0.34740   0.53315   0.76974   0.00000  Uiso   1.00
C1167  C     0.36689   0.46741   0.73081   0.00000  Uiso   1.00
C1168  C     0.63311   0.53259   0.76919   0.00000  Uiso   1.00
H1169  H     0.39324   0.44191   0.71622   0.00000  Uiso   1.00
H1170  H     0.60676   0.55809   0.78378   0.00000  Uiso   1.00
N1171  N     0.38093   0.50001   0.75001   0.00000  Uiso   1.00
N1172  N     0.61907   0.49999   0.74999   0.00000  Uiso   1.00
C1173  C     0.37062   0.45124   0.56472   0.00000  Uiso   1.00
C1174  C     0.38049   0.40371   0.55899   0.00000  Uiso   1.00
H1175  H     0.39369   0.39321   0.52196   0.00000  Uiso   1.00
H1176  H     0.40890   0.39420   0.57253   0.00000  Uiso   1.00
H1177  H     0.34673   0.38754   0.57882   0.00000  Uiso   1.00
H1178  H     0.36328   0.45873   0.60165   0.00000  Uiso   1.00
H1179  H     0.33671   0.46186   0.56086   0.00000  Uiso   1.00
C1180  C     0.62939   0.54876   0.93528   0.00000  Uiso   1.00
C1181  C     0.61951   0.59629   0.94101   0.00000  Uiso   1.00
H1182  H     0.59111   0.60580   0.92747   0.00000  Uiso   1.00
H1183  H     0.60632   0.60679   0.97804   0.00000  Uiso   1.00
H1184  H     0.65328   0.61246   0.92117   0.00000  Uiso   1.00
H1185  H     0.66330   0.53814   0.93914   0.00000  Uiso   1.00
H1186  H     0.63672   0.54127   0.89835   0.00000  Uiso   1.00
I1187  I     0.66214   0.43255   0.98184   0.00000  Uiso   1.00
I1188  I     0.33786   0.56745   0.51816   0.00000  Uiso   1.00
I1189  I     0.40789   0.52867   0.61661   0.00000  Uiso   1.00
I1190  I     0.59211   0.47133   0.88339   0.00000  Uiso   1.00
C1191  C     0.63833   0.42877   0.70968   0.00000  Uiso   1.00
C1192  C     0.34613   0.39748   0.68147   0.00000  Uiso   1.00
H1193  H     0.37600   0.41362   0.65476   0.00000  Uiso   1.00
H1194  H     0.36055   0.38022   0.70481   0.00000  Uiso   1.00
H1195  H     0.66519   0.37408   0.66377   0.00000  Uiso   1.00
H1196  H     0.61401   0.41081   0.73899   0.00000  Uiso   1.00
H1197  H     0.61973   0.43946   0.68649   0.00000  Uiso   1.00
C1198  C     0.36166   0.57122   0.79034   0.00000  Uiso   1.00
C1199  C     0.65386   0.60252   0.81853   0.00000  Uiso   1.00
H1200  H     0.63944   0.61978   0.79518   0.00000  Uiso   1.00
H1201  H     0.62399   0.58639   0.84524   0.00000  Uiso   1.00
H1202  H     0.33480   0.62592   0.83623   0.00000  Uiso   1.00
H1203  H     0.38025   0.56053   0.81354   0.00000  Uiso   1.00
H1204  H     0.38600   0.58919   0.76103   0.00000  Uiso   1.00
O1205  O     0.79512   0.56108   0.75000   0.00000  Uiso   1.00
O1206  O     0.87154   0.43892   0.74999   0.00000  Uiso   1.00
O1207  O     0.87157   0.56107   0.75000   0.00000  Uiso   1.00
O1208  O     0.79510   0.43893   0.75000   0.00000  Uiso   1.00
C1209  C     0.83249   0.57995   0.75067   0.00000  Uiso   1.00
C1210  C     0.83417   0.42005   0.74933   0.00000  Uiso   1.00
O1211  O     0.77328   0.50001   0.81612   0.00000  Uiso   1.00
O1212  O     0.89339   0.49999   0.68387   0.00000  Uiso   1.00
O1213  O     0.84972   0.50000   0.81612   0.00000  Uiso   1.00
O1214  O     0.81695   0.50000   0.68388   0.00000  Uiso   1.00
C1215  C     0.80299   0.49972   0.83789   0.00000  Uiso   1.00
C1216  C     0.86367   0.50028   0.66211   0.00000  Uiso   1.00
Zn1217 Zn    0.78229   0.50001   0.75000   0.00000  Uiso   1.00
Zn1218 Zn    0.88438   0.49999   0.75000   0.00000  Uiso   1.00
C1219  C     0.78467   0.49481   0.88817   0.00000  Uiso   1.00
C1220  C     0.88200   0.50519   0.61183   0.00000  Uiso   1.00
C1221  C     0.72925   0.46394   0.95844   0.00000  Uiso   1.00
C1222  C     0.93741   0.53606   0.54156   0.00000  Uiso   1.00
C1223  C     0.74293   0.47331   0.91132   0.00000  Uiso   1.00
C1224  C     0.92374   0.52669   0.58868   0.00000  Uiso   1.00
C1225  C     0.81379   0.50643   0.91150   0.00000  Uiso   1.00
C1226  C     0.85288   0.49358   0.58850   0.00000  Uiso   1.00
C1227  C     0.80535   0.49299   0.95635   0.00000  Uiso   1.00
C1228  C     0.86132   0.50702   0.54364   0.00000  Uiso   1.00
C1229  C     0.75989   0.47541   0.98290   0.00000  Uiso   1.00
C1230  C     0.90678   0.52459   0.51710   0.00000  Uiso   1.00
C1231  C     0.84069   0.49954   0.97578   0.00000  Uiso   1.00
C1232  C     0.82598   0.50046   0.52422   0.00000  Uiso   1.00
C1233  C     0.77654   0.49394   0.55181   0.00000  Uiso   1.00
C1234  C     0.89012   0.50606   0.94819   0.00000  Uiso   1.00
C1235  C     0.74700   0.47389   0.53212   0.00000  Uiso   1.00
C1236  C     0.91967   0.52611   0.96788   0.00000  Uiso   1.00
H1237  H     0.82242   0.47433   0.60624   0.00000  Uiso   1.00
H1238  H     0.84425   0.52567   0.89376   0.00000  Uiso   1.00
H1239  H     0.94570   0.53649   0.60767   0.00000  Uiso   1.00
H1240  H     0.72096   0.46351   0.89233   0.00000  Uiso   1.00
C1241  C     0.85896   0.64446   0.77270   0.00000  Uiso   1.00
C1242  C     0.80770   0.35554   0.72730   0.00000  Uiso   1.00
H1243  H     0.87866   0.62725   0.79051   0.00000  Uiso   1.00
H1244  H     0.78801   0.37275   0.70948   0.00000  Uiso   1.00
C1245  C     0.86074   0.35394   0.77125   0.00000  Uiso   1.00
C1246  C     0.80592   0.64606   0.72875   0.00000  Uiso   1.00
H1247  H     0.88097   0.36986   0.78862   0.00000  Uiso   1.00
H1248  H     0.78569   0.63014   0.71138   0.00000  Uiso   1.00
C1249  C     0.83506   0.37584   0.74861   0.00000  Uiso   1.00
C1250  C     0.83160   0.62416   0.75139   0.00000  Uiso   1.00
C1251  C     0.98593   0.46685   0.73027   0.00000  Uiso   1.00
C1252  C     0.68073   0.53315   0.76974   0.00000  Uiso   1.00
C1253  C     0.70022   0.46741   0.73081   0.00000  Uiso   1.00
C1254  C     0.96644   0.53259   0.76919   0.00000  Uiso   1.00
H1255  H     0.72657   0.44191   0.71622   0.00000  Uiso   1.00
H1256  H     0.94009   0.55809   0.78378   0.00000  Uiso   1.00
N1257  N     0.71426   0.50001   0.75001   0.00000  Uiso   1.00
N1258  N     0.95241   0.49999   0.74999   0.00000  Uiso   1.00
C1259  C     0.70395   0.45124   0.56472   0.00000  Uiso   1.00
C1260  C     0.71383   0.40371   0.55899   0.00000  Uiso   1.00
H1261  H     0.72702   0.39321   0.52196   0.00000  Uiso   1.00
H1262  H     0.74223   0.39420   0.57253   0.00000  Uiso   1.00
H1263  H     0.68006   0.38754   0.57882   0.00000  Uiso   1.00
H1264  H     0.69661   0.45873   0.60165   0.00000  Uiso   1.00
H1265  H     0.67004   0.46186   0.56086   0.00000  Uiso   1.00
C1266  C     0.96272   0.54876   0.93528   0.00000  Uiso   1.00
C1267  C     0.95284   0.59629   0.94101   0.00000  Uiso   1.00
H1268  H     0.92444   0.60580   0.92747   0.00000  Uiso   1.00
H1269  H     0.93965   0.60679   0.97804   0.00000  Uiso   1.00
H1270  H     0.98661   0.61246   0.92117   0.00000  Uiso   1.00
H1271  H     0.99663   0.53814   0.93914   0.00000  Uiso   1.00
H1272  H     0.97006   0.54127   0.89835   0.00000  Uiso   1.00
I1273  I     0.99547   0.43255   0.98184   0.00000  Uiso   1.00
I1274  I     0.67120   0.56745   0.51816   0.00000  Uiso   1.00
I1275  I     0.74123   0.52867   0.61661   0.00000  Uiso   1.00
I1276  I     0.92544   0.47133   0.88339   0.00000  Uiso   1.00
C1277  C     0.97166   0.42877   0.70968   0.00000  Uiso   1.00
C1278  C     0.67946   0.39748   0.68147   0.00000  Uiso   1.00
H1279  H     0.70933   0.41362   0.65476   0.00000  Uiso   1.00
H1280  H     0.69389   0.38022   0.70481   0.00000  Uiso   1.00
H1281  H     0.99852   0.37408   0.66377   0.00000  Uiso   1.00
H1282  H     0.94734   0.41081   0.73899   0.00000  Uiso   1.00
H1283  H     0.95306   0.43946   0.68649   0.00000  Uiso   1.00
C1284  C     0.69500   0.57122   0.79034   0.00000  Uiso   1.00
C1285  C     0.98719   0.60252   0.81853   0.00000  Uiso   1.00
H1286  H     0.97278   0.61978   0.79518   0.00000  Uiso   1.00
H1287  H     0.95732   0.58639   0.84524   0.00000  Uiso   1.00
H1288  H     0.66813   0.62592   0.83623   0.00000  Uiso   1.00
H1289  H     0.71358   0.56053   0.81354   0.00000  Uiso   1.00
H1290  H     0.71933   0.58919   0.76103   0.00000  Uiso   1.00
O1291  O     0.12846   0.89442   0.75000   0.00000  Uiso   1.00
O1292  O     0.20488   0.77225   0.74999   0.00000  Uiso   1.00
O1293  O     0.20490   0.89441   0.75000   0.00000  Uiso   1.00
O1294  O     0.12843   0.77226   0.75000   0.00000  Uiso   1.00
C1295  C     0.16583   0.91328   0.75067   0.00000  Uiso   1.00
C1296  C     0.16751   0.75339   0.74933   0.00000  Uiso   1.00
O1297  O     0.10661   0.83334   0.81612   0.00000  Uiso   1.00
O1298  O     0.22672   0.83333   0.68387   0.00000  Uiso   1.00
O1299  O     0.18305   0.83333   0.81612   0.00000  Uiso   1.00
O1300  O     0.15028   0.83334   0.68388   0.00000  Uiso   1.00
C1301  C     0.13633   0.83305   0.83789   0.00000  Uiso   1.00
C1302  C     0.19701   0.83362   0.66211   0.00000  Uiso   1.00
Zn1303 Zn    0.11562   0.83334   0.75000   0.00000  Uiso   1.00
Zn1304 Zn    0.21771   0.83333   0.75000   0.00000  Uiso   1.00
C1305  C     0.11800   0.82814   0.88817   0.00000  Uiso   1.00
C1306  C     0.21533   0.83852   0.61183   0.00000  Uiso   1.00
C1307  C     0.06259   0.79727   0.95844   0.00000  Uiso   1.00
C1308  C     0.27075   0.86940   0.54156   0.00000  Uiso   1.00
C1309  C     0.07626   0.80665   0.91132   0.00000  Uiso   1.00
C1310  C     0.25707   0.86002   0.58868   0.00000  Uiso   1.00
C1311  C     0.14713   0.83976   0.91150   0.00000  Uiso   1.00
C1312  C     0.18621   0.82691   0.58850   0.00000  Uiso   1.00
C1313  C     0.13868   0.82632   0.95635   0.00000  Uiso   1.00
C1314  C     0.19465   0.84035   0.54364   0.00000  Uiso   1.00
C1315  C     0.09322   0.80874   0.98290   0.00000  Uiso   1.00
C1316  C     0.24011   0.85793   0.51710   0.00000  Uiso   1.00
C1317  C     0.17403   0.83287   0.97578   0.00000  Uiso   1.00
C1318  C     0.15931   0.83380   0.52422   0.00000  Uiso   1.00
C1319  C     0.10988   0.82727   0.55181   0.00000  Uiso   1.00
C1320  C     0.22346   0.83940   0.94819   0.00000  Uiso   1.00
C1321  C     0.08034   0.80723   0.53212   0.00000  Uiso   1.00
C1322  C     0.25300   0.85944   0.96788   0.00000  Uiso   1.00
H1323  H     0.15575   0.80767   0.60624   0.00000  Uiso   1.00
H1324  H     0.17758   0.85900   0.89376   0.00000  Uiso   1.00
H1325  H     0.27904   0.86982   0.60767   0.00000  Uiso   1.00
H1326  H     0.05430   0.79684   0.89233   0.00000  Uiso   1.00
C1327  C     0.19229   0.97779   0.77270   0.00000  Uiso   1.00
C1328  C     0.14104   0.68887   0.72730   0.00000  Uiso   1.00
H1329  H     0.21200   0.96058   0.79051   0.00000  Uiso   1.00
H1330  H     0.12134   0.70608   0.70948   0.00000  Uiso   1.00
C1331  C     0.19407   0.68727   0.77125   0.00000  Uiso   1.00
C1332  C     0.13926   0.97940   0.72875   0.00000  Uiso   1.00
H1333  H     0.21430   0.70320   0.78862   0.00000  Uiso   1.00
H1334  H     0.11903   0.96347   0.71138   0.00000  Uiso   1.00
C1335  C     0.16840   0.70917   0.74861   0.00000  Uiso   1.00
C1336  C     0.16493   0.95749   0.75139   0.00000  Uiso   1.00
C1337  C     0.31927   0.80018   0.73027   0.00000  Uiso   1.00
C1338  C     0.01407   0.86648   0.76974   0.00000  Uiso   1.00
C1339  C     0.03356   0.80075   0.73081   0.00000  Uiso   1.00
C1340  C     0.29978   0.86592   0.76919   0.00000  Uiso   1.00
H1341  H     0.05991   0.77525   0.71622   0.00000  Uiso   1.00
H1342  H     0.27342   0.89142   0.78378   0.00000  Uiso   1.00
N1343  N     0.04759   0.83334   0.75001   0.00000  Uiso   1.00
N1344  N     0.28574   0.83332   0.74999   0.00000  Uiso   1.00
C1345  C     0.03728   0.78457   0.56472   0.00000  Uiso   1.00
C1346  C     0.04716   0.73704   0.55899   0.00000  Uiso   1.00
H1347  H     0.06035   0.72654   0.52196   0.00000  Uiso   1.00
H1348  H     0.07556   0.72754   0.57253   0.00000  Uiso   1.00
H1349  H     0.01339   0.72087   0.57882   0.00000  Uiso   1.00
H1350  H     0.02995   0.79207   0.60165   0.00000  Uiso   1.00
H1351  H     0.00337   0.79520   0.56086   0.00000  Uiso   1.00
C1352  C     0.29605   0.88210   0.93528   0.00000  Uiso   1.00
C1353  C     0.28618   0.92963   0.94101   0.00000  Uiso   1.00
H1354  H     0.25777   0.93913   0.92747   0.00000  Uiso   1.00
H1355  H     0.27298   0.94013   0.97804   0.00000  Uiso   1.00
H1356  H     0.31994   0.94580   0.92117   0.00000  Uiso   1.00
H1357  H     0.32996   0.87147   0.93914   0.00000  Uiso   1.00
H1358  H     0.30339   0.87460   0.89835   0.00000  Uiso   1.00
I1359  I     0.32880   0.76589   0.98184   0.00000  Uiso   1.00
I1360  I     0.00453   0.90078   0.51816   0.00000  Uiso   1.00
I1361  I     0.07456   0.86201   0.61661   0.00000  Uiso   1.00
I1362  I     0.25878   0.80466   0.88339   0.00000  Uiso   1.00
C1363  C     0.30500   0.76211   0.70968   0.00000  Uiso   1.00
C1364  C     0.01280   0.73081   0.68147   0.00000  Uiso   1.00
H1365  H     0.04267   0.74695   0.65476   0.00000  Uiso   1.00
H1366  H     0.02722   0.71355   0.70481   0.00000  Uiso   1.00
H1367  H     0.33186   0.70742   0.66377   0.00000  Uiso   1.00
H1368  H     0.28067   0.74415   0.73899   0.00000  Uiso   1.00
H1369  H     0.28639   0.77279   0.68649   0.00000  Uiso   1.00
C1370  C     0.02833   0.90456   0.79034   0.00000  Uiso   1.00
C1371  C     0.32053   0.93586   0.81853   0.00000  Uiso   1.00
H1372  H     0.30611   0.95311   0.79518   0.00000  Uiso   1.00
H1373  H     0.29065   0.91972   0.84524   0.00000  Uiso   1.00
H1374  H     0.00147   0.95925   0.83623   0.00000  Uiso   1.00
H1375  H     0.04692   0.89386   0.81354   0.00000  Uiso   1.00
H1376  H     0.05266   0.92252   0.76103   0.00000  Uiso   1.00
O1377  O     0.46179   0.89442   0.75000   0.00000  Uiso   1.00
O1378  O     0.53821   0.77225   0.74999   0.00000  Uiso   1.00
O1379  O     0.53823   0.89441   0.75000   0.00000  Uiso   1.00
O1380  O     0.46177   0.77226   0.75000   0.00000  Uiso   1.00
C1381  C     0.49916   0.91328   0.75067   0.00000  Uiso   1.00
C1382  C     0.50084   0.75339   0.74933   0.00000  Uiso   1.00
O1383  O     0.43994   0.83334   0.81612   0.00000  Uiso   1.00
O1384  O     0.56006   0.83333   0.68387   0.00000  Uiso   1.00
O1385  O     0.51639   0.83333   0.81612   0.00000  Uiso   1.00
O1386  O     0.48361   0.83334   0.68388   0.00000  Uiso   1.00
C1387  C     0.46966   0.83305   0.83789   0.00000  Uiso   1.00
C1388  C     0.53034   0.83362   0.66211   0.00000  Uiso   1.00
Zn1389 Zn    0.44896   0.83334   0.75000   0.00000  Uiso   1.00
Zn1390 Zn    0.55104   0.83333   0.75000   0.00000  Uiso   1.00
C1391  C     0.45134   0.82814   0.88817   0.00000  Uiso   1.00
C1392  C     0.54866   0.83852   0.61183   0.00000  Uiso   1.00
C1393  C     0.39592   0.79727   0.95844   0.00000  Uiso   1.00
C1394  C     0.60408   0.86940   0.54156   0.00000  Uiso   1.00
C1395  C     0.40959   0.80665   0.91132   0.00000  Uiso   1.00
C1396  C     0.59041   0.86002   0.58868   0.00000  Uiso   1.00
C1397  C     0.48046   0.83976   0.91150   0.00000  Uiso   1.00
C1398  C     0.51954   0.82691   0.58850   0.00000  Uiso   1.00
C1399  C     0.47201   0.82632   0.95635   0.00000  Uiso   1.00
C1400  C     0.52799   0.84035   0.54364   0.00000  Uiso   1.00
C1401  C     0.42656   0.80874   0.98290   0.00000  Uiso   1.00
C1402  C     0.57344   0.85793   0.51710   0.00000  Uiso   1.00
C1403  C     0.50736   0.83287   0.97578   0.00000  Uiso   1.00
C1404  C     0.49264   0.83380   0.52422   0.00000  Uiso   1.00
C1405  C     0.44321   0.82727   0.55181   0.00000  Uiso   1.00
C1406  C     0.55679   0.83940   0.94819   0.00000  Uiso   1.00
C1407  C     0.41367   0.80723   0.53212   0.00000  Uiso   1.00
C1408  C     0.58633   0.85944   0.96788   0.00000  Uiso   1.00
H1409  H     0.48908   0.80767   0.60624   0.00000  Uiso   1.00
H1410  H     0.51092   0.85900   0.89376   0.00000  Uiso   1.00
H1411  H     0.61237   0.86982   0.60767   0.00000  Uiso   1.00
H1412  H     0.38763   0.79684   0.89233   0.00000  Uiso   1.00
C1413  C     0.52563   0.97779   0.77270   0.00000  Uiso   1.00
C1414  C     0.47437   0.68887   0.72730   0.00000  Uiso   1.00
H1415  H     0.54533   0.96058   0.79051   0.00000  Uiso   1.00
H1416  H     0.45467   0.70608   0.70948   0.00000  Uiso   1.00
C1417  C     0.52741   0.68727   0.77125   0.00000  Uiso   1.00
C1418  C     0.47259   0.97940   0.72875   0.00000  Uiso   1.00
H1419  H     0.54764   0.70320   0.78862   0.00000  Uiso   1.00
H1420  H     0.45236   0.96347   0.71138   0.00000  Uiso   1.00
C1421  C     0.50173   0.70917   0.74861   0.00000  Uiso   1.00
C1422  C     0.49827   0.95749   0.75139   0.00000  Uiso   1.00
C1423  C     0.65260   0.80018   0.73027   0.00000  Uiso   1.00
C1424  C     0.34740   0.86648   0.76974   0.00000  Uiso   1.00
C1425  C     0.36689   0.80075   0.73081   0.00000  Uiso   1.00
C1426  C     0.63311   0.86592   0.76919   0.00000  Uiso   1.00
H1427  H     0.39324   0.77525   0.71622   0.00000  Uiso   1.00
H1428  H     0.60676   0.89142   0.78378   0.00000  Uiso   1.00
N1429  N     0.38093   0.83334   0.75001   0.00000  Uiso   1.00
N1430  N     0.61907   0.83332   0.74999   0.00000  Uiso   1.00
C1431  C     0.37062   0.78457   0.56472   0.00000  Uiso   1.00
C1432  C     0.38049   0.73704   0.55899   0.00000  Uiso   1.00
H1433  H     0.39369   0.72654   0.52196   0.00000  Uiso   1.00
H1434  H     0.40890   0.72754   0.57253   0.00000  Uiso   1.00
H1435  H     0.34673   0.72087   0.57882   0.00000  Uiso   1.00
H1436  H     0.36328   0.79207   0.60165   0.00000  Uiso   1.00
H1437  H     0.33671   0.79520   0.56086   0.00000  Uiso   1.00
C1438  C     0.62939   0.88210   0.93528   0.00000  Uiso   1.00
C1439  C     0.61951   0.92963   0.94101   0.00000  Uiso   1.00
H1440  H     0.59111   0.93913   0.92747   0.00000  Uiso   1.00
H1441  H     0.60632   0.94013   0.97804   0.00000  Uiso   1.00
H1442  H     0.65328   0.94580   0.92117   0.00000  Uiso   1.00
H1443  H     0.66330   0.87147   0.93914   0.00000  Uiso   1.00
H1444  H     0.63672   0.87460   0.89835   0.00000  Uiso   1.00
I1445  I     0.66214   0.76589   0.98184   0.00000  Uiso   1.00
I1446  I     0.33786   0.90078   0.51816   0.00000  Uiso   1.00
I1447  I     0.40789   0.86201   0.61661   0.00000  Uiso   1.00
I1448  I     0.59211   0.80466   0.88339   0.00000  Uiso   1.00
C1449  C     0.63833   0.76211   0.70968   0.00000  Uiso   1.00
C1450  C     0.34613   0.73081   0.68147   0.00000  Uiso   1.00
H1451  H     0.37600   0.74695   0.65476   0.00000  Uiso   1.00
H1452  H     0.36055   0.71355   0.70481   0.00000  Uiso   1.00
H1453  H     0.66519   0.70742   0.66377   0.00000  Uiso   1.00
H1454  H     0.61401   0.74415   0.73899   0.00000  Uiso   1.00
H1455  H     0.61973   0.77279   0.68649   0.00000  Uiso   1.00
C1456  C     0.36166   0.90456   0.79034   0.00000  Uiso   1.00
C1457  C     0.65386   0.93586   0.81853   0.00000  Uiso   1.00
H1458  H     0.63944   0.95311   0.79518   0.00000  Uiso   1.00
H1459  H     0.62399   0.91972   0.84524   0.00000  Uiso   1.00
H1460  H     0.33480   0.95925   0.83623   0.00000  Uiso   1.00
H1461  H     0.38025   0.89386   0.81354   0.00000  Uiso   1.00
H1462  H     0.38600   0.92252   0.76103   0.00000  Uiso   1.00
O1463  O     0.79512   0.89442   0.75000   0.00000  Uiso   1.00
O1464  O     0.87154   0.77225   0.74999   0.00000  Uiso   1.00
O1465  O     0.87157   0.89441   0.75000   0.00000  Uiso   1.00
O1466  O     0.79510   0.77226   0.75000   0.00000  Uiso   1.00
C1467  C     0.83249   0.91328   0.75067   0.00000  Uiso   1.00
C1468  C     0.83417   0.75339   0.74933   0.00000  Uiso   1.00
O1469  O     0.77328   0.83334   0.81612   0.00000  Uiso   1.00
O1470  O     0.89339   0.83333   0.68387   0.00000  Uiso   1.00
O1471  O     0.84972   0.83333   0.81612   0.00000  Uiso   1.00
O1472  O     0.81695   0.83334   0.68388   0.00000  Uiso   1.00
C1473  C     0.80299   0.83305   0.83789   0.00000  Uiso   1.00
C1474  C     0.86367   0.83362   0.66211   0.00000  Uiso   1.00
Zn1475 Zn    0.78229   0.83334   0.75000   0.00000  Uiso   1.00
Zn1476 Zn    0.88438   0.83333   0.75000   0.00000  Uiso   1.00
C1477  C     0.78467   0.82814   0.88817   0.00000  Uiso   1.00
C1478  C     0.88200   0.83852   0.61183   0.00000  Uiso   1.00
C1479  C     0.72925   0.79727   0.95844   0.00000  Uiso   1.00
C1480  C     0.93741   0.86940   0.54156   0.00000  Uiso   1.00
C1481  C     0.74293   0.80665   0.91132   0.00000  Uiso   1.00
C1482  C     0.92374   0.86002   0.58868   0.00000  Uiso   1.00
C1483  C     0.81379   0.83976   0.91150   0.00000  Uiso   1.00
C1484  C     0.85288   0.82691   0.58850   0.00000  Uiso   1.00
C1485  C     0.80535   0.82632   0.95635   0.00000  Uiso   1.00
C1486  C     0.86132   0.84035   0.54364   0.00000  Uiso   1.00
C1487  C     0.75989   0.80874   0.98290   0.00000  Uiso   1.00
C1488  C     0.90678   0.85793   0.51710   0.00000  Uiso   1.00
C1489  C     0.84069   0.83287   0.97578   0.00000  Uiso   1.00
C1490  C     0.82598   0.83380   0.52422   0.00000  Uiso   1.00
C1491  C     0.77654   0.82727   0.55181   0.00000  Uiso   1.00
C1492  C     0.89012   0.83940   0.94819   0.00000  Uiso   1.00
C1493  C     0.74700   0.80723   0.53212   0.00000  Uiso   1.00
C1494  C     0.91967   0.85944   0.96788   0.00000  Uiso   1.00
H1495  H     0.82242   0.80767   0.60624   0.00000  Uiso   1.00
H1496  H     0.84425   0.85900   0.89376   0.00000  Uiso   1.00
H1497  H     0.94570   0.86982   0.60767   0.00000  Uiso   1.00
H1498  H     0.72096   0.79684   0.89233   0.00000  Uiso   1.00
C1499  C     0.85896   0.97779   0.77270   0.00000  Uiso   1.00
C1500  C     0.80770   0.68887   0.72730   0.00000  Uiso   1.00
H1501  H     0.87866   0.96058   0.79051   0.00000  Uiso   1.00
H1502  H     0.78801   0.70608   0.70948   0.00000  Uiso   1.00
C1503  C     0.86074   0.68727   0.77125   0.00000  Uiso   1.00
C1504  C     0.80592   0.97940   0.72875   0.00000  Uiso   1.00
H1505  H     0.88097   0.70320   0.78862   0.00000  Uiso   1.00
H1506  H     0.78569   0.96347   0.71138   0.00000  Uiso   1.00
C1507  C     0.83506   0.70917   0.74861   0.00000  Uiso   1.00
C1508  C     0.83160   0.95749   0.75139   0.00000  Uiso   1.00
C1509  C     0.98593   0.80018   0.73027   0.00000  Uiso   1.00
C1510  C     0.68073   0.86648   0.76974   0.00000  Uiso   1.00
C1511  C     0.70022   0.80075   0.73081   0.00000  Uiso   1.00
C1512  C     0.96644   0.86592   0.76919   0.00000  Uiso   1.00
H1513  H     0.72657   0.77525   0.71622   0.00000  Uiso   1.00
H1514  H     0.94009   0.89142   0.78378   0.00000  Uiso   1.00
N1515  N     0.71426   0.83334   0.75001   0.00000  Uiso   1.00
N1516  N     0.95241   0.83332   0.74999   0.00000  Uiso   1.00
C1517  C     0.70395   0.78457   0.56472   0.00000  Uiso   1.00
C1518  C     0.71383   0.73704   0.55899   0.00000  Uiso   1.00
H1519  H     0.72702   0.72654   0.52196   0.00000  Uiso   1.00
H1520  H     0.74223   0.72754   0.57253   0.00000  Uiso   1.00
H1521  H     0.68006   0.72087   0.57882   0.00000  Uiso   1.00
H1522  H     0.69661   0.79207   0.60165   0.00000  Uiso   1.00
H1523  H     0.67004   0.79520   0.56086   0.00000  Uiso   1.00
C1524  C     0.96272   0.88210   0.93528   0.00000  Uiso   1.00
C1525  C     0.95284   0.92963   0.94101   0.00000  Uiso   1.00
H1526  H     0.92444   0.93913   0.92747   0.00000  Uiso   1.00
H1527  H     0.93965   0.94013   0.97804   0.00000  Uiso   1.00
H1528  H     0.98661   0.94580   0.92117   0.00000  Uiso   1.00
H1529  H     0.99663   0.87147   0.93914   0.00000  Uiso   1.00
H1530  H     0.97006   0.87460   0.89835   0.00000  Uiso   1.00
I1531  I     0.99547   0.76589   0.98184   0.00000  Uiso   1.00
I1532  I     0.67120   0.90078   0.51816   0.00000  Uiso   1.00
I1533  I     0.74123   0.86201   0.61661   0.00000  Uiso   1.00
I1534  I     0.92544   0.80466   0.88339   0.00000  Uiso   1.00
C1535  C     0.97166   0.76211   0.70968   0.00000  Uiso   1.00
C1536  C     0.67946   0.73081   0.68147   0.00000  Uiso   1.00
H1537  H     0.70933   0.74695   0.65476   0.00000  Uiso   1.00
H1538  H     0.69389   0.71355   0.70481   0.00000  Uiso   1.00
H1539  H     0.99852   0.70742   0.66377   0.00000  Uiso   1.00
H1540  H     0.94734   0.74415   0.73899   0.00000  Uiso   1.00
H1541  H     0.95306   0.77279   0.68649   0.00000  Uiso   1.00
C1542  C     0.69500   0.90456   0.79034   0.00000  Uiso   1.00
C1543  C     0.98719   0.93586   0.81853   0.00000  Uiso   1.00
H1544  H     0.97278   0.95311   0.79518   0.00000  Uiso   1.00
H1545  H     0.95732   0.91972   0.84524   0.00000  Uiso   1.00
H1546  H     0.66813   0.95925   0.83623   0.00000  Uiso   1.00
H1547  H     0.71358   0.89386   0.81354   0.00000  Uiso   1.00
H1548  H     0.71933   0.92252   0.76103   0.00000  Uiso   1.00
loop_
_geom_bond_atom_site_label_1
_geom_bond_atom_site_label_2
_geom_bond_distance
_geom_bond_site_symmetry_2
_ccdc_geom_bond_type
O1     C5      1.291   .     A
O1     Zn13    2.001   .     S
O2     C6      1.291   .     A
O2     Zn14    2.001   .     S
O3     Zn14    1.973   .     S
O3     C5      1.283   .     A
O4     Zn13    1.973   .     S
O4     C6      1.283   .     A
C5     C46     1.411   .     S
C6     C45     1.411   .     S
O7     C11     1.299   .     A
O7     Zn13    1.965   .     S
O8     C12     1.299   .     A
O8     Zn14    1.965   .     S
O9     Zn14    1.916   .     S
O9     C11     1.297   .     A
O10    C12     1.297   .     A
O10    Zn13    1.916   .     S
C11    C15     1.456   .     S
C12    C16     1.456   .     S
Zn13   N53     2.025   .     S
Zn14   N54     2.025   .     S
C15    C19     1.389   .     A
C15    C21     1.380   .     A
C16    C20     1.389   .     A
C16    C22     1.380   .     A
C17    C25     1.443   .     A
C17    C19     1.399   .     A
C17    I241    2.142   1_455 S
C18    C26     1.443   .     A
C18    C20     1.399   .     A
C18    I156    2.142   .     S
C19    H36     1.084   .     S
C20    H35     1.084   .     S
C21    H34     1.083   .     S
C21    C23     1.391   .     A
C22    C24     1.391   .     A
C22    H33     1.083   .     S
C23    C27     1.416   .     A
C23    C25     1.431   .     A
C24    C26     1.431   .     A
C24    C28     1.416   .     A
C25    C805    1.428   .     S
C26    C806    1.428   1_554 S
C27    C30     1.420   .     A
C27    C802    1.397   .     S
C28    C29     1.420   .     A
C28    C801    1.397   1_554 S
C29    C31     1.413   .     A
C29    I71     2.158   .     S
C30    C32     1.413   .     A
C30    I72     2.158   .     S
C31    C55     1.513   .     S
C31    C799    1.428   1_554 S
C32    C62     1.513   .     S
C32    C800    1.428   .     S
C37    H39     1.084   .     S
C37    C46     1.399   .     A
C37    C299    1.370   .     S
C38    C45     1.399   .     A
C38    H40     1.084   .     S
C38    C558    1.370   1_545 S
C41    H43     1.084   .     S
C41    C45     1.392   .     A
C41    C553    1.370   1_545 S
C42    C46     1.392   .     A
C42    H44     1.084   .     S
C42    C296    1.370   .     S
C47    C73     1.516   .     S
C47    N54     1.393   .     A
C47    C135    1.425   .     S
C48    N53     1.393   .     A
C48    C80     1.516   .     S
C48    C222    1.425   1_455 S
C49    H51     1.078   .     S
C49    N53     1.350   .     A
C49    C219    1.425   1_455 S
C50    H52     1.078   .     S
C50    N54     1.350   .     A
C50    C134    1.425   .     S
C55    C56     1.531   .     S
C55    H60     1.104   .     S
C55    H61     1.102   .     S
C56    H57     1.108   .     S
C56    H59     1.110   .     S
C56    H58     1.111   .     S
C62    C63     1.531   .     S
C62    H67     1.102   .     S
C62    H68     1.104   .     S
C63    H65     1.108   .     S
C63    H66     1.110   .     S
C63    H64     1.111   .     S
I69    C103    2.142   .     S
I70    C190    2.142   1_455 S
C73    H78     1.105   .     S
C73    H79     1.109   .     S
C73    C160    1.533   .     S
C74    H76     1.111   .     S
C74    H75     1.108   .     S
C74    C245    1.533   1_455 S
C74    H249    1.110   1_455 S
H77    C160    1.110   .     S
C80    H86     1.105   .     S
C80    H85     1.109   .     S
C80    C253    1.533   1_455 S
C81    H82     1.111   .     S
C81    H83     1.108   .     S
C81    C166    1.533   .     S
C81    H170    1.110   .     S
H84    C253    1.110   1_455 S
O87    C91     1.291   .     A
O87    Zn99    2.001   .     S
O88    C92     1.291   .     A
O88    Zn100   2.001   .     S
O89    Zn100   1.973   .     S
O89    C91     1.283   .     A
O90    Zn99    1.973   .     S
O90    C92     1.283   .     A
C91    C132    1.411   .     S
C92    C131    1.411   .     S
O93    C97     1.299   .     A
O93    Zn99    1.965   .     S
O94    C98     1.299   .     A
O94    Zn100   1.965   .     S
O95    Zn100   1.916   .     S
O95    C97     1.297   .     A
O96    C98     1.297   .     A
O96    Zn99    1.916   .     S
C97    C101    1.456   .     S
C98    C102    1.456   .     S
Zn99   N139    2.025   .     S
Zn100  N140    2.025   .     S
C101   C105    1.389   .     A
C101   C107    1.380   .     A
C102   C106    1.389   .     A
C102   C108    1.380   .     A
C103   C111    1.443   .     A
C103   C105    1.399   .     A
C104   C112    1.443   .     A
C104   C106    1.399   .     A
C104   I242    2.142   .     S
C105   H122    1.084   .     S
C106   H121    1.084   .     S
C107   H120    1.083   .     S
C107   C109    1.391   .     A
C108   C110    1.391   .     A
C108   H119    1.083   .     S
C109   C113    1.416   .     A
C109   C111    1.431   .     A
C110   C112    1.431   .     A
C110   C114    1.416   .     A
C111   C891    1.428   .     S
C112   C892    1.428   1_554 S
C113   C116    1.420   .     A
C113   C888    1.397   .     S
C114   C115    1.420   .     A
C114   C887    1.397   1_554 S
C115   C117    1.413   .     A
C115   I157    2.158   .     S
C116   C118    1.413   .     A
C116   I158    2.158   .     S
C117   C141    1.513   .     S
C117   C885    1.428   1_554 S
C118   C148    1.513   .     S
C118   C886    1.428   .     S
C123   H125    1.084   .     S
C123   C132    1.399   .     A
C123   C385    1.370   .     S
C124   C131    1.399   .     A
C124   H126    1.084   .     S
C124   C644    1.370   1_545 S
C127   H129    1.084   .     S
C127   C131    1.392   .     A
C127   C639    1.370   1_545 S
C128   C132    1.392   .     A
C128   H130    1.084   .     S
C128   C382    1.370   .     S
C133   C159    1.516   .     S
C133   N140    1.393   .     A
C133   C221    1.425   .     S
C134   N139    1.393   .     A
C134   C166    1.516   .     S
C135   H137    1.078   .     S
C135   N139    1.350   .     A
C136   H138    1.078   .     S
C136   N140    1.350   .     A
C136   C220    1.425   .     S
C141   C142    1.531   .     S
C141   H146    1.104   .     S
C141   H147    1.102   .     S
C142   H143    1.108   .     S
C142   H145    1.110   .     S
C142   H144    1.111   .     S
C148   C149    1.531   .     S
C148   H153    1.102   .     S
C148   H154    1.104   .     S
C149   H151    1.108   .     S
C149   H152    1.110   .     S
C149   H150    1.111   .     S
I155   C189    2.142   .     S
C159   H164    1.105   .     S
C159   H165    1.109   .     S
C159   C246    1.533   .     S
C160   H162    1.111   .     S
C160   H161    1.108   .     S
H163   C246    1.110   .     S
C166   H172    1.105   .     S
C166   H171    1.109   .     S
C167   H168    1.111   .     S
C167   H169    1.108   .     S
C167   C252    1.533   .     S
C167   H256    1.110   .     S
O173   C177    1.291   .     A
O173   Zn185   2.001   .     S
O174   C178    1.291   .     A
O174   Zn186   2.001   .     S
O175   Zn186   1.973   .     S
O175   C177    1.283   .     A
O176   Zn185   1.973   .     S
O176   C178    1.283   .     A
C177   C218    1.411   .     S
C178   C217    1.411   .     S
O179   C183    1.299   .     A
O179   Zn185   1.965   .     S
O180   C184    1.299   .     A
O180   Zn186   1.965   .     S
O181   Zn186   1.916   .     S
O181   C183    1.297   .     A
O182   C184    1.297   .     A
O182   Zn185   1.916   .     S
C183   C187    1.456   .     S
C184   C188    1.456   .     S
Zn185  N225    2.025   .     S
Zn186  N226    2.025   .     S
C187   C191    1.389   .     A
C187   C193    1.380   .     A
C188   C192    1.389   .     A
C188   C194    1.380   .     A
C189   C197    1.443   .     A
C189   C191    1.399   .     A
C190   C198    1.443   .     A
C190   C192    1.399   .     A
C190   I70     2.142   1_655 S
C191   H208    1.084   .     S
C192   H207    1.084   .     S
C193   H206    1.083   .     S
C193   C195    1.391   .     A
C194   C196    1.391   .     A
C194   H205    1.083   .     S
C195   C199    1.416   .     A
C195   C197    1.431   .     A
C196   C198    1.431   .     A
C196   C200    1.416   .     A
C197   C977    1.428   .     S
C198   C978    1.428   1_554 S
C199   C202    1.420   .     A
C199   C974    1.397   .     S
C200   C201    1.420   .     A
C200   C973    1.397   1_554 S
C201   C203    1.413   .     A
C201   I243    2.158   .     S
C202   C204    1.413   .     A
C202   I244    2.158   .     S
C203   C227    1.513   .     S
C203   C971    1.428   1_554 S
C204   C234    1.513   .     S
C204   C972    1.428   .     S
C209   H211    1.084   .     S
C209   C218    1.399   .     A
C209   C471    1.370   .     S
C210   C217    1.399   .     A
C210   H212    1.084   .     S
C210   C730    1.370   1_545 S
C213   H215    1.084   .     S
C213   C217    1.392   .     A
C213   C725    1.370   1_545 S
C214   C218    1.392   .     A
C214   H216    1.084   .     S
C214   C468    1.370   .     S
C219   C245    1.516   .     S
C219   N226    1.393   .     A
C219   C49     1.425   1_655 S
C220   N225    1.393   .     A
C220   C252    1.516   .     S
C221   H223    1.078   .     S
C221   N225    1.350   .     A
C222   H224    1.078   .     S
C222   N226    1.350   .     A
C222   C48     1.425   1_655 S
C227   C228    1.531   .     S
C227   H232    1.104   .     S
C227   H233    1.102   .     S
C228   H229    1.108   .     S
C228   H231    1.110   .     S
C228   H230    1.111   .     S
C234   C235    1.531   .     S
C234   H239    1.102   .     S
C234   H240    1.104   .     S
C235   H237    1.108   .     S
C235   H238    1.110   .     S
C235   H236    1.111   .     S
I241   C17     2.142   1_655 S
C245   H250    1.105   .     S
C245   H251    1.109   .     S
C245   C74     1.533   1_655 S
C246   H248    1.111   .     S
C246   H247    1.108   .     S
H249   C74     1.110   1_655 S
C252   H258    1.105   .     S
C252   H257    1.109   .     S
C253   H254    1.111   .     S
C253   H255    1.108   .     S
C253   C80     1.533   1_655 S
C253   H84     1.110   1_655 S
O259   C263    1.291   .     A
O259   Zn271   2.001   .     S
O260   C264    1.291   .     A
O260   Zn272   2.001   .     S
O261   Zn272   1.973   .     S
O261   C263    1.283   .     A
O262   Zn271   1.973   .     S
O262   C264    1.283   .     A
C263   C304    1.411   .     S
C264   C303    1.411   .     S
O265   C269    1.299   .     A
O265   Zn271   1.965   .     S
O266   C270    1.299   .     A
O266   Zn272   1.965   .     S
O267   Zn272   1.916   .     S
O267   C269    1.297   .     A
O268   C270    1.297   .     A
O268   Zn271   1.916   .     S
C269   C273    1.456   .     S
C270   C274    1.456   .     S
Zn271  N311    2.025   .     S
Zn272  N312    2.025   .     S
C273   C277    1.389   .     A
C273   C279    1.380   .     A
C274   C278    1.389   .     A
C274   C280    1.380   .     A
C275   C283    1.443   .     A
C275   C277    1.399   .     A
C275   I499    2.142   1_455 S
C276   C284    1.443   .     A
C276   C278    1.399   .     A
C276   I414    2.142   .     S
C277   H294    1.084   .     S
C278   H293    1.084   .     S
C279   H292    1.083   .     S
C279   C281    1.391   .     A
C280   C282    1.391   .     A
C280   H291    1.083   .     S
C281   C285    1.416   .     A
C281   C283    1.431   .     A
C282   C284    1.431   .     A
C282   C286    1.416   .     A
C283   C1063   1.428   .     S
C284   C1064   1.428   1_554 S
C285   C288    1.420   .     A
C285   C1060   1.397   .     S
C286   C287    1.420   .     A
C286   C1059   1.397   1_554 S
C287   C289    1.413   .     A
C287   I329    2.158   .     S
C288   C290    1.413   .     A
C288   I330    2.158   .     S
C289   C313    1.513   .     S
C289   C1057   1.428   1_554 S
C290   C320    1.513   .     S
C290   C1058   1.428   .     S
C295   H297    1.084   .     S
C295   C304    1.399   .     A
C295   C557    1.370   .     S
C296   C303    1.399   .     A
C296   H298    1.084   .     S
C299   H301    1.084   .     S
C299   C303    1.392   .     A
C300   C304    1.392   .     A
C300   H302    1.084   .     S
C300   C554    1.370   .     S
C305   C331    1.516   .     S
C305   N312    1.393   .     A
C305   C393    1.425   .     S
C306   N311    1.393   .     A
C306   C338    1.516   .     S
C306   C480    1.425   1_455 S
C307   H309    1.078   .     S
C307   N311    1.350   .     A
C307   C477    1.425   1_455 S
C308   H310    1.078   .     S
C308   N312    1.350   .     A
C308   C392    1.425   .     S
C313   C314    1.531   .     S
C313   H318    1.104   .     S
C313   H319    1.102   .     S
C314   H315    1.108   .     S
C314   H317    1.110   .     S
C314   H316    1.111   .     S
C320   C321    1.531   .     S
C320   H325    1.102   .     S
C320   H326    1.104   .     S
C321   H323    1.108   .     S
C321   H324    1.110   .     S
C321   H322    1.111   .     S
I327   C361    2.142   .     S
I328   C448    2.142   1_455 S
C331   H336    1.105   .     S
C331   H337    1.109   .     S
C331   C418    1.533   .     S
C332   H334    1.111   .     S
C332   H333    1.108   .     S
C332   C503    1.533   1_455 S
C332   H507    1.110   1_455 S
H335   C418    1.110   .     S
C338   H344    1.105   .     S
C338   H343    1.109   .     S
C338   C511    1.533   1_455 S
C339   H340    1.111   .     S
C339   H341    1.108   .     S
C339   C424    1.533   .     S
C339   H428    1.110   .     S
H342   C511    1.110   1_455 S
O345   C349    1.291   .     A
O345   Zn357   2.001   .     S
O346   C350    1.291   .     A
O346   Zn358   2.001   .     S
O347   Zn358   1.973   .     S
O347   C349    1.283   .     A
O348   Zn357   1.973   .     S
O348   C350    1.283   .     A
C349   C390    1.411   .     S
C350   C389    1.411   .     S
O351   C355    1.299   .     A
O351   Zn357   1.965   .     S
O352   C356    1.299   .     A
O352   Zn358   1.965   .     S
O353   Zn358   1.916   .     S
O353   C355    1.297   .     A
O354   C356    1.297   .     A
O354   Zn357   1.916   .     S
C355   C359    1.456   .     S
C356   C360    1.456   .     S
Zn357  N397    2.025   .     S
Zn358  N398    2.025   .     S
C359   C363    1.389   .     A
C359   C365    1.380   .     A
C360   C364    1.389   .     A
C360   C366    1.380   .     A
C361   C369    1.443   .     A
C361   C363    1.399   .     A
C362   C370    1.443   .     A
C362   C364    1.399   .     A
C362   I500    2.142   .     S
C363   H380    1.084   .     S
C364   H379    1.084   .     S
C365   H378    1.083   .     S
C365   C367    1.391   .     A
C366   C368    1.391   .     A
C366   H377    1.083   .     S
C367   C371    1.416   .     A
C367   C369    1.431   .     A
C368   C370    1.431   .     A
C368   C372    1.416   .     A
C369   C1149   1.428   .     S
C370   C1150   1.428   1_554 S
C371   C374    1.420   .     A
C371   C1146   1.397   .     S
C372   C373    1.420   .     A
C372   C1145   1.397   1_554 S
C373   C375    1.413   .     A
C373   I415    2.158   .     S
C374   C376    1.413   .     A
C374   I416    2.158   .     S
C375   C399    1.513   .     S
C375   C1143   1.428   1_554 S
C376   C406    1.513   .     S
C376   C1144   1.428   .     S
C381   H383    1.084   .     S
C381   C390    1.399   .     A
C381   C643    1.370   .     S
C382   C389    1.399   .     A
C382   H384    1.084   .     S
C385   H387    1.084   .     S
C385   C389    1.392   .     A
C386   C390    1.392   .     A
C386   H388    1.084   .     S
C386   C640    1.370   .     S
C391   C417    1.516   .     S
C391   N398    1.393   .     A
C391   C479    1.425   .     S
C392   N397    1.393   .     A
C392   C424    1.516   .     S
C393   H395    1.078   .     S
C393   N397    1.350   .     A
C394   H396    1.078   .     S
C394   N398    1.350   .     A
C394   C478    1.425   .     S
C399   C400    1.531   .     S
C399   H404    1.104   .     S
C399   H405    1.102   .     S
C400   H401    1.108   .     S
C400   H403    1.110   .     S
C400   H402    1.111   .     S
C406   C407    1.531   .     S
C406   H411    1.102   .     S
C406   H412    1.104   .     S
C407   H409    1.108   .     S
C407   H410    1.110   .     S
C407   H408    1.111   .     S
I413   C447    2.142   .     S
C417   H422    1.105   .     S
C417   H423    1.109   .     S
C417   C504    1.533   .     S
C418   H420    1.111   .     S
C418   H419    1.108   .     S
H421   C504    1.110   .     S
C424   H430    1.105   .     S
C424   H429    1.109   .     S
C425   H426    1.111   .     S
C425   H427    1.108   .     S
C425   C510    1.533   .     S
C425   H514    1.110   .     S
O431   C435    1.291   .     A
O431   Zn443   2.001   .     S
O432   C436    1.291   .     A
O432   Zn444   2.001   .     S
O433   Zn444   1.973   .     S
O433   C435    1.283   .     A
O434   Zn443   1.973   .     S
O434   C436    1.283   .     A
C435   C476    1.411   .     S
C436   C475    1.411   .     S
O437   C441    1.299   .     A
O437   Zn443   1.965   .     S
O438   C442    1.299   .     A
O438   Zn444   1.965   .     S
O439   Zn444   1.916   .     S
O439   C441    1.297   .     A
O440   C442    1.297   .     A
O440   Zn443   1.916   .     S
C441   C445    1.456   .     S
C442   C446    1.456   .     S
Zn443  N483    2.025   .     S
Zn444  N484    2.025   .     S
C445   C449    1.389   .     A
C445   C451    1.380   .     A
C446   C450    1.389   .     A
C446   C452    1.380   .     A
C447   C455    1.443   .     A
C447   C449    1.399   .     A
C448   C456    1.443   .     A
C448   C450    1.399   .     A
C448   I328    2.142   1_655 S
C449   H466    1.084   .     S
C450   H465    1.084   .     S
C451   H464    1.083   .     S
C451   C453    1.391   .     A
C452   C454    1.391   .     A
C452   H463    1.083   .     S
C453   C457    1.416   .     A
C453   C455    1.431   .     A
C454   C456    1.431   .     A
C454   C458    1.416   .     A
C455   C1235   1.428   .     S
C456   C1236   1.428   1_554 S
C457   C460    1.420   .     A
C457   C1232   1.397   .     S
C458   C459    1.420   .     A
C458   C1231   1.397   1_554 S
C459   C461    1.413   .     A
C459   I501    2.158   .     S
C460   C462    1.413   .     A
C460   I502    2.158   .     S
C461   C485    1.513   .     S
C461   C1229   1.428   1_554 S
C462   C492    1.513   .     S
C462   C1230   1.428   .     S
C467   H469    1.084   .     S
C467   C476    1.399   .     A
C467   C729    1.370   .     S
C468   C475    1.399   .     A
C468   H470    1.084   .     S
C471   H473    1.084   .     S
C471   C475    1.392   .     A
C472   C476    1.392   .     A
C472   H474    1.084   .     S
C472   C726    1.370   .     S
C477   C503    1.516   .     S
C477   N484    1.393   .     A
C477   C307    1.425   1_655 S
C478   N483    1.393   .     A
C478   C510    1.516   .     S
C479   H481    1.078   .     S
C479   N483    1.350   .     A
C480   H482    1.078   .     S
C480   N484    1.350   .     A
C480   C306    1.425   1_655 S
C485   C486    1.531   .     S
C485   H490    1.104   .     S
C485   H491    1.102   .     S
C486   H487    1.108   .     S
C486   H489    1.110   .     S
C486   H488    1.111   .     S
C492   C493    1.531   .     S
C492   H497    1.102   .     S
C492   H498    1.104   .     S
C493   H495    1.108   .     S
C493   H496    1.110   .     S
C493   H494    1.111   .     S
I499   C275    2.142   1_655 S
C503   H508    1.105   .     S
C503   H509    1.109   .     S
C503   C332    1.533   1_655 S
C504   H506    1.111   .     S
C504   H505    1.108   .     S
H507   C332    1.110   1_655 S
C510   H516    1.105   .     S
C510   H515    1.109   .     S
C511   H512    1.111   .     S
C511   H513    1.108   .     S
C511   C338    1.533   1_655 S
C511   H342    1.110   1_655 S
O517   C521    1.291   .     A
O517   Zn529   2.001   .     S
O518   C522    1.291   .     A
O518   Zn530   2.001   .     S
O519   Zn530   1.973   .     S
O519   C521    1.283   .     A
O520   Zn529   1.973   .     S
O520   C522    1.283   .     A
C521   C562    1.411   .     S
C522   C561    1.411   .     S
O523   C527    1.299   .     A
O523   Zn529   1.965   .     S
O524   C528    1.299   .     A
O524   Zn530   1.965   .     S
O525   Zn530   1.916   .     S
O525   C527    1.297   .     A
O526   C528    1.297   .     A
O526   Zn529   1.916   .     S
C527   C531    1.456   .     S
C528   C532    1.456   .     S
Zn529  N569    2.025   .     S
Zn530  N570    2.025   .     S
C531   C535    1.389   .     A
C531   C537    1.380   .     A
C532   C536    1.389   .     A
C532   C538    1.380   .     A
C533   C541    1.443   .     A
C533   C535    1.399   .     A
C533   I757    2.142   1_455 S
C534   C542    1.443   .     A
C534   C536    1.399   .     A
C534   I672    2.142   .     S
C535   H552    1.084   .     S
C536   H551    1.084   .     S
C537   H550    1.083   .     S
C537   C539    1.391   .     A
C538   C540    1.391   .     A
C538   H549    1.083   .     S
C539   C543    1.416   .     A
C539   C541    1.431   .     A
C540   C542    1.431   .     A
C540   C544    1.416   .     A
C541   C1321   1.428   .     S
C542   C1322   1.428   1_554 S
C543   C546    1.420   .     A
C543   C1318   1.397   .     S
C544   C545    1.420   .     A
C544   C1317   1.397   1_554 S
C545   C547    1.413   .     A
C545   I587    2.158   .     S
C546   C548    1.413   .     A
C546   I588    2.158   .     S
C547   C571    1.513   .     S
C547   C1315   1.428   1_554 S
C548   C578    1.513   .     S
C548   C1316   1.428   .     S
C553   H555    1.084   .     S
C553   C562    1.399   .     A
C553   C41     1.370   1_565 S
C554   C561    1.399   .     A
C554   H556    1.084   .     S
C557   H559    1.084   .     S
C557   C561    1.392   .     A
C558   C562    1.392   .     A
C558   H560    1.084   .     S
C558   C38     1.370   1_565 S
C563   C589    1.516   .     S
C563   N570    1.393   .     A
C563   C651    1.425   .     S
C564   N569    1.393   .     A
C564   C596    1.516   .     S
C564   C738    1.425   1_455 S
C565   H567    1.078   .     S
C565   N569    1.350   .     A
C565   C735    1.425   1_455 S
C566   H568    1.078   .     S
C566   N570    1.350   .     A
C566   C650    1.425   .     S
C571   C572    1.531   .     S
C571   H576    1.104   .     S
C571   H577    1.102   .     S
C572   H573    1.108   .     S
C572   H575    1.110   .     S
C572   H574    1.111   .     S
C578   C579    1.531   .     S
C578   H583    1.102   .     S
C578   H584    1.104   .     S
C579   H581    1.108   .     S
C579   H582    1.110   .     S
C579   H580    1.111   .     S
I585   C619    2.142   .     S
I586   C706    2.142   1_455 S
C589   H594    1.105   .     S
C589   H595    1.109   .     S
C589   C676    1.533   .     S
C590   H592    1.111   .     S
C590   H591    1.108   .     S
C590   C761    1.533   1_455 S
C590   H765    1.110   1_455 S
H593   C676    1.110   .     S
C596   H602    1.105   .     S
C596   H601    1.109   .     S
C596   C769    1.533   1_455 S
C597   H598    1.111   .     S
C597   H599    1.108   .     S
C597   C682    1.533   .     S
C597   H686    1.110   .     S
H600   C769    1.110   1_455 S
O603   C607    1.291   .     A
O603   Zn615   2.001   .     S
O604   C608    1.291   .     A
O604   Zn616   2.001   .     S
O605   Zn616   1.973   .     S
O605   C607    1.283   .     A
O606   Zn615   1.973   .     S
O606   C608    1.283   .     A
C607   C648    1.411   .     S
C608   C647    1.411   .     S
O609   C613    1.299   .     A
O609   Zn615   1.965   .     S
O610   C614    1.299   .     A
O610   Zn616   1.965   .     S
O611   Zn616   1.916   .     S
O611   C613    1.297   .     A
O612   C614    1.297   .     A
O612   Zn615   1.916   .     S
C613   C617    1.456   .     S
C614   C618    1.456   .     S
Zn615  N655    2.025   .     S
Zn616  N656    2.025   .     S
C617   C621    1.389   .     A
C617   C623    1.380   .     A
C618   C622    1.389   .     A
C618   C624    1.380   .     A
C619   C627    1.443   .     A
C619   C621    1.399   .     A
C620   C628    1.443   .     A
C620   C622    1.399   .     A
C620   I758    2.142   .     S
C621   H638    1.084   .     S
C622   H637    1.084   .     S
C623   H636    1.083   .     S
C623   C625    1.391   .     A
C624   C626    1.391   .     A
C624   H635    1.083   .     S
C625   C629    1.416   .     A
C625   C627    1.431   .     A
C626   C628    1.431   .     A
C626   C630    1.416   .     A
C627   C1407   1.428   .     S
C628   C1408   1.428   1_554 S
C629   C632    1.420   .     A
C629   C1404   1.397   .     S
C630   C631    1.420   .     A
C630   C1403   1.397   1_554 S
C631   C633    1.413   .     A
C631   I673    2.158   .     S
C632   C634    1.413   .     A
C632   I674    2.158   .     S
C633   C657    1.513   .     S
C633   C1401   1.428   1_554 S
C634   C664    1.513   .     S
C634   C1402   1.428   .     S
C639   H641    1.084   .     S
C639   C648    1.399   .     A
C639   C127    1.370   1_565 S
C640   C647    1.399   .     A
C640   H642    1.084   .     S
C643   H645    1.084   .     S
C643   C647    1.392   .     A
C644   C648    1.392   .     A
C644   H646    1.084   .     S
C644   C124    1.370   1_565 S
C649   C675    1.516   .     S
C649   N656    1.393   .     A
C649   C737    1.425   .     S
C650   N655    1.393   .     A
C650   C682    1.516   .     S
C651   H653    1.078   .     S
C651   N655    1.350   .     A
C652   H654    1.078   .     S
C652   N656    1.350   .     A
C652   C736    1.425   .     S
C657   C658    1.531   .     S
C657   H662    1.104   .     S
C657   H663    1.102   .     S
C658   H659    1.108   .     S
C658   H661    1.110   .     S
C658   H660    1.111   .     S
C664   C665    1.531   .     S
C664   H669    1.102   .     S
C664   H670    1.104   .     S
C665   H667    1.108   .     S
C665   H668    1.110   .     S
C665   H666    1.111   .     S
I671   C705    2.142   .     S
C675   H680    1.105   .     S
C675   H681    1.109   .     S
C675   C762    1.533   .     S
C676   H678    1.111   .     S
C676   H677    1.108   .     S
H679   C762    1.110   .     S
C682   H688    1.105   .     S
C682   H687    1.109   .     S
C683   H684    1.111   .     S
C683   H685    1.108   .     S
C683   C768    1.533   .     S
C683   H772    1.110   .     S
O689   C693    1.291   .     A
O689   Zn701   2.001   .     S
O690   C694    1.291   .     A
O690   Zn702   2.001   .     S
O691   Zn702   1.973   .     S
O691   C693    1.283   .     A
O692   Zn701   1.973   .     S
O692   C694    1.283   .     A
C693   C734    1.411   .     S
C694   C733    1.411   .     S
O695   C699    1.299   .     A
O695   Zn701   1.965   .     S
O696   C700    1.299   .     A
O696   Zn702   1.965   .     S
O697   Zn702   1.916   .     S
O697   C699    1.297   .     A
O698   C700    1.297   .     A
O698   Zn701   1.916   .     S
C699   C703    1.456   .     S
C700   C704    1.456   .     S
Zn701  N741    2.025   .     S
Zn702  N742    2.025   .     S
C703   C707    1.389   .     A
C703   C709    1.380   .     A
C704   C708    1.389   .     A
C704   C710    1.380   .     A
C705   C713    1.443   .     A
C705   C707    1.399   .     A
C706   C714    1.443   .     A
C706   C708    1.399   .     A
C706   I586    2.142   1_655 S
C707   H724    1.084   .     S
C708   H723    1.084   .     S
C709   H722    1.083   .     S
C709   C711    1.391   .     A
C710   C712    1.391   .     A
C710   H721    1.083   .     S
C711   C715    1.416   .     A
C711   C713    1.431   .     A
C712   C714    1.431   .     A
C712   C716    1.416   .     A
C713   C1493   1.428   .     S
C714   C1494   1.428   1_554 S
C715   C718    1.420   .     A
C715   C1490   1.397   .     S
C716   C717    1.420   .     A
C716   C1489   1.397   1_554 S
C717   C719    1.413   .     A
C717   I759    2.158   .     S
C718   C720    1.413   .     A
C718   I760    2.158   .     S
C719   C743    1.513   .     S
C719   C1487   1.428   1_554 S
C720   C750    1.513   .     S
C720   C1488   1.428   .     S
C725   H727    1.084   .     S
C725   C734    1.399   .     A
C725   C213    1.370   1_565 S
C726   C733    1.399   .     A
C726   H728    1.084   .     S
C729   H731    1.084   .     S
C729   C733    1.392   .     A
C730   C734    1.392   .     A
C730   H732    1.084   .     S
C730   C210    1.370   1_565 S
C735   C761    1.516   .     S
C735   N742    1.393   .     A
C735   C565    1.425   1_655 S
C736   N741    1.393   .     A
C736   C768    1.516   .     S
C737   H739    1.078   .     S
C737   N741    1.350   .     A
C738   H740    1.078   .     S
C738   N742    1.350   .     A
C738   C564    1.425   1_655 S
C743   C744    1.531   .     S
C743   H748    1.104   .     S
C743   H749    1.102   .     S
C744   H745    1.108   .     S
C744   H747    1.110   .     S
C744   H746    1.111   .     S
C750   C751    1.531   .     S
C750   H755    1.102   .     S
C750   H756    1.104   .     S
C751   H753    1.108   .     S
C751   H754    1.110   .     S
C751   H752    1.111   .     S
I757   C533    2.142   1_655 S
C761   H766    1.105   .     S
C761   H767    1.109   .     S
C761   C590    1.533   1_655 S
C762   H764    1.111   .     S
C762   H763    1.108   .     S
H765   C590    1.110   1_655 S
C768   H774    1.105   .     S
C768   H773    1.109   .     S
C769   H770    1.111   .     S
C769   H771    1.108   .     S
C769   C596    1.533   1_655 S
C769   H600    1.110   1_655 S
O775   C779    1.291   .     A
O775   Zn787   2.001   .     S
O776   C780    1.291   .     A
O776   Zn788   2.001   .     S
O777   Zn788   1.973   .     S
O777   C779    1.283   .     A
O778   Zn787   1.973   .     S
O778   C780    1.283   .     A
C779   C820    1.411   .     S
C780   C819    1.411   .     S
O781   C785    1.299   .     A
O781   Zn787   1.965   .     S
O782   C786    1.299   .     A
O782   Zn788   1.965   .     S
O783   Zn788   1.916   .     S
O783   C785    1.297   .     A
O784   C786    1.297   .     A
O784   Zn787   1.916   .     S
C785   C789    1.456   .     S
C786   C790    1.456   .     S
Zn787  N827    2.025   .     S
Zn788  N828    2.025   .     S
C789   C793    1.389   .     A
C789   C795    1.380   .     A
C790   C794    1.389   .     A
C790   C796    1.380   .     A
C791   C799    1.443   .     A
C791   C793    1.399   .     A
C791   I1015   2.142   1_455 S
C792   C800    1.443   .     A
C792   C794    1.399   .     A
C792   I930    2.142   .     S
C793   H810    1.084   .     S
C794   H809    1.084   .     S
C795   H808    1.083   .     S
C795   C797    1.391   .     A
C796   C798    1.391   .     A
C796   H807    1.083   .     S
C797   C801    1.416   .     A
C797   C799    1.431   .     A
C798   C800    1.431   .     A
C798   C802    1.416   .     A
C799   C31     1.428   1_556 S
C801   C804    1.420   .     A
C801   C28     1.397   1_556 S
C802   C803    1.420   .     A
C803   C805    1.413   .     A
C803   I845    2.158   .     S
C804   C806    1.413   .     A
C804   I846    2.158   .     S
C805   C829    1.513   .     S
C806   C836    1.513   .     S
C806   C26     1.428   1_556 S
C811   H813    1.084   .     S
C811   C820    1.399   .     A
C811   C1073   1.370   .     S
C812   C819    1.399   .     A
C812   H814    1.084   .     S
C812   C1332   1.370   1_545 S
C815   H817    1.084   .     S
C815   C819    1.392   .     A
C815   C1327   1.370   1_545 S
C816   C820    1.392   .     A
C816   H818    1.084   .     S
C816   C1070   1.370   .     S
C821   C847    1.516   .     S
C821   N828    1.393   .     A
C821   C909    1.425   .     S
C822   N827    1.393   .     A
C822   C854    1.516   .     S
C822   C996    1.425   1_455 S
C823   H825    1.078   .     S
C823   N827    1.350   .     A
C823   C993    1.425   1_455 S
C824   H826    1.078   .     S
C824   N828    1.350   .     A
C824   C908    1.425   .     S
C829   C830    1.531   .     S
C829   H834    1.104   .     S
C829   H835    1.102   .     S
C830   H831    1.108   .     S
C830   H833    1.110   .     S
C830   H832    1.111   .     S
C836   C837    1.531   .     S
C836   H841    1.102   .     S
C836   H842    1.104   .     S
C837   H839    1.108   .     S
C837   H840    1.110   .     S
C837   H838    1.111   .     S
I843   C877    2.142   .     S
I844   C964    2.142   1_455 S
C847   H852    1.105   .     S
C847   H853    1.109   .     S
C847   C934    1.533   .     S
C848   H850    1.111   .     S
C848   H849    1.108   .     S
C848   C1019   1.533   1_455 S
C848   H1023   1.110   1_455 S
H851   C934    1.110   .     S
C854   H860    1.105   .     S
C854   H859    1.109   .     S
C854   C1027   1.533   1_455 S
C855   H856    1.111   .     S
C855   H857    1.108   .     S
C855   C940    1.533   .     S
C855   H944    1.110   .     S
H858   C1027   1.110   1_455 S
O861   C865    1.291   .     A
O861   Zn873   2.001   .     S
O862   C866    1.291   .     A
O862   Zn874   2.001   .     S
O863   Zn874   1.973   .     S
O863   C865    1.283   .     A
O864   Zn873   1.973   .     S
O864   C866    1.283   .     A
C865   C906    1.411   .     S
C866   C905    1.411   .     S
O867   C871    1.299   .     A
O867   Zn873   1.965   .     S
O868   C872    1.299   .     A
O868   Zn874   1.965   .     S
O869   Zn874   1.916   .     S
O869   C871    1.297   .     A
O870   C872    1.297   .     A
O870   Zn873   1.916   .     S
C871   C875    1.456   .     S
C872   C876    1.456   .     S
Zn873  N913    2.025   .     S
Zn874  N914    2.025   .     S
C875   C879    1.389   .     A
C875   C881    1.380   .     A
C876   C880    1.389   .     A
C876   C882    1.380   .     A
C877   C885    1.443   .     A
C877   C879    1.399   .     A
C878   C886    1.443   .     A
C878   C880    1.399   .     A
C878   I1016   2.142   .     S
C879   H896    1.084   .     S
C880   H895    1.084   .     S
C881   H894    1.083   .     S
C881   C883    1.391   .     A
C882   C884    1.391   .     A
C882   H893    1.083   .     S
C883   C887    1.416   .     A
C883   C885    1.431   .     A
C884   C886    1.431   .     A
C884   C888    1.416   .     A
C885   C117    1.428   1_556 S
C887   C890    1.420   .     A
C887   C114    1.397   1_556 S
C888   C889    1.420   .     A
C889   C891    1.413   .     A
C889   I931    2.158   .     S
C890   C892    1.413   .     A
C890   I932    2.158   .     S
C891   C915    1.513   .     S
C892   C922    1.513   .     S
C892   C112    1.428   1_556 S
C897   H899    1.084   .     S
C897   C906    1.399   .     A
C897   C1159   1.370   .     S
C898   C905    1.399   .     A
C898   H900    1.084   .     S
C898   C1418   1.370   1_545 S
C901   H903    1.084   .     S
C901   C905    1.392   .     A
C901   C1413   1.370   1_545 S
C902   C906    1.392   .     A
C902   H904    1.084   .     S
C902   C1156   1.370   .     S
C907   C933    1.516   .     S
C907   N914    1.393   .     A
C907   C995    1.425   .     S
C908   N913    1.393   .     A
C908   C940    1.516   .     S
C909   H911    1.078   .     S
C909   N913    1.350   .     A
C910   H912    1.078   .     S
C910   N914    1.350   .     A
C910   C994    1.425   .     S
C915   C916    1.531   .     S
C915   H920    1.104   .     S
C915   H921    1.102   .     S
C916   H917    1.108   .     S
C916   H919    1.110   .     S
C916   H918    1.111   .     S
C922   C923    1.531   .     S
C922   H927    1.102   .     S
C922   H928    1.104   .     S
C923   H925    1.108   .     S
C923   H926    1.110   .     S
C923   H924    1.111   .     S
I929   C963    2.142   .     S
C933   H938    1.105   .     S
C933   H939    1.109   .     S
C933   C1020   1.533   .     S
C934   H936    1.111   .     S
C934   H935    1.108   .     S
H937   C1020   1.110   .     S
C940   H946    1.105   .     S
C940   H945    1.109   .     S
C941   H942    1.111   .     S
C941   H943    1.108   .     S
C941   C1026   1.533   .     S
C941   H1030   1.110   .     S
O947   C951    1.291   .     A
O947   Zn959   2.001   .     S
O948   C952    1.291   .     A
O948   Zn960   2.001   .     S
O949   Zn960   1.973   .     S
O949   C951    1.283   .     A
O950   Zn959   1.973   .     S
O950   C952    1.283   .     A
C951   C992    1.411   .     S
C952   C991    1.411   .     S
O953   C957    1.299   .     A
O953   Zn959   1.965   .     S
O954   C958    1.299   .     A
O954   Zn960   1.965   .     S
O955   Zn960   1.916   .     S
O955   C957    1.297   .     A
O956   C958    1.297   .     A
O956   Zn959   1.916   .     S
C957   C961    1.456   .     S
C958   C962    1.456   .     S
Zn959  N999    2.025   .     S
Zn960  N1000   2.025   .     S
C961   C965    1.389   .     A
C961   C967    1.380   .     A
C962   C966    1.389   .     A
C962   C968    1.380   .     A
C963   C971    1.443   .     A
C963   C965    1.399   .     A
C964   C972    1.443   .     A
C964   C966    1.399   .     A
C964   I844    2.142   1_655 S
C965   H982    1.084   .     S
C966   H981    1.084   .     S
C967   H980    1.083   .     S
C967   C969    1.391   .     A
C968   C970    1.391   .     A
C968   H979    1.083   .     S
C969   C973    1.416   .     A
C969   C971    1.431   .     A
C970   C972    1.431   .     A
C970   C974    1.416   .     A
C971   C203    1.428   1_556 S
C973   C976    1.420   .     A
C973   C200    1.397   1_556 S
C974   C975    1.420   .     A
C975   C977    1.413   .     A
C975   I1017   2.158   .     S
C976   C978    1.413   .     A
C976   I1018   2.158   .     S
C977   C1001   1.513   .     S
C978   C1008   1.513   .     S
C978   C198    1.428   1_556 S
C983   H985    1.084   .     S
C983   C992    1.399   .     A
C983   C1245   1.370   .     S
C984   C991    1.399   .     A
C984   H986    1.084   .     S
C984   C1504   1.370   1_545 S
C987   H989    1.084   .     S
C987   C991    1.392   .     A
C987   C1499   1.370   1_545 S
C988   C992    1.392   .     A
C988   H990    1.084   .     S
C988   C1242   1.370   .     S
C993   C1019   1.516   .     S
C993   N1000   1.393   .     A
C993   C823    1.425   1_655 S
C994   N999    1.393   .     A
C994   C1026   1.516   .     S
C995   H997    1.078   .     S
C995   N999    1.350   .     A
C996   H998    1.078   .     S
C996   N1000   1.350   .     A
C996   C822    1.425   1_655 S
C1001  C1002   1.531   .     S
C1001  H1006   1.104   .     S
C1001  H1007   1.102   .     S
C1002  H1003   1.108   .     S
C1002  H1005   1.110   .     S
C1002  H1004   1.111   .     S
C1008  C1009   1.531   .     S
C1008  H1013   1.102   .     S
C1008  H1014   1.104   .     S
C1009  H1011   1.108   .     S
C1009  H1012   1.110   .     S
C1009  H1010   1.111   .     S
I1015  C791    2.142   1_655 S
C1019  H1024   1.105   .     S
C1019  H1025   1.109   .     S
C1019  C848    1.533   1_655 S
C1020  H1022   1.111   .     S
C1020  H1021   1.108   .     S
H1023  C848    1.110   1_655 S
C1026  H1032   1.105   .     S
C1026  H1031   1.109   .     S
C1027  H1028   1.111   .     S
C1027  H1029   1.108   .     S
C1027  C854    1.533   1_655 S
C1027  H858    1.110   1_655 S
O1033  C1037   1.291   .     A
O1033  Zn1045  2.001   .     S
O1034  C1038   1.291   .     A
O1034  Zn1046  2.001   .     S
O1035  Zn1046  1.973   .     S
O1035  C1037   1.283   .     A
O1036  Zn1045  1.973   .     S
O1036  C1038   1.283   .     A
C1037  C1078   1.411   .     S
C1038  C1077   1.411   .     S
O1039  C1043   1.299   .     A
O1039  Zn1045  1.965   .     S
O1040  C1044   1.299   .     A
O1040  Zn1046  1.965   .     S
O1041  Zn1046  1.916   .     S
O1041  C1043   1.297   .     A
O1042  C1044   1.297   .     A
O1042  Zn1045  1.916   .     S
C1043  C1047   1.456   .     S
C1044  C1048   1.456   .     S
Zn1045 N1085   2.025   .     S
Zn1046 N1086   2.025   .     S
C1047  C1051   1.389   .     A
C1047  C1053   1.380   .     A
C1048  C1052   1.389   .     A
C1048  C1054   1.380   .     A
C1049  C1057   1.443   .     A
C1049  C1051   1.399   .     A
C1049  I1273   2.142   1_455 S
C1050  C1058   1.443   .     A
C1050  C1052   1.399   .     A
C1050  I1188   2.142   .     S
C1051  H1068   1.084   .     S
C1052  H1067   1.084   .     S
C1053  H1066   1.083   .     S
C1053  C1055   1.391   .     A
C1054  C1056   1.391   .     A
C1054  H1065   1.083   .     S
C1055  C1059   1.416   .     A
C1055  C1057   1.431   .     A
C1056  C1058   1.431   .     A
C1056  C1060   1.416   .     A
C1057  C289    1.428   1_556 S
C1059  C1062   1.420   .     A
C1059  C286    1.397   1_556 S
C1060  C1061   1.420   .     A
C1061  C1063   1.413   .     A
C1061  I1103   2.158   .     S
C1062  C1064   1.413   .     A
C1062  I1104   2.158   .     S
C1063  C1087   1.513   .     S
C1064  C1094   1.513   .     S
C1064  C284    1.428   1_556 S
C1069  H1071   1.084   .     S
C1069  C1078   1.399   .     A
C1069  C1331   1.370   .     S
C1070  C1077   1.399   .     A
C1070  H1072   1.084   .     S
C1073  H1075   1.084   .     S
C1073  C1077   1.392   .     A
C1074  C1078   1.392   .     A
C1074  H1076   1.084   .     S
C1074  C1328   1.370   .     S
C1079  C1105   1.516   .     S
C1079  N1086   1.393   .     A
C1079  C1167   1.425   .     S
C1080  N1085   1.393   .     A
C1080  C1112   1.516   .     S
C1080  C1254   1.425   1_455 S
C1081  H1083   1.078   .     S
C1081  N1085   1.350   .     A
C1081  C1251   1.425   1_455 S
C1082  H1084   1.078   .     S
C1082  N1086   1.350   .     A
C1082  C1166   1.425   .     S
C1087  C1088   1.531   .     S
C1087  H1092   1.104   .     S
C1087  H1093   1.102   .     S
C1088  H1089   1.108   .     S
C1088  H1091   1.110   .     S
C1088  H1090   1.111   .     S
C1094  C1095   1.531   .     S
C1094  H1099   1.102   .     S
C1094  H1100   1.104   .     S
C1095  H1097   1.108   .     S
C1095  H1098   1.110   .     S
C1095  H1096   1.111   .     S
I1101  C1135   2.142   .     S
I1102  C1222   2.142   1_455 S
C1105  H1110   1.105   .     S
C1105  H1111   1.109   .     S
C1105  C1192   1.533   .     S
C1106  H1108   1.111   .     S
C1106  H1107   1.108   .     S
C1106  C1277   1.533   1_455 S
C1106  H1281   1.110   1_455 S
H1109  C1192   1.110   .     S
C1112  H1118   1.105   .     S
C1112  H1117   1.109   .     S
C1112  C1285   1.533   1_455 S
C1113  H1114   1.111   .     S
C1113  H1115   1.108   .     S
C1113  C1198   1.533   .     S
C1113  H1202   1.110   .     S
H1116  C1285   1.110   1_455 S
O1119  C1123   1.291   .     A
O1119  Zn1131  2.001   .     S
O1120  C1124   1.291   .     A
O1120  Zn1132  2.001   .     S
O1121  Zn1132  1.973   .     S
O1121  C1123   1.283   .     A
O1122  Zn1131  1.973   .     S
O1122  C1124   1.283   .     A
C1123  C1164   1.411   .     S
C1124  C1163   1.411   .     S
O1125  C1129   1.299   .     A
O1125  Zn1131  1.965   .     S
O1126  C1130   1.299   .     A
O1126  Zn1132  1.965   .     S
O1127  Zn1132  1.916   .     S
O1127  C1129   1.297   .     A
O1128  C1130   1.297   .     A
O1128  Zn1131  1.916   .     S
C1129  C1133   1.456   .     S
C1130  C1134   1.456   .     S
Zn1131 N1171   2.025   .     S
Zn1132 N1172   2.025   .     S
C1133  C1137   1.389   .     A
C1133  C1139   1.380   .     A
C1134  C1138   1.389   .     A
C1134  C1140   1.380   .     A
C1135  C1143   1.443   .     A
C1135  C1137   1.399   .     A
C1136  C1144   1.443   .     A
C1136  C1138   1.399   .     A
C1136  I1274   2.142   .     S
C1137  H1154   1.084   .     S
C1138  H1153   1.084   .     S
C1139  H1152   1.083   .     S
C1139  C1141   1.391   .     A
C1140  C1142   1.391   .     A
C1140  H1151   1.083   .     S
C1141  C1145   1.416   .     A
C1141  C1143   1.431   .     A
C1142  C1144   1.431   .     A
C1142  C1146   1.416   .     A
C1143  C375    1.428   1_556 S
C1145  C1148   1.420   .     A
C1145  C372    1.397   1_556 S
C1146  C1147   1.420   .     A
C1147  C1149   1.413   .     A
C1147  I1189   2.158   .     S
C1148  C1150   1.413   .     A
C1148  I1190   2.158   .     S
C1149  C1173   1.513   .     S
C1150  C1180   1.513   .     S
C1150  C370    1.428   1_556 S
C1155  H1157   1.084   .     S
C1155  C1164   1.399   .     A
C1155  C1417   1.370   .     S
C1156  C1163   1.399   .     A
C1156  H1158   1.084   .     S
C1159  H1161   1.084   .     S
C1159  C1163   1.392   .     A
C1160  C1164   1.392   .     A
C1160  H1162   1.084   .     S
C1160  C1414   1.370   .     S
C1165  C1191   1.516   .     S
C1165  N1172   1.393   .     A
C1165  C1253   1.425   .     S
C1166  N1171   1.393   .     A
C1166  C1198   1.516   .     S
C1167  H1169   1.078   .     S
C1167  N1171   1.350   .     A
C1168  H1170   1.078   .     S
C1168  N1172   1.350   .     A
C1168  C1252   1.425   .     S
C1173  C1174   1.531   .     S
C1173  H1178   1.104   .     S
C1173  H1179   1.102   .     S
C1174  H1175   1.108   .     S
C1174  H1177   1.110   .     S
C1174  H1176   1.111   .     S
C1180  C1181   1.531   .     S
C1180  H1185   1.102   .     S
C1180  H1186   1.104   .     S
C1181  H1183   1.108   .     S
C1181  H1184   1.110   .     S
C1181  H1182   1.111   .     S
I1187  C1221   2.142   .     S
C1191  H1196   1.105   .     S
C1191  H1197   1.109   .     S
C1191  C1278   1.533   .     S
C1192  H1194   1.111   .     S
C1192  H1193   1.108   .     S
H1195  C1278   1.110   .     S
C1198  H1204   1.105   .     S
C1198  H1203   1.109   .     S
C1199  H1200   1.111   .     S
C1199  H1201   1.108   .     S
C1199  C1284   1.533   .     S
C1199  H1288   1.110   .     S
O1205  C1209   1.291   .     A
O1205  Zn1217  2.001   .     S
O1206  C1210   1.291   .     A
O1206  Zn1218  2.001   .     S
O1207  Zn1218  1.973   .     S
O1207  C1209   1.283   .     A
O1208  Zn1217  1.973   .     S
O1208  C1210   1.283   .     A
C1209  C1250   1.411   .     S
C1210  C1249   1.411   .     S
O1211  C1215   1.299   .     A
O1211  Zn1217  1.965   .     S
O1212  C1216   1.299   .     A
O1212  Zn1218  1.965   .     S
O1213  Zn1218  1.916   .     S
O1213  C1215   1.297   .     A
O1214  C1216   1.297   .     A
O1214  Zn1217  1.916   .     S
C1215  C1219   1.456   .     S
C1216  C1220   1.456   .     S
Zn1217 N1257   2.025   .     S
Zn1218 N1258   2.025   .     S
C1219  C1223   1.389   .     A
C1219  C1225   1.380   .     A
C1220  C1224   1.389   .     A
C1220  C1226   1.380   .     A
C1221  C1229   1.443   .     A
C1221  C1223   1.399   .     A
C1222  C1230   1.443   .     A
C1222  C1224   1.399   .     A
C1222  I1102   2.142   1_655 S
C1223  H1240   1.084   .     S
C1224  H1239   1.084   .     S
C1225  H1238   1.083   .     S
C1225  C1227   1.391   .     A
C1226  C1228   1.391   .     A
C1226  H1237   1.083   .     S
C1227  C1231   1.416   .     A
C1227  C1229   1.431   .     A
C1228  C1230   1.431   .     A
C1228  C1232   1.416   .     A
C1229  C461    1.428   1_556 S
C1231  C1234   1.420   .     A
C1231  C458    1.397   1_556 S
C1232  C1233   1.420   .     A
C1233  C1235   1.413   .     A
C1233  I1275   2.158   .     S
C1234  C1236   1.413   .     A
C1234  I1276   2.158   .     S
C1235  C1259   1.513   .     S
C1236  C1266   1.513   .     S
C1236  C456    1.428   1_556 S
C1241  H1243   1.084   .     S
C1241  C1250   1.399   .     A
C1241  C1503   1.370   .     S
C1242  C1249   1.399   .     A
C1242  H1244   1.084   .     S
C1245  H1247   1.084   .     S
C1245  C1249   1.392   .     A
C1246  C1250   1.392   .     A
C1246  H1248   1.084   .     S
C1246  C1500   1.370   .     S
C1251  C1277   1.516   .     S
C1251  N1258   1.393   .     A
C1251  C1081   1.425   1_655 S
C1252  N1257   1.393   .     A
C1252  C1284   1.516   .     S
C1253  H1255   1.078   .     S
C1253  N1257   1.350   .     A
C1254  H1256   1.078   .     S
C1254  N1258   1.350   .     A
C1254  C1080   1.425   1_655 S
C1259  C1260   1.531   .     S
C1259  H1264   1.104   .     S
C1259  H1265   1.102   .     S
C1260  H1261   1.108   .     S
C1260  H1263   1.110   .     S
C1260  H1262   1.111   .     S
C1266  C1267   1.531   .     S
C1266  H1271   1.102   .     S
C1266  H1272   1.104   .     S
C1267  H1269   1.108   .     S
C1267  H1270   1.110   .     S
C1267  H1268   1.111   .     S
I1273  C1049   2.142   1_655 S
C1277  H1282   1.105   .     S
C1277  H1283   1.109   .     S
C1277  C1106   1.533   1_655 S
C1278  H1280   1.111   .     S
C1278  H1279   1.108   .     S
H1281  C1106   1.110   1_655 S
C1284  H1290   1.105   .     S
C1284  H1289   1.109   .     S
C1285  H1286   1.111   .     S
C1285  H1287   1.108   .     S
C1285  C1112   1.533   1_655 S
C1285  H1116   1.110   1_655 S
O1291  C1295   1.291   .     A
O1291  Zn1303  2.001   .     S
O1292  C1296   1.291   .     A
O1292  Zn1304  2.001   .     S
O1293  Zn1304  1.973   .     S
O1293  C1295   1.283   .     A
O1294  Zn1303  1.973   .     S
O1294  C1296   1.283   .     A
C1295  C1336   1.411   .     S
C1296  C1335   1.411   .     S
O1297  C1301   1.299   .     A
O1297  Zn1303  1.965   .     S
O1298  C1302   1.299   .     A
O1298  Zn1304  1.965   .     S
O1299  Zn1304  1.916   .     S
O1299  C1301   1.297   .     A
O1300  C1302   1.297   .     A
O1300  Zn1303  1.916   .     S
C1301  C1305   1.456   .     S
C1302  C1306   1.456   .     S
Zn1303 N1343   2.025   .     S
Zn1304 N1344   2.025   .     S
C1305  C1309   1.389   .     A
C1305  C1311   1.380   .     A
C1306  C1310   1.389   .     A
C1306  C1312   1.380   .     A
C1307  C1315   1.443   .     A
C1307  C1309   1.399   .     A
C1307  I1531   2.142   1_455 S
C1308  C1316   1.443   .     A
C1308  C1310   1.399   .     A
C1308  I1446   2.142   .     S
C1309  H1326   1.084   .     S
C1310  H1325   1.084   .     S
C1311  H1324   1.083   .     S
C1311  C1313   1.391   .     A
C1312  C1314   1.391   .     A
C1312  H1323   1.083   .     S
C1313  C1317   1.416   .     A
C1313  C1315   1.431   .     A
C1314  C1316   1.431   .     A
C1314  C1318   1.416   .     A
C1315  C547    1.428   1_556 S
C1317  C1320   1.420   .     A
C1317  C544    1.397   1_556 S
C1318  C1319   1.420   .     A
C1319  C1321   1.413   .     A
C1319  I1361   2.158   .     S
C1320  C1322   1.413   .     A
C1320  I1362   2.158   .     S
C1321  C1345   1.513   .     S
C1322  C1352   1.513   .     S
C1322  C542    1.428   1_556 S
C1327  H1329   1.084   .     S
C1327  C1336   1.399   .     A
C1327  C815    1.370   1_565 S
C1328  C1335   1.399   .     A
C1328  H1330   1.084   .     S
C1331  H1333   1.084   .     S
C1331  C1335   1.392   .     A
C1332  C1336   1.392   .     A
C1332  H1334   1.084   .     S
C1332  C812    1.370   1_565 S
C1337  C1363   1.516   .     S
C1337  N1344   1.393   .     A
C1337  C1425   1.425   .     S
C1338  N1343   1.393   .     A
C1338  C1370   1.516   .     S
C1338  C1512   1.425   1_455 S
C1339  H1341   1.078   .     S
C1339  N1343   1.350   .     A
C1339  C1509   1.425   1_455 S
C1340  H1342   1.078   .     S
C1340  N1344   1.350   .     A
C1340  C1424   1.425   .     S
C1345  C1346   1.531   .     S
C1345  H1350   1.104   .     S
C1345  H1351   1.102   .     S
C1346  H1347   1.108   .     S
C1346  H1349   1.110   .     S
C1346  H1348   1.111   .     S
C1352  C1353   1.531   .     S
C1352  H1357   1.102   .     S
C1352  H1358   1.104   .     S
C1353  H1355   1.108   .     S
C1353  H1356   1.110   .     S
C1353  H1354   1.111   .     S
I1359  C1393   2.142   .     S
I1360  C1480   2.142   1_455 S
C1363  H1368   1.105   .     S
C1363  H1369   1.109   .     S
C1363  C1450   1.533   .     S
C1364  H1366   1.111   .     S
C1364  H1365   1.108   .     S
C1364  C1535   1.533   1_455 S
C1364  H1539   1.110   1_455 S
H1367  C1450   1.110   .     S
C1370  H1376   1.105   .     S
C1370  H1375   1.109   .     S
C1370  C1543   1.533   1_455 S
C1371  H1372   1.111   .     S
C1371  H1373   1.108   .     S
C1371  C1456   1.533   .     S
C1371  H1460   1.110   .     S
H1374  C1543   1.110   1_455 S
O1377  C1381   1.291   .     A
O1377  Zn1389  2.001   .     S
O1378  C1382   1.291   .     A
O1378  Zn1390  2.001   .     S
O1379  Zn1390  1.973   .     S
O1379  C1381   1.283   .     A
O1380  Zn1389  1.973   .     S
O1380  C1382   1.283   .     A
C1381  C1422   1.411   .     S
C1382  C1421   1.411   .     S
O1383  C1387   1.299   .     A
O1383  Zn1389  1.965   .     S
O1384  C1388   1.299   .     A
O1384  Zn1390  1.965   .     S
O1385  Zn1390  1.916   .     S
O1385  C1387   1.297   .     A
O1386  C1388   1.297   .     A
O1386  Zn1389  1.916   .     S
C1387  C1391   1.456   .     S
C1388  C1392   1.456   .     S
Zn1389 N1429   2.025   .     S
Zn1390 N1430   2.025   .     S
C1391  C1395   1.389   .     A
C1391  C1397   1.380   .     A
C1392  C1396   1.389   .     A
C1392  C1398   1.380   .     A
C1393  C1401   1.443   .     A
C1393  C1395   1.399   .     A
C1394  C1402   1.443   .     A
C1394  C1396   1.399   .     A
C1394  I1532   2.142   .     S
C1395  H1412   1.084   .     S
C1396  H1411   1.084   .     S
C1397  H1410   1.083   .     S
C1397  C1399   1.391   .     A
C1398  C1400   1.391   .     A
C1398  H1409   1.083   .     S
C1399  C1403   1.416   .     A
C1399  C1401   1.431   .     A
C1400  C1402   1.431   .     A
C1400  C1404   1.416   .     A
C1401  C633    1.428   1_556 S
C1403  C1406   1.420   .     A
C1403  C630    1.397   1_556 S
C1404  C1405   1.420   .     A
C1405  C1407   1.413   .     A
C1405  I1447   2.158   .     S
C1406  C1408   1.413   .     A
C1406  I1448   2.158   .     S
C1407  C1431   1.513   .     S
C1408  C1438   1.513   .     S
C1408  C628    1.428   1_556 S
C1413  H1415   1.084   .     S
C1413  C1422   1.399   .     A
C1413  C901    1.370   1_565 S
C1414  C1421   1.399   .     A
C1414  H1416   1.084   .     S
C1417  H1419   1.084   .     S
C1417  C1421   1.392   .     A
C1418  C1422   1.392   .     A
C1418  H1420   1.084   .     S
C1418  C898    1.370   1_565 S
C1423  C1449   1.516   .     S
C1423  N1430   1.393   .     A
C1423  C1511   1.425   .     S
C1424  N1429   1.393   .     A
C1424  C1456   1.516   .     S
C1425  H1427   1.078   .     S
C1425  N1429   1.350   .     A
C1426  H1428   1.078   .     S
C1426  N1430   1.350   .     A
C1426  C1510   1.425   .     S
C1431  C1432   1.531   .     S
C1431  H1436   1.104   .     S
C1431  H1437   1.102   .     S
C1432  H1433   1.108   .     S
C1432  H1435   1.110   .     S
C1432  H1434   1.111   .     S
C1438  C1439   1.531   .     S
C1438  H1443   1.102   .     S
C1438  H1444   1.104   .     S
C1439  H1441   1.108   .     S
C1439  H1442   1.110   .     S
C1439  H1440   1.111   .     S
I1445  C1479   2.142   .     S
C1449  H1454   1.105   .     S
C1449  H1455   1.109   .     S
C1449  C1536   1.533   .     S
C1450  H1452   1.111   .     S
C1450  H1451   1.108   .     S
H1453  C1536   1.110   .     S
C1456  H1462   1.105   .     S
C1456  H1461   1.109   .     S
C1457  H1458   1.111   .     S
C1457  H1459   1.108   .     S
C1457  C1542   1.533   .     S
C1457  H1546   1.110   .     S
O1463  C1467   1.291   .     A
O1463  Zn1475  2.001   .     S
O1464  C1468   1.291   .     A
O1464  Zn1476  2.001   .     S
O1465  Zn1476  1.973   .     S
O1465  C1467   1.283   .     A
O1466  Zn1475  1.973   .     S
O1466  C1468   1.283   .     A
C1467  C1508   1.411   .     S
C1468  C1507   1.411   .     S
O1469  C1473   1.299   .     A
O1469  Zn1475  1.965   .     S
O1470  C1474   1.299   .     A
O1470  Zn1476  1.965   .     S
O1471  Zn1476  1.916   .     S
O1471  C1473   1.297   .     A
O1472  C1474   1.297   .     A
O1472  Zn1475  1.916   .     S
C1473  C1477   1.456   .     S
C1474  C1478   1.456   .     S
Zn1475 N1515   2.025   .     S
Zn1476 N1516   2.025   .     S
C1477  C1481   1.389   .     A
C1477  C1483   1.380   .     A
C1478  C1482   1.389   .     A
C1478  C1484   1.380   .     A
C1479  C1487   1.443   .     A
C1479  C1481   1.399   .     A
C1480  C1488   1.443   .     A
C1480  C1482   1.399   .     A
C1480  I1360   2.142   1_655 S
C1481  H1498   1.084   .     S
C1482  H1497   1.084   .     S
C1483  H1496   1.083   .     S
C1483  C1485   1.391   .     A
C1484  C1486   1.391   .     A
C1484  H1495   1.083   .     S
C1485  C1489   1.416   .     A
C1485  C1487   1.431   .     A
C1486  C1488   1.431   .     A
C1486  C1490   1.416   .     A
C1487  C719    1.428   1_556 S
C1489  C1492   1.420   .     A
C1489  C716    1.397   1_556 S
C1490  C1491   1.420   .     A
C1491  C1493   1.413   .     A
C1491  I1533   2.158   .     S
C1492  C1494   1.413   .     A
C1492  I1534   2.158   .     S
C1493  C1517   1.513   .     S
C1494  C1524   1.513   .     S
C1494  C714    1.428   1_556 S
C1499  H1501   1.084   .     S
C1499  C1508   1.399   .     A
C1499  C987    1.370   1_565 S
C1500  C1507   1.399   .     A
C1500  H1502   1.084   .     S
C1503  H1505   1.084   .     S
C1503  C1507   1.392   .     A
C1504  C1508   1.392   .     A
C1504  H1506   1.084   .     S
C1504  C984    1.370   1_565 S
C1509  C1535   1.516   .     S
C1509  N1516   1.393   .     A
C1509  C1339   1.425   1_655 S
C1510  N1515   1.393   .     A
C1510  C1542   1.516   .     S
C1511  H1513   1.078   .     S
C1511  N1515   1.350   .     A
C1512  H1514   1.078   .     S
C1512  N1516   1.350   .     A
C1512  C1338   1.425   1_655 S
C1517  C1518   1.531   .     S
C1517  H1522   1.104   .     S
C1517  H1523   1.102   .     S
C1518  H1519   1.108   .     S
C1518  H1521   1.110   .     S
C1518  H1520   1.111   .     S
C1524  C1525   1.531   .     S
C1524  H1529   1.102   .     S
C1524  H1530   1.104   .     S
C1525  H1527   1.108   .     S
C1525  H1528   1.110   .     S
C1525  H1526   1.111   .     S
I1531  C1307   2.142   1_655 S
C1535  H1540   1.105   .     S
C1535  H1541   1.109   .     S
C1535  C1364   1.533   1_655 S
C1536  H1538   1.111   .     S
C1536  H1537   1.108   .     S
H1539  C1364   1.110   1_655 S
C1542  H1548   1.105   .     S
C1542  H1547   1.109   .     S
C1543  H1544   1.111   .     S
C1543  H1545   1.108   .     S
C1543  C1370   1.533   1_655 S
C1543  H1374   1.110   1_655 S
