data_str_m3_o2_o5_pcu_sym.115
_audit_creation_date              2020-01-03
_audit_creation_method            'Materials Studio'
_symmetry_space_group_name_H-M    'P1'
_symmetry_Int_Tables_number       1
_symmetry_cell_setting            triclinic
loop_
_symmetry_equiv_pos_as_xyz
  x,y,z
_cell_length_a                    30.1195
_cell_length_b                    28.3413
_cell_length_c                    26.7008
_cell_angle_alpha                 89.9855
_cell_angle_beta                  90.0805
_cell_angle_gamma                 90.0191
loop_
_atom_site_label
_atom_site_type_symbol
_atom_site_fract_x
_atom_site_fract_y
_atom_site_fract_z
_atom_site_U_iso_or_equiv
_atom_site_adp_type
_atom_site_occupancy
C1     C     0.16378   0.25002   0.16707   0.00000  Uiso   1.00
C2     C     0.23981   0.44743   0.12308   0.00000  Uiso   1.00
C3     C     0.24999   0.25001   0.07285   0.00000  Uiso   1.00
C4     C     0.25002   0.25000   0.26048   0.00000  Uiso   1.00
C5     C     0.25000   0.02675   0.16666   0.00000  Uiso   1.00
C6     C     0.24998   0.47338   0.16666   0.00000  Uiso   1.00
C7     C     0.25000   0.25001   0.02179   0.00000  Uiso   1.00
C8     C     0.25001   0.25000   0.31154   0.00000  Uiso   1.00
C9     C     0.04583   0.28880   0.15147   0.00000  Uiso   1.00
C10    C     0.45427   0.21372   0.14851   0.00000  Uiso   1.00
C11    C     0.45228   0.28637   0.19817   0.00000  Uiso   1.00
C12    C     0.33617   0.25004   0.16704   0.00000  Uiso   1.00
C13    C     0.04726   0.21340   0.19628   0.00000  Uiso   1.00
C14    C     0.09202   0.28978   0.15141   0.00000  Uiso   1.00
C15    C     0.40808   0.21220   0.14845   0.00000  Uiso   1.00
C16    C     0.40635   0.28802   0.19292   0.00000  Uiso   1.00
C17    C     0.09315   0.21149   0.19086   0.00000  Uiso   1.00
C18    C     0.11566   0.25027   0.16947   0.00000  Uiso   1.00
C19    C     0.38420   0.25018   0.16927   0.00000  Uiso   1.00
C20    C     0.02384   0.25117   0.17494   0.00000  Uiso   1.00
C21    C     0.47598   0.25007   0.17455   0.00000  Uiso   1.00
C22    C     0.01395   0.31796   0.08043   0.00000  Uiso   1.00
C23    C     0.22263   0.10230   0.13496   0.00000  Uiso   1.00
C24    C     0.48612   0.18937   0.07556   0.00000  Uiso   1.00
C25    C     0.48075   0.31081   0.27294   0.00000  Uiso   1.00
C26    C     0.01833   0.18524   0.26925   0.00000  Uiso   1.00
C27    C     0.11462   0.36580   0.16205   0.00000  Uiso   1.00
C28    C     0.38720   0.13507   0.15328   0.00000  Uiso   1.00
C29    C     0.38508   0.36470   0.18464   0.00000  Uiso   1.00
C30    C     0.11307   0.13503   0.17775   0.00000  Uiso   1.00
C31    C     0.26015   0.39782   0.20939   0.00000  Uiso   1.00
C32    C     0.27740   0.10229   0.19834   0.00000  Uiso   1.00
C33    C     0.23981   0.39783   0.12396   0.00000  Uiso   1.00
C34    C     0.22187   0.05270   0.13457   0.00000  Uiso   1.00
C35    C     0.26015   0.44743   0.21026   0.00000  Uiso   1.00
C36    C     0.27814   0.05269   0.19873   0.00000  Uiso   1.00
H37    H     0.20102   0.12173   0.11001   0.00000  Uiso   1.00
H38    H     0.49651   0.15694   0.05553   0.00000  Uiso   1.00
H39    H     0.01033   0.28776   0.27671   0.00000  Uiso   1.00
H40    H     0.45107   0.29397   0.29034   0.00000  Uiso   1.00
H41    H     0.48773   0.34356   0.29427   0.00000  Uiso   1.00
H42    H     0.04803   0.20094   0.28785   0.00000  Uiso   1.00
H43    H     0.01109   0.15146   0.28855   0.00000  Uiso   1.00
H44    H     0.48886   0.20824   0.27414   0.00000  Uiso   1.00
H45    H     0.13660   0.39344   0.14623   0.00000  Uiso   1.00
H46    H     0.08108   0.38153   0.16643   0.00000  Uiso   1.00
H47    H     0.12829   0.35591   0.19939   0.00000  Uiso   1.00
H48    H     0.26825   0.37863   0.24317   0.00000  Uiso   1.00
H49    H     0.36367   0.10906   0.13714   0.00000  Uiso   1.00
H50    H     0.42064   0.11861   0.15317   0.00000  Uiso   1.00
H51    H     0.37651   0.14214   0.19250   0.00000  Uiso   1.00
H52    H     0.36208   0.39170   0.19978   0.00000  Uiso   1.00
H53    H     0.41894   0.38023   0.18479   0.00000  Uiso   1.00
H54    H     0.37452   0.35705   0.14547   0.00000  Uiso   1.00
H55    H     0.13611   0.10705   0.19071   0.00000  Uiso   1.00
H56    H     0.07910   0.11978   0.17775   0.00000  Uiso   1.00
H57    H     0.12284   0.14475   0.13887   0.00000  Uiso   1.00
H58    H     0.19888   0.03501   0.10971   0.00000  Uiso   1.00
H59    H     0.29900   0.12173   0.22330   0.00000  Uiso   1.00
H60    H     0.26748   0.46511   0.24520   0.00000  Uiso   1.00
H61    H     0.30113   0.03501   0.22359   0.00000  Uiso   1.00
H62    H     0.23247   0.46513   0.08814   0.00000  Uiso   1.00
H63    H     0.23170   0.37864   0.09018   0.00000  Uiso   1.00
H64    H     0.48582   0.29300   0.07605   0.00000  Uiso   1.00
H65    H     0.04377   0.30496   0.05996   0.00000  Uiso   1.00
H66    H     0.00386   0.35168   0.06267   0.00000  Uiso   1.00
H67    H     0.01395   0.21491   0.07283   0.00000  Uiso   1.00
H68    H     0.45606   0.20320   0.05609   0.00000  Uiso   1.00
N69    N     0.25000   0.12624   0.16667   0.00000  Uiso   1.00
N70    N     0.25000   0.37377   0.16667   0.00000  Uiso   1.00
O71    O     0.18453   0.28974   0.16667   0.00000  Uiso   1.00
O72    O     0.47806   0.17766   0.12605   0.00000  Uiso   1.00
O73    O     0.47406   0.32295   0.22230   0.00000  Uiso   1.00
O74    O     0.02517   0.17575   0.21803   0.00000  Uiso   1.00
O75    O     0.11389   0.32711   0.12873   0.00000  Uiso   1.00
O76    O     0.38628   0.17618   0.12339   0.00000  Uiso   1.00
O77    O     0.38278   0.32423   0.21541   0.00000  Uiso   1.00
O78    O     0.11634   0.17371   0.21089   0.00000  Uiso   1.00
O79    O     0.31547   0.21026   0.16666   0.00000  Uiso   1.00
O80    O     0.31547   0.28974   0.16666   0.00000  Uiso   1.00
O81    O     0.18453   0.21026   0.16667   0.00000  Uiso   1.00
O82    O     0.25000   0.28973   0.09511   0.00000  Uiso   1.00
O83    O     0.25000   0.21027   0.23822   0.00000  Uiso   1.00
O84    O     0.25000   0.28973   0.23822   0.00000  Uiso   1.00
O85    O     0.25000   0.21027   0.09511   0.00000  Uiso   1.00
O86    O     0.02237   0.32646   0.13158   0.00000  Uiso   1.00
Zn87   Zn    0.25000   0.30307   0.16667   0.00000  Uiso   1.00
Zn88   Zn    0.25000   0.19693   0.16667   0.00000  Uiso   1.00
C89    C     0.66378   0.25002   0.16707   0.00000  Uiso   1.00
C90    C     0.73981   0.44743   0.12308   0.00000  Uiso   1.00
C91    C     0.74999   0.25001   0.07285   0.00000  Uiso   1.00
C92    C     0.75002   0.25000   0.26048   0.00000  Uiso   1.00
C93    C     0.75000   0.02675   0.16666   0.00000  Uiso   1.00
C94    C     0.74998   0.47338   0.16666   0.00000  Uiso   1.00
C95    C     0.75000   0.25001   0.02179   0.00000  Uiso   1.00
C96    C     0.75001   0.25000   0.31154   0.00000  Uiso   1.00
C97    C     0.54583   0.28880   0.15147   0.00000  Uiso   1.00
C98    C     0.95427   0.21372   0.14851   0.00000  Uiso   1.00
C99    C     0.95228   0.28637   0.19817   0.00000  Uiso   1.00
C100   C     0.83617   0.25004   0.16704   0.00000  Uiso   1.00
C101   C     0.54726   0.21340   0.19628   0.00000  Uiso   1.00
C102   C     0.59202   0.28978   0.15141   0.00000  Uiso   1.00
C103   C     0.90808   0.21220   0.14845   0.00000  Uiso   1.00
C104   C     0.90635   0.28802   0.19292   0.00000  Uiso   1.00
C105   C     0.59315   0.21149   0.19086   0.00000  Uiso   1.00
C106   C     0.61566   0.25027   0.16947   0.00000  Uiso   1.00
C107   C     0.88420   0.25018   0.16927   0.00000  Uiso   1.00
C108   C     0.52384   0.25117   0.17494   0.00000  Uiso   1.00
C109   C     0.97598   0.25007   0.17455   0.00000  Uiso   1.00
C110   C     0.51395   0.31796   0.08043   0.00000  Uiso   1.00
C111   C     0.72263   0.10230   0.13496   0.00000  Uiso   1.00
C112   C     0.98612   0.18937   0.07556   0.00000  Uiso   1.00
C113   C     0.98075   0.31081   0.27294   0.00000  Uiso   1.00
C114   C     0.51833   0.18524   0.26925   0.00000  Uiso   1.00
C115   C     0.61462   0.36580   0.16205   0.00000  Uiso   1.00
C116   C     0.88720   0.13507   0.15328   0.00000  Uiso   1.00
C117   C     0.88508   0.36470   0.18464   0.00000  Uiso   1.00
C118   C     0.61307   0.13503   0.17775   0.00000  Uiso   1.00
C119   C     0.76015   0.39782   0.20939   0.00000  Uiso   1.00
C120   C     0.77740   0.10229   0.19834   0.00000  Uiso   1.00
C121   C     0.73981   0.39783   0.12396   0.00000  Uiso   1.00
C122   C     0.72187   0.05270   0.13457   0.00000  Uiso   1.00
C123   C     0.76015   0.44743   0.21026   0.00000  Uiso   1.00
C124   C     0.77814   0.05269   0.19873   0.00000  Uiso   1.00
H125   H     0.70102   0.12173   0.11001   0.00000  Uiso   1.00
H126   H     0.99651   0.15694   0.05553   0.00000  Uiso   1.00
H127   H     0.51033   0.28776   0.27671   0.00000  Uiso   1.00
H128   H     0.95107   0.29397   0.29034   0.00000  Uiso   1.00
H129   H     0.98773   0.34356   0.29427   0.00000  Uiso   1.00
H130   H     0.54803   0.20094   0.28785   0.00000  Uiso   1.00
H131   H     0.51109   0.15146   0.28855   0.00000  Uiso   1.00
H132   H     0.98886   0.20824   0.27414   0.00000  Uiso   1.00
H133   H     0.63660   0.39344   0.14623   0.00000  Uiso   1.00
H134   H     0.58108   0.38153   0.16643   0.00000  Uiso   1.00
H135   H     0.62829   0.35591   0.19939   0.00000  Uiso   1.00
H136   H     0.76825   0.37863   0.24317   0.00000  Uiso   1.00
H137   H     0.86367   0.10906   0.13714   0.00000  Uiso   1.00
H138   H     0.92064   0.11861   0.15317   0.00000  Uiso   1.00
H139   H     0.87651   0.14214   0.19250   0.00000  Uiso   1.00
H140   H     0.86208   0.39170   0.19978   0.00000  Uiso   1.00
H141   H     0.91894   0.38023   0.18479   0.00000  Uiso   1.00
H142   H     0.87452   0.35705   0.14547   0.00000  Uiso   1.00
H143   H     0.63611   0.10705   0.19071   0.00000  Uiso   1.00
H144   H     0.57910   0.11978   0.17775   0.00000  Uiso   1.00
H145   H     0.62284   0.14475   0.13887   0.00000  Uiso   1.00
H146   H     0.69888   0.03501   0.10971   0.00000  Uiso   1.00
H147   H     0.79900   0.12173   0.22330   0.00000  Uiso   1.00
H148   H     0.76748   0.46511   0.24520   0.00000  Uiso   1.00
H149   H     0.80113   0.03501   0.22359   0.00000  Uiso   1.00
H150   H     0.73247   0.46513   0.08814   0.00000  Uiso   1.00
H151   H     0.73170   0.37864   0.09018   0.00000  Uiso   1.00
H152   H     0.98582   0.29300   0.07605   0.00000  Uiso   1.00
H153   H     0.54377   0.30496   0.05996   0.00000  Uiso   1.00
H154   H     0.50386   0.35168   0.06267   0.00000  Uiso   1.00
H155   H     0.51395   0.21491   0.07283   0.00000  Uiso   1.00
H156   H     0.95606   0.20320   0.05609   0.00000  Uiso   1.00
N157   N     0.75000   0.12624   0.16667   0.00000  Uiso   1.00
N158   N     0.75000   0.37377   0.16667   0.00000  Uiso   1.00
O159   O     0.68453   0.28974   0.16667   0.00000  Uiso   1.00
O160   O     0.97806   0.17766   0.12605   0.00000  Uiso   1.00
O161   O     0.97406   0.32295   0.22230   0.00000  Uiso   1.00
O162   O     0.52517   0.17575   0.21803   0.00000  Uiso   1.00
O163   O     0.61389   0.32711   0.12873   0.00000  Uiso   1.00
O164   O     0.88628   0.17618   0.12339   0.00000  Uiso   1.00
O165   O     0.88278   0.32423   0.21541   0.00000  Uiso   1.00
O166   O     0.61634   0.17371   0.21089   0.00000  Uiso   1.00
O167   O     0.81547   0.21026   0.16666   0.00000  Uiso   1.00
O168   O     0.81547   0.28974   0.16666   0.00000  Uiso   1.00
O169   O     0.68453   0.21026   0.16667   0.00000  Uiso   1.00
O170   O     0.75000   0.28973   0.09511   0.00000  Uiso   1.00
O171   O     0.75000   0.21027   0.23822   0.00000  Uiso   1.00
O172   O     0.75000   0.28973   0.23822   0.00000  Uiso   1.00
O173   O     0.75000   0.21027   0.09511   0.00000  Uiso   1.00
O174   O     0.52237   0.32646   0.13158   0.00000  Uiso   1.00
Zn175  Zn    0.75000   0.30307   0.16667   0.00000  Uiso   1.00
Zn176  Zn    0.75000   0.19693   0.16667   0.00000  Uiso   1.00
C177   C     0.16378   0.75002   0.16707   0.00000  Uiso   1.00
C178   C     0.23981   0.94743   0.12308   0.00000  Uiso   1.00
C179   C     0.24999   0.75001   0.07285   0.00000  Uiso   1.00
C180   C     0.25002   0.75000   0.26048   0.00000  Uiso   1.00
C181   C     0.25000   0.52675   0.16666   0.00000  Uiso   1.00
C182   C     0.24998   0.97338   0.16666   0.00000  Uiso   1.00
C183   C     0.25000   0.75001   0.02179   0.00000  Uiso   1.00
C184   C     0.25001   0.75000   0.31154   0.00000  Uiso   1.00
C185   C     0.04583   0.78880   0.15147   0.00000  Uiso   1.00
C186   C     0.45427   0.71372   0.14851   0.00000  Uiso   1.00
C187   C     0.45228   0.78637   0.19817   0.00000  Uiso   1.00
C188   C     0.33617   0.75004   0.16704   0.00000  Uiso   1.00
C189   C     0.04726   0.71340   0.19628   0.00000  Uiso   1.00
C190   C     0.09202   0.78978   0.15141   0.00000  Uiso   1.00
C191   C     0.40808   0.71220   0.14845   0.00000  Uiso   1.00
C192   C     0.40635   0.78802   0.19292   0.00000  Uiso   1.00
C193   C     0.09315   0.71149   0.19086   0.00000  Uiso   1.00
C194   C     0.11566   0.75027   0.16947   0.00000  Uiso   1.00
C195   C     0.38420   0.75018   0.16927   0.00000  Uiso   1.00
C196   C     0.02384   0.75117   0.17494   0.00000  Uiso   1.00
C197   C     0.47598   0.75007   0.17455   0.00000  Uiso   1.00
C198   C     0.01395   0.81796   0.08043   0.00000  Uiso   1.00
C199   C     0.22263   0.60230   0.13496   0.00000  Uiso   1.00
C200   C     0.48612   0.68937   0.07556   0.00000  Uiso   1.00
C201   C     0.48075   0.81081   0.27294   0.00000  Uiso   1.00
C202   C     0.01833   0.68524   0.26925   0.00000  Uiso   1.00
C203   C     0.11462   0.86580   0.16205   0.00000  Uiso   1.00
C204   C     0.38720   0.63507   0.15328   0.00000  Uiso   1.00
C205   C     0.38508   0.86470   0.18464   0.00000  Uiso   1.00
C206   C     0.11307   0.63503   0.17775   0.00000  Uiso   1.00
C207   C     0.26015   0.89782   0.20939   0.00000  Uiso   1.00
C208   C     0.27740   0.60229   0.19834   0.00000  Uiso   1.00
C209   C     0.23981   0.89783   0.12396   0.00000  Uiso   1.00
C210   C     0.22187   0.55270   0.13457   0.00000  Uiso   1.00
C211   C     0.26015   0.94743   0.21026   0.00000  Uiso   1.00
C212   C     0.27814   0.55269   0.19873   0.00000  Uiso   1.00
H213   H     0.20102   0.62173   0.11001   0.00000  Uiso   1.00
H214   H     0.49651   0.65694   0.05553   0.00000  Uiso   1.00
H215   H     0.01033   0.78776   0.27671   0.00000  Uiso   1.00
H216   H     0.45107   0.79397   0.29034   0.00000  Uiso   1.00
H217   H     0.48773   0.84356   0.29427   0.00000  Uiso   1.00
H218   H     0.04803   0.70094   0.28785   0.00000  Uiso   1.00
H219   H     0.01109   0.65146   0.28855   0.00000  Uiso   1.00
H220   H     0.48886   0.70824   0.27414   0.00000  Uiso   1.00
H221   H     0.13660   0.89344   0.14623   0.00000  Uiso   1.00
H222   H     0.08108   0.88153   0.16643   0.00000  Uiso   1.00
H223   H     0.12829   0.85591   0.19939   0.00000  Uiso   1.00
H224   H     0.26825   0.87863   0.24317   0.00000  Uiso   1.00
H225   H     0.36367   0.60906   0.13714   0.00000  Uiso   1.00
H226   H     0.42064   0.61861   0.15317   0.00000  Uiso   1.00
H227   H     0.37651   0.64214   0.19250   0.00000  Uiso   1.00
H228   H     0.36208   0.89170   0.19978   0.00000  Uiso   1.00
H229   H     0.41894   0.88023   0.18479   0.00000  Uiso   1.00
H230   H     0.37452   0.85705   0.14547   0.00000  Uiso   1.00
H231   H     0.13611   0.60705   0.19071   0.00000  Uiso   1.00
H232   H     0.07910   0.61978   0.17775   0.00000  Uiso   1.00
H233   H     0.12284   0.64475   0.13887   0.00000  Uiso   1.00
H234   H     0.19888   0.53501   0.10971   0.00000  Uiso   1.00
H235   H     0.29900   0.62173   0.22330   0.00000  Uiso   1.00
H236   H     0.26748   0.96511   0.24520   0.00000  Uiso   1.00
H237   H     0.30113   0.53501   0.22359   0.00000  Uiso   1.00
H238   H     0.23247   0.96513   0.08814   0.00000  Uiso   1.00
H239   H     0.23170   0.87864   0.09018   0.00000  Uiso   1.00
H240   H     0.48582   0.79300   0.07605   0.00000  Uiso   1.00
H241   H     0.04377   0.80496   0.05996   0.00000  Uiso   1.00
H242   H     0.00386   0.85168   0.06267   0.00000  Uiso   1.00
H243   H     0.01395   0.71491   0.07283   0.00000  Uiso   1.00
H244   H     0.45606   0.70320   0.05609   0.00000  Uiso   1.00
N245   N     0.25000   0.62624   0.16667   0.00000  Uiso   1.00
N246   N     0.25000   0.87377   0.16667   0.00000  Uiso   1.00
O247   O     0.18453   0.78974   0.16667   0.00000  Uiso   1.00
O248   O     0.47806   0.67766   0.12605   0.00000  Uiso   1.00
O249   O     0.47406   0.82295   0.22230   0.00000  Uiso   1.00
O250   O     0.02517   0.67575   0.21803   0.00000  Uiso   1.00
O251   O     0.11389   0.82711   0.12873   0.00000  Uiso   1.00
O252   O     0.38628   0.67618   0.12339   0.00000  Uiso   1.00
O253   O     0.38278   0.82423   0.21541   0.00000  Uiso   1.00
O254   O     0.11634   0.67371   0.21089   0.00000  Uiso   1.00
O255   O     0.31547   0.71026   0.16666   0.00000  Uiso   1.00
O256   O     0.31547   0.78974   0.16666   0.00000  Uiso   1.00
O257   O     0.18453   0.71026   0.16667   0.00000  Uiso   1.00
O258   O     0.25000   0.78973   0.09511   0.00000  Uiso   1.00
O259   O     0.25000   0.71027   0.23822   0.00000  Uiso   1.00
O260   O     0.25000   0.78973   0.23822   0.00000  Uiso   1.00
O261   O     0.25000   0.71027   0.09511   0.00000  Uiso   1.00
O262   O     0.02237   0.82646   0.13158   0.00000  Uiso   1.00
Zn263  Zn    0.25000   0.80307   0.16667   0.00000  Uiso   1.00
Zn264  Zn    0.25000   0.69693   0.16667   0.00000  Uiso   1.00
C265   C     0.66378   0.75002   0.16707   0.00000  Uiso   1.00
C266   C     0.73981   0.94743   0.12308   0.00000  Uiso   1.00
C267   C     0.74999   0.75001   0.07285   0.00000  Uiso   1.00
C268   C     0.75002   0.75000   0.26048   0.00000  Uiso   1.00
C269   C     0.75000   0.52675   0.16666   0.00000  Uiso   1.00
C270   C     0.74998   0.97338   0.16666   0.00000  Uiso   1.00
C271   C     0.75000   0.75001   0.02179   0.00000  Uiso   1.00
C272   C     0.75001   0.75000   0.31154   0.00000  Uiso   1.00
C273   C     0.54583   0.78880   0.15147   0.00000  Uiso   1.00
C274   C     0.95427   0.71372   0.14851   0.00000  Uiso   1.00
C275   C     0.95228   0.78637   0.19817   0.00000  Uiso   1.00
C276   C     0.83617   0.75004   0.16704   0.00000  Uiso   1.00
C277   C     0.54726   0.71340   0.19628   0.00000  Uiso   1.00
C278   C     0.59202   0.78978   0.15141   0.00000  Uiso   1.00
C279   C     0.90808   0.71220   0.14845   0.00000  Uiso   1.00
C280   C     0.90635   0.78802   0.19292   0.00000  Uiso   1.00
C281   C     0.59315   0.71149   0.19086   0.00000  Uiso   1.00
C282   C     0.61566   0.75027   0.16947   0.00000  Uiso   1.00
C283   C     0.88420   0.75018   0.16927   0.00000  Uiso   1.00
C284   C     0.52384   0.75117   0.17494   0.00000  Uiso   1.00
C285   C     0.97598   0.75007   0.17455   0.00000  Uiso   1.00
C286   C     0.51395   0.81796   0.08043   0.00000  Uiso   1.00
C287   C     0.72263   0.60230   0.13496   0.00000  Uiso   1.00
C288   C     0.98612   0.68937   0.07556   0.00000  Uiso   1.00
C289   C     0.98075   0.81081   0.27294   0.00000  Uiso   1.00
C290   C     0.51833   0.68524   0.26925   0.00000  Uiso   1.00
C291   C     0.61462   0.86580   0.16205   0.00000  Uiso   1.00
C292   C     0.88720   0.63507   0.15328   0.00000  Uiso   1.00
C293   C     0.88508   0.86470   0.18464   0.00000  Uiso   1.00
C294   C     0.61307   0.63503   0.17775   0.00000  Uiso   1.00
C295   C     0.76015   0.89782   0.20939   0.00000  Uiso   1.00
C296   C     0.77740   0.60229   0.19834   0.00000  Uiso   1.00
C297   C     0.73981   0.89783   0.12396   0.00000  Uiso   1.00
C298   C     0.72187   0.55270   0.13457   0.00000  Uiso   1.00
C299   C     0.76015   0.94743   0.21026   0.00000  Uiso   1.00
C300   C     0.77814   0.55269   0.19873   0.00000  Uiso   1.00
H301   H     0.70102   0.62173   0.11001   0.00000  Uiso   1.00
H302   H     0.99651   0.65694   0.05553   0.00000  Uiso   1.00
H303   H     0.51033   0.78776   0.27671   0.00000  Uiso   1.00
H304   H     0.95107   0.79397   0.29034   0.00000  Uiso   1.00
H305   H     0.98773   0.84356   0.29427   0.00000  Uiso   1.00
H306   H     0.54803   0.70094   0.28785   0.00000  Uiso   1.00
H307   H     0.51109   0.65146   0.28855   0.00000  Uiso   1.00
H308   H     0.98886   0.70824   0.27414   0.00000  Uiso   1.00
H309   H     0.63660   0.89344   0.14623   0.00000  Uiso   1.00
H310   H     0.58108   0.88153   0.16643   0.00000  Uiso   1.00
H311   H     0.62829   0.85591   0.19939   0.00000  Uiso   1.00
H312   H     0.76825   0.87863   0.24317   0.00000  Uiso   1.00
H313   H     0.86367   0.60906   0.13714   0.00000  Uiso   1.00
H314   H     0.92064   0.61861   0.15317   0.00000  Uiso   1.00
H315   H     0.87651   0.64214   0.19250   0.00000  Uiso   1.00
H316   H     0.86208   0.89170   0.19978   0.00000  Uiso   1.00
H317   H     0.91894   0.88023   0.18479   0.00000  Uiso   1.00
H318   H     0.87452   0.85705   0.14547   0.00000  Uiso   1.00
H319   H     0.63611   0.60705   0.19071   0.00000  Uiso   1.00
H320   H     0.57910   0.61978   0.17775   0.00000  Uiso   1.00
H321   H     0.62284   0.64475   0.13887   0.00000  Uiso   1.00
H322   H     0.69888   0.53501   0.10971   0.00000  Uiso   1.00
H323   H     0.79900   0.62173   0.22330   0.00000  Uiso   1.00
H324   H     0.76748   0.96511   0.24520   0.00000  Uiso   1.00
H325   H     0.80113   0.53501   0.22359   0.00000  Uiso   1.00
H326   H     0.73247   0.96513   0.08814   0.00000  Uiso   1.00
H327   H     0.73170   0.87864   0.09018   0.00000  Uiso   1.00
H328   H     0.98582   0.79300   0.07605   0.00000  Uiso   1.00
H329   H     0.54377   0.80496   0.05996   0.00000  Uiso   1.00
H330   H     0.50386   0.85168   0.06267   0.00000  Uiso   1.00
H331   H     0.51395   0.71491   0.07283   0.00000  Uiso   1.00
H332   H     0.95606   0.70320   0.05609   0.00000  Uiso   1.00
N333   N     0.75000   0.62624   0.16667   0.00000  Uiso   1.00
N334   N     0.75000   0.87377   0.16667   0.00000  Uiso   1.00
O335   O     0.68453   0.78974   0.16667   0.00000  Uiso   1.00
O336   O     0.97806   0.67766   0.12605   0.00000  Uiso   1.00
O337   O     0.97406   0.82295   0.22230   0.00000  Uiso   1.00
O338   O     0.52517   0.67575   0.21803   0.00000  Uiso   1.00
O339   O     0.61389   0.82711   0.12873   0.00000  Uiso   1.00
O340   O     0.88628   0.67618   0.12339   0.00000  Uiso   1.00
O341   O     0.88278   0.82423   0.21541   0.00000  Uiso   1.00
O342   O     0.61634   0.67371   0.21089   0.00000  Uiso   1.00
O343   O     0.81547   0.71026   0.16666   0.00000  Uiso   1.00
O344   O     0.81547   0.78974   0.16666   0.00000  Uiso   1.00
O345   O     0.68453   0.71026   0.16667   0.00000  Uiso   1.00
O346   O     0.75000   0.78973   0.09511   0.00000  Uiso   1.00
O347   O     0.75000   0.71027   0.23822   0.00000  Uiso   1.00
O348   O     0.75000   0.78973   0.23822   0.00000  Uiso   1.00
O349   O     0.75000   0.71027   0.09511   0.00000  Uiso   1.00
O350   O     0.52237   0.82646   0.13158   0.00000  Uiso   1.00
Zn351  Zn    0.75000   0.80307   0.16667   0.00000  Uiso   1.00
Zn352  Zn    0.75000   0.69693   0.16667   0.00000  Uiso   1.00
C353   C     0.16378   0.25002   0.50040   0.00000  Uiso   1.00
C354   C     0.23981   0.44743   0.45641   0.00000  Uiso   1.00
C355   C     0.24999   0.25001   0.40619   0.00000  Uiso   1.00
C356   C     0.25002   0.25000   0.59381   0.00000  Uiso   1.00
C357   C     0.25000   0.02675   0.49999   0.00000  Uiso   1.00
C358   C     0.24998   0.47338   0.50000   0.00000  Uiso   1.00
C359   C     0.25000   0.25001   0.35513   0.00000  Uiso   1.00
C360   C     0.25001   0.25000   0.64487   0.00000  Uiso   1.00
C361   C     0.04583   0.28880   0.48480   0.00000  Uiso   1.00
C362   C     0.45427   0.21372   0.48184   0.00000  Uiso   1.00
C363   C     0.45228   0.28637   0.53150   0.00000  Uiso   1.00
C364   C     0.33617   0.25004   0.50038   0.00000  Uiso   1.00
C365   C     0.04726   0.21340   0.52961   0.00000  Uiso   1.00
C366   C     0.09202   0.28978   0.48474   0.00000  Uiso   1.00
C367   C     0.40808   0.21220   0.48179   0.00000  Uiso   1.00
C368   C     0.40635   0.28802   0.52626   0.00000  Uiso   1.00
C369   C     0.09315   0.21149   0.52419   0.00000  Uiso   1.00
C370   C     0.11566   0.25027   0.50280   0.00000  Uiso   1.00
C371   C     0.38420   0.25018   0.50260   0.00000  Uiso   1.00
C372   C     0.02384   0.25117   0.50827   0.00000  Uiso   1.00
C373   C     0.47598   0.25007   0.50789   0.00000  Uiso   1.00
C374   C     0.01395   0.31796   0.41376   0.00000  Uiso   1.00
C375   C     0.22263   0.10230   0.46829   0.00000  Uiso   1.00
C376   C     0.48612   0.18937   0.40889   0.00000  Uiso   1.00
C377   C     0.48075   0.31081   0.60627   0.00000  Uiso   1.00
C378   C     0.01833   0.18524   0.60258   0.00000  Uiso   1.00
C379   C     0.11462   0.36580   0.49538   0.00000  Uiso   1.00
C380   C     0.38720   0.13507   0.48661   0.00000  Uiso   1.00
C381   C     0.38508   0.36470   0.51797   0.00000  Uiso   1.00
C382   C     0.11307   0.13503   0.51108   0.00000  Uiso   1.00
C383   C     0.26015   0.39782   0.54272   0.00000  Uiso   1.00
C384   C     0.27740   0.10229   0.53168   0.00000  Uiso   1.00
C385   C     0.23981   0.39783   0.45729   0.00000  Uiso   1.00
C386   C     0.22187   0.05270   0.46791   0.00000  Uiso   1.00
C387   C     0.26015   0.44743   0.54359   0.00000  Uiso   1.00
C388   C     0.27814   0.05269   0.53206   0.00000  Uiso   1.00
H389   H     0.20102   0.12173   0.44334   0.00000  Uiso   1.00
H390   H     0.49651   0.15694   0.38886   0.00000  Uiso   1.00
H391   H     0.01033   0.28776   0.61005   0.00000  Uiso   1.00
H392   H     0.45107   0.29397   0.62367   0.00000  Uiso   1.00
H393   H     0.48773   0.34356   0.62761   0.00000  Uiso   1.00
H394   H     0.04803   0.20094   0.62118   0.00000  Uiso   1.00
H395   H     0.01109   0.15146   0.62189   0.00000  Uiso   1.00
H396   H     0.48886   0.20824   0.60748   0.00000  Uiso   1.00
H397   H     0.13660   0.39344   0.47956   0.00000  Uiso   1.00
H398   H     0.08108   0.38153   0.49976   0.00000  Uiso   1.00
H399   H     0.12829   0.35591   0.53273   0.00000  Uiso   1.00
H400   H     0.26825   0.37863   0.57650   0.00000  Uiso   1.00
H401   H     0.36367   0.10906   0.47048   0.00000  Uiso   1.00
H402   H     0.42064   0.11861   0.48650   0.00000  Uiso   1.00
H403   H     0.37651   0.14214   0.52583   0.00000  Uiso   1.00
H404   H     0.36208   0.39170   0.53312   0.00000  Uiso   1.00
H405   H     0.41894   0.38023   0.51812   0.00000  Uiso   1.00
H406   H     0.37452   0.35705   0.47880   0.00000  Uiso   1.00
H407   H     0.13611   0.10705   0.52404   0.00000  Uiso   1.00
H408   H     0.07910   0.11978   0.51108   0.00000  Uiso   1.00
H409   H     0.12284   0.14475   0.47220   0.00000  Uiso   1.00
H410   H     0.19888   0.03501   0.44304   0.00000  Uiso   1.00
H411   H     0.29900   0.12173   0.55663   0.00000  Uiso   1.00
H412   H     0.26748   0.46511   0.57853   0.00000  Uiso   1.00
H413   H     0.30113   0.03501   0.55692   0.00000  Uiso   1.00
H414   H     0.23247   0.46513   0.42147   0.00000  Uiso   1.00
H415   H     0.23170   0.37864   0.42351   0.00000  Uiso   1.00
H416   H     0.48582   0.29300   0.40938   0.00000  Uiso   1.00
H417   H     0.04377   0.30496   0.39330   0.00000  Uiso   1.00
H418   H     0.00386   0.35168   0.39601   0.00000  Uiso   1.00
H419   H     0.01395   0.21491   0.40616   0.00000  Uiso   1.00
H420   H     0.45606   0.20320   0.38942   0.00000  Uiso   1.00
N421   N     0.25000   0.12624   0.50000   0.00000  Uiso   1.00
N422   N     0.25000   0.37377   0.50000   0.00000  Uiso   1.00
O423   O     0.18453   0.28974   0.50000   0.00000  Uiso   1.00
O424   O     0.47806   0.17766   0.45938   0.00000  Uiso   1.00
O425   O     0.47406   0.32295   0.55563   0.00000  Uiso   1.00
O426   O     0.02517   0.17575   0.55137   0.00000  Uiso   1.00
O427   O     0.11389   0.32711   0.46206   0.00000  Uiso   1.00
O428   O     0.38628   0.17618   0.45672   0.00000  Uiso   1.00
O429   O     0.38278   0.32423   0.54874   0.00000  Uiso   1.00
O430   O     0.11634   0.17371   0.54422   0.00000  Uiso   1.00
O431   O     0.31547   0.21026   0.50000   0.00000  Uiso   1.00
O432   O     0.31547   0.28974   0.50000   0.00000  Uiso   1.00
O433   O     0.18453   0.21026   0.50000   0.00000  Uiso   1.00
O434   O     0.25000   0.28973   0.42845   0.00000  Uiso   1.00
O435   O     0.25000   0.21027   0.57155   0.00000  Uiso   1.00
O436   O     0.25000   0.28973   0.57155   0.00000  Uiso   1.00
O437   O     0.25000   0.21027   0.42845   0.00000  Uiso   1.00
O438   O     0.02237   0.32646   0.46492   0.00000  Uiso   1.00
Zn439  Zn    0.25000   0.30307   0.50000   0.00000  Uiso   1.00
Zn440  Zn    0.25000   0.19693   0.50000   0.00000  Uiso   1.00
C441   C     0.66378   0.25002   0.50040   0.00000  Uiso   1.00
C442   C     0.73981   0.44743   0.45641   0.00000  Uiso   1.00
C443   C     0.74999   0.25001   0.40619   0.00000  Uiso   1.00
C444   C     0.75002   0.25000   0.59381   0.00000  Uiso   1.00
C445   C     0.75000   0.02675   0.49999   0.00000  Uiso   1.00
C446   C     0.74998   0.47338   0.50000   0.00000  Uiso   1.00
C447   C     0.75000   0.25001   0.35513   0.00000  Uiso   1.00
C448   C     0.75001   0.25000   0.64487   0.00000  Uiso   1.00
C449   C     0.54583   0.28880   0.48480   0.00000  Uiso   1.00
C450   C     0.95427   0.21372   0.48184   0.00000  Uiso   1.00
C451   C     0.95228   0.28637   0.53150   0.00000  Uiso   1.00
C452   C     0.83617   0.25004   0.50038   0.00000  Uiso   1.00
C453   C     0.54726   0.21340   0.52961   0.00000  Uiso   1.00
C454   C     0.59202   0.28978   0.48474   0.00000  Uiso   1.00
C455   C     0.90808   0.21220   0.48179   0.00000  Uiso   1.00
C456   C     0.90635   0.28802   0.52626   0.00000  Uiso   1.00
C457   C     0.59315   0.21149   0.52419   0.00000  Uiso   1.00
C458   C     0.61566   0.25027   0.50280   0.00000  Uiso   1.00
C459   C     0.88420   0.25018   0.50260   0.00000  Uiso   1.00
C460   C     0.52384   0.25117   0.50827   0.00000  Uiso   1.00
C461   C     0.97598   0.25007   0.50789   0.00000  Uiso   1.00
C462   C     0.51395   0.31796   0.41376   0.00000  Uiso   1.00
C463   C     0.72263   0.10230   0.46829   0.00000  Uiso   1.00
C464   C     0.98612   0.18937   0.40889   0.00000  Uiso   1.00
C465   C     0.98075   0.31081   0.60627   0.00000  Uiso   1.00
C466   C     0.51833   0.18524   0.60258   0.00000  Uiso   1.00
C467   C     0.61462   0.36580   0.49538   0.00000  Uiso   1.00
C468   C     0.88720   0.13507   0.48661   0.00000  Uiso   1.00
C469   C     0.88508   0.36470   0.51797   0.00000  Uiso   1.00
C470   C     0.61307   0.13503   0.51108   0.00000  Uiso   1.00
C471   C     0.76015   0.39782   0.54272   0.00000  Uiso   1.00
C472   C     0.77740   0.10229   0.53168   0.00000  Uiso   1.00
C473   C     0.73981   0.39783   0.45729   0.00000  Uiso   1.00
C474   C     0.72187   0.05270   0.46791   0.00000  Uiso   1.00
C475   C     0.76015   0.44743   0.54359   0.00000  Uiso   1.00
C476   C     0.77814   0.05269   0.53206   0.00000  Uiso   1.00
H477   H     0.70102   0.12173   0.44334   0.00000  Uiso   1.00
H478   H     0.99651   0.15694   0.38886   0.00000  Uiso   1.00
H479   H     0.51033   0.28776   0.61005   0.00000  Uiso   1.00
H480   H     0.95107   0.29397   0.62367   0.00000  Uiso   1.00
H481   H     0.98773   0.34356   0.62761   0.00000  Uiso   1.00
H482   H     0.54803   0.20094   0.62118   0.00000  Uiso   1.00
H483   H     0.51109   0.15146   0.62189   0.00000  Uiso   1.00
H484   H     0.98886   0.20824   0.60748   0.00000  Uiso   1.00
H485   H     0.63660   0.39344   0.47956   0.00000  Uiso   1.00
H486   H     0.58108   0.38153   0.49976   0.00000  Uiso   1.00
H487   H     0.62829   0.35591   0.53273   0.00000  Uiso   1.00
H488   H     0.76825   0.37863   0.57650   0.00000  Uiso   1.00
H489   H     0.86367   0.10906   0.47048   0.00000  Uiso   1.00
H490   H     0.92064   0.11861   0.48650   0.00000  Uiso   1.00
H491   H     0.87651   0.14214   0.52583   0.00000  Uiso   1.00
H492   H     0.86208   0.39170   0.53312   0.00000  Uiso   1.00
H493   H     0.91894   0.38023   0.51812   0.00000  Uiso   1.00
H494   H     0.87452   0.35705   0.47880   0.00000  Uiso   1.00
H495   H     0.63611   0.10705   0.52404   0.00000  Uiso   1.00
H496   H     0.57910   0.11978   0.51108   0.00000  Uiso   1.00
H497   H     0.62284   0.14475   0.47220   0.00000  Uiso   1.00
H498   H     0.69888   0.03501   0.44304   0.00000  Uiso   1.00
H499   H     0.79900   0.12173   0.55663   0.00000  Uiso   1.00
H500   H     0.76748   0.46511   0.57853   0.00000  Uiso   1.00
H501   H     0.80113   0.03501   0.55692   0.00000  Uiso   1.00
H502   H     0.73247   0.46513   0.42147   0.00000  Uiso   1.00
H503   H     0.73170   0.37864   0.42351   0.00000  Uiso   1.00
H504   H     0.98582   0.29300   0.40938   0.00000  Uiso   1.00
H505   H     0.54377   0.30496   0.39330   0.00000  Uiso   1.00
H506   H     0.50386   0.35168   0.39601   0.00000  Uiso   1.00
H507   H     0.51395   0.21491   0.40616   0.00000  Uiso   1.00
H508   H     0.95606   0.20320   0.38942   0.00000  Uiso   1.00
N509   N     0.75000   0.12624   0.50000   0.00000  Uiso   1.00
N510   N     0.75000   0.37377   0.50000   0.00000  Uiso   1.00
O511   O     0.68453   0.28974   0.50000   0.00000  Uiso   1.00
O512   O     0.97806   0.17766   0.45938   0.00000  Uiso   1.00
O513   O     0.97406   0.32295   0.55563   0.00000  Uiso   1.00
O514   O     0.52517   0.17575   0.55137   0.00000  Uiso   1.00
O515   O     0.61389   0.32711   0.46206   0.00000  Uiso   1.00
O516   O     0.88628   0.17618   0.45672   0.00000  Uiso   1.00
O517   O     0.88278   0.32423   0.54874   0.00000  Uiso   1.00
O518   O     0.61634   0.17371   0.54422   0.00000  Uiso   1.00
O519   O     0.81547   0.21026   0.50000   0.00000  Uiso   1.00
O520   O     0.81547   0.28974   0.50000   0.00000  Uiso   1.00
O521   O     0.68453   0.21026   0.50000   0.00000  Uiso   1.00
O522   O     0.75000   0.28973   0.42845   0.00000  Uiso   1.00
O523   O     0.75000   0.21027   0.57155   0.00000  Uiso   1.00
O524   O     0.75000   0.28973   0.57155   0.00000  Uiso   1.00
O525   O     0.75000   0.21027   0.42845   0.00000  Uiso   1.00
O526   O     0.52237   0.32646   0.46492   0.00000  Uiso   1.00
Zn527  Zn    0.75000   0.30307   0.50000   0.00000  Uiso   1.00
Zn528  Zn    0.75000   0.19693   0.50000   0.00000  Uiso   1.00
C529   C     0.16378   0.75002   0.50040   0.00000  Uiso   1.00
C530   C     0.23981   0.94743   0.45641   0.00000  Uiso   1.00
C531   C     0.24999   0.75001   0.40619   0.00000  Uiso   1.00
C532   C     0.25002   0.75000   0.59381   0.00000  Uiso   1.00
C533   C     0.25000   0.52675   0.49999   0.00000  Uiso   1.00
C534   C     0.24998   0.97338   0.50000   0.00000  Uiso   1.00
C535   C     0.25000   0.75001   0.35513   0.00000  Uiso   1.00
C536   C     0.25001   0.75000   0.64487   0.00000  Uiso   1.00
C537   C     0.04583   0.78880   0.48480   0.00000  Uiso   1.00
C538   C     0.45427   0.71372   0.48184   0.00000  Uiso   1.00
C539   C     0.45228   0.78637   0.53150   0.00000  Uiso   1.00
C540   C     0.33617   0.75004   0.50038   0.00000  Uiso   1.00
C541   C     0.04726   0.71340   0.52961   0.00000  Uiso   1.00
C542   C     0.09202   0.78978   0.48474   0.00000  Uiso   1.00
C543   C     0.40808   0.71220   0.48179   0.00000  Uiso   1.00
C544   C     0.40635   0.78802   0.52626   0.00000  Uiso   1.00
C545   C     0.09315   0.71149   0.52419   0.00000  Uiso   1.00
C546   C     0.11566   0.75027   0.50280   0.00000  Uiso   1.00
C547   C     0.38420   0.75018   0.50260   0.00000  Uiso   1.00
C548   C     0.02384   0.75117   0.50827   0.00000  Uiso   1.00
C549   C     0.47598   0.75007   0.50789   0.00000  Uiso   1.00
C550   C     0.01395   0.81796   0.41376   0.00000  Uiso   1.00
C551   C     0.22263   0.60230   0.46829   0.00000  Uiso   1.00
C552   C     0.48612   0.68937   0.40889   0.00000  Uiso   1.00
C553   C     0.48075   0.81081   0.60627   0.00000  Uiso   1.00
C554   C     0.01833   0.68524   0.60258   0.00000  Uiso   1.00
C555   C     0.11462   0.86580   0.49538   0.00000  Uiso   1.00
C556   C     0.38720   0.63507   0.48661   0.00000  Uiso   1.00
C557   C     0.38508   0.86470   0.51797   0.00000  Uiso   1.00
C558   C     0.11307   0.63503   0.51108   0.00000  Uiso   1.00
C559   C     0.26015   0.89782   0.54272   0.00000  Uiso   1.00
C560   C     0.27740   0.60229   0.53168   0.00000  Uiso   1.00
C561   C     0.23981   0.89783   0.45729   0.00000  Uiso   1.00
C562   C     0.22187   0.55270   0.46791   0.00000  Uiso   1.00
C563   C     0.26015   0.94743   0.54359   0.00000  Uiso   1.00
C564   C     0.27814   0.55269   0.53206   0.00000  Uiso   1.00
H565   H     0.20102   0.62173   0.44334   0.00000  Uiso   1.00
H566   H     0.49651   0.65694   0.38886   0.00000  Uiso   1.00
H567   H     0.01033   0.78776   0.61005   0.00000  Uiso   1.00
H568   H     0.45107   0.79397   0.62367   0.00000  Uiso   1.00
H569   H     0.48773   0.84356   0.62761   0.00000  Uiso   1.00
H570   H     0.04803   0.70094   0.62118   0.00000  Uiso   1.00
H571   H     0.01109   0.65146   0.62189   0.00000  Uiso   1.00
H572   H     0.48886   0.70824   0.60748   0.00000  Uiso   1.00
H573   H     0.13660   0.89344   0.47956   0.00000  Uiso   1.00
H574   H     0.08108   0.88153   0.49976   0.00000  Uiso   1.00
H575   H     0.12829   0.85591   0.53273   0.00000  Uiso   1.00
H576   H     0.26825   0.87863   0.57650   0.00000  Uiso   1.00
H577   H     0.36367   0.60906   0.47048   0.00000  Uiso   1.00
H578   H     0.42064   0.61861   0.48650   0.00000  Uiso   1.00
H579   H     0.37651   0.64214   0.52583   0.00000  Uiso   1.00
H580   H     0.36208   0.89170   0.53312   0.00000  Uiso   1.00
H581   H     0.41894   0.88023   0.51812   0.00000  Uiso   1.00
H582   H     0.37452   0.85705   0.47880   0.00000  Uiso   1.00
H583   H     0.13611   0.60705   0.52404   0.00000  Uiso   1.00
H584   H     0.07910   0.61978   0.51108   0.00000  Uiso   1.00
H585   H     0.12284   0.64475   0.47220   0.00000  Uiso   1.00
H586   H     0.19888   0.53501   0.44304   0.00000  Uiso   1.00
H587   H     0.29900   0.62173   0.55663   0.00000  Uiso   1.00
H588   H     0.26748   0.96511   0.57853   0.00000  Uiso   1.00
H589   H     0.30113   0.53501   0.55692   0.00000  Uiso   1.00
H590   H     0.23247   0.96513   0.42147   0.00000  Uiso   1.00
H591   H     0.23170   0.87864   0.42351   0.00000  Uiso   1.00
H592   H     0.48582   0.79300   0.40938   0.00000  Uiso   1.00
H593   H     0.04377   0.80496   0.39330   0.00000  Uiso   1.00
H594   H     0.00386   0.85168   0.39601   0.00000  Uiso   1.00
H595   H     0.01395   0.71491   0.40616   0.00000  Uiso   1.00
H596   H     0.45606   0.70320   0.38942   0.00000  Uiso   1.00
N597   N     0.25000   0.62624   0.50000   0.00000  Uiso   1.00
N598   N     0.25000   0.87377   0.50000   0.00000  Uiso   1.00
O599   O     0.18453   0.78974   0.50000   0.00000  Uiso   1.00
O600   O     0.47806   0.67766   0.45938   0.00000  Uiso   1.00
O601   O     0.47406   0.82295   0.55563   0.00000  Uiso   1.00
O602   O     0.02517   0.67575   0.55137   0.00000  Uiso   1.00
O603   O     0.11389   0.82711   0.46206   0.00000  Uiso   1.00
O604   O     0.38628   0.67618   0.45672   0.00000  Uiso   1.00
O605   O     0.38278   0.82423   0.54874   0.00000  Uiso   1.00
O606   O     0.11634   0.67371   0.54422   0.00000  Uiso   1.00
O607   O     0.31547   0.71026   0.50000   0.00000  Uiso   1.00
O608   O     0.31547   0.78974   0.50000   0.00000  Uiso   1.00
O609   O     0.18453   0.71026   0.50000   0.00000  Uiso   1.00
O610   O     0.25000   0.78973   0.42845   0.00000  Uiso   1.00
O611   O     0.25000   0.71027   0.57155   0.00000  Uiso   1.00
O612   O     0.25000   0.78973   0.57155   0.00000  Uiso   1.00
O613   O     0.25000   0.71027   0.42845   0.00000  Uiso   1.00
O614   O     0.02237   0.82646   0.46492   0.00000  Uiso   1.00
Zn615  Zn    0.25000   0.80307   0.50000   0.00000  Uiso   1.00
Zn616  Zn    0.25000   0.69693   0.50000   0.00000  Uiso   1.00
C617   C     0.66378   0.75002   0.50040   0.00000  Uiso   1.00
C618   C     0.73981   0.94743   0.45641   0.00000  Uiso   1.00
C619   C     0.74999   0.75001   0.40619   0.00000  Uiso   1.00
C620   C     0.75002   0.75000   0.59381   0.00000  Uiso   1.00
C621   C     0.75000   0.52675   0.49999   0.00000  Uiso   1.00
C622   C     0.74998   0.97338   0.50000   0.00000  Uiso   1.00
C623   C     0.75000   0.75001   0.35513   0.00000  Uiso   1.00
C624   C     0.75001   0.75000   0.64487   0.00000  Uiso   1.00
C625   C     0.54583   0.78880   0.48480   0.00000  Uiso   1.00
C626   C     0.95427   0.71372   0.48184   0.00000  Uiso   1.00
C627   C     0.95228   0.78637   0.53150   0.00000  Uiso   1.00
C628   C     0.83617   0.75004   0.50038   0.00000  Uiso   1.00
C629   C     0.54726   0.71340   0.52961   0.00000  Uiso   1.00
C630   C     0.59202   0.78978   0.48474   0.00000  Uiso   1.00
C631   C     0.90808   0.71220   0.48179   0.00000  Uiso   1.00
C632   C     0.90635   0.78802   0.52626   0.00000  Uiso   1.00
C633   C     0.59315   0.71149   0.52419   0.00000  Uiso   1.00
C634   C     0.61566   0.75027   0.50280   0.00000  Uiso   1.00
C635   C     0.88420   0.75018   0.50260   0.00000  Uiso   1.00
C636   C     0.52384   0.75117   0.50827   0.00000  Uiso   1.00
C637   C     0.97598   0.75007   0.50789   0.00000  Uiso   1.00
C638   C     0.51395   0.81796   0.41376   0.00000  Uiso   1.00
C639   C     0.72263   0.60230   0.46829   0.00000  Uiso   1.00
C640   C     0.98612   0.68937   0.40889   0.00000  Uiso   1.00
C641   C     0.98075   0.81081   0.60627   0.00000  Uiso   1.00
C642   C     0.51833   0.68524   0.60258   0.00000  Uiso   1.00
C643   C     0.61462   0.86580   0.49538   0.00000  Uiso   1.00
C644   C     0.88720   0.63507   0.48661   0.00000  Uiso   1.00
C645   C     0.88508   0.86470   0.51797   0.00000  Uiso   1.00
C646   C     0.61307   0.63503   0.51108   0.00000  Uiso   1.00
C647   C     0.76015   0.89782   0.54272   0.00000  Uiso   1.00
C648   C     0.77740   0.60229   0.53168   0.00000  Uiso   1.00
C649   C     0.73981   0.89783   0.45729   0.00000  Uiso   1.00
C650   C     0.72187   0.55270   0.46791   0.00000  Uiso   1.00
C651   C     0.76015   0.94743   0.54359   0.00000  Uiso   1.00
C652   C     0.77814   0.55269   0.53206   0.00000  Uiso   1.00
H653   H     0.70102   0.62173   0.44334   0.00000  Uiso   1.00
H654   H     0.99651   0.65694   0.38886   0.00000  Uiso   1.00
H655   H     0.51033   0.78776   0.61005   0.00000  Uiso   1.00
H656   H     0.95107   0.79397   0.62367   0.00000  Uiso   1.00
H657   H     0.98773   0.84356   0.62761   0.00000  Uiso   1.00
H658   H     0.54803   0.70094   0.62118   0.00000  Uiso   1.00
H659   H     0.51109   0.65146   0.62189   0.00000  Uiso   1.00
H660   H     0.98886   0.70824   0.60748   0.00000  Uiso   1.00
H661   H     0.63660   0.89344   0.47956   0.00000  Uiso   1.00
H662   H     0.58108   0.88153   0.49976   0.00000  Uiso   1.00
H663   H     0.62829   0.85591   0.53273   0.00000  Uiso   1.00
H664   H     0.76825   0.87863   0.57650   0.00000  Uiso   1.00
H665   H     0.86367   0.60906   0.47048   0.00000  Uiso   1.00
H666   H     0.92064   0.61861   0.48650   0.00000  Uiso   1.00
H667   H     0.87651   0.64214   0.52583   0.00000  Uiso   1.00
H668   H     0.86208   0.89170   0.53312   0.00000  Uiso   1.00
H669   H     0.91894   0.88023   0.51812   0.00000  Uiso   1.00
H670   H     0.87452   0.85705   0.47880   0.00000  Uiso   1.00
H671   H     0.63611   0.60705   0.52404   0.00000  Uiso   1.00
H672   H     0.57910   0.61978   0.51108   0.00000  Uiso   1.00
H673   H     0.62284   0.64475   0.47220   0.00000  Uiso   1.00
H674   H     0.69888   0.53501   0.44304   0.00000  Uiso   1.00
H675   H     0.79900   0.62173   0.55663   0.00000  Uiso   1.00
H676   H     0.76748   0.96511   0.57853   0.00000  Uiso   1.00
H677   H     0.80113   0.53501   0.55692   0.00000  Uiso   1.00
H678   H     0.73247   0.96513   0.42147   0.00000  Uiso   1.00
H679   H     0.73170   0.87864   0.42351   0.00000  Uiso   1.00
H680   H     0.98582   0.79300   0.40938   0.00000  Uiso   1.00
H681   H     0.54377   0.80496   0.39330   0.00000  Uiso   1.00
H682   H     0.50386   0.85168   0.39601   0.00000  Uiso   1.00
H683   H     0.51395   0.71491   0.40616   0.00000  Uiso   1.00
H684   H     0.95606   0.70320   0.38942   0.00000  Uiso   1.00
N685   N     0.75000   0.62624   0.50000   0.00000  Uiso   1.00
N686   N     0.75000   0.87377   0.50000   0.00000  Uiso   1.00
O687   O     0.68453   0.78974   0.50000   0.00000  Uiso   1.00
O688   O     0.97806   0.67766   0.45938   0.00000  Uiso   1.00
O689   O     0.97406   0.82295   0.55563   0.00000  Uiso   1.00
O690   O     0.52517   0.67575   0.55137   0.00000  Uiso   1.00
O691   O     0.61389   0.82711   0.46206   0.00000  Uiso   1.00
O692   O     0.88628   0.67618   0.45672   0.00000  Uiso   1.00
O693   O     0.88278   0.82423   0.54874   0.00000  Uiso   1.00
O694   O     0.61634   0.67371   0.54422   0.00000  Uiso   1.00
O695   O     0.81547   0.71026   0.50000   0.00000  Uiso   1.00
O696   O     0.81547   0.78974   0.50000   0.00000  Uiso   1.00
O697   O     0.68453   0.71026   0.50000   0.00000  Uiso   1.00
O698   O     0.75000   0.78973   0.42845   0.00000  Uiso   1.00
O699   O     0.75000   0.71027   0.57155   0.00000  Uiso   1.00
O700   O     0.75000   0.78973   0.57155   0.00000  Uiso   1.00
O701   O     0.75000   0.71027   0.42845   0.00000  Uiso   1.00
O702   O     0.52237   0.82646   0.46492   0.00000  Uiso   1.00
Zn703  Zn    0.75000   0.80307   0.50000   0.00000  Uiso   1.00
Zn704  Zn    0.75000   0.69693   0.50000   0.00000  Uiso   1.00
C705   C     0.16378   0.25002   0.83374   0.00000  Uiso   1.00
C706   C     0.23981   0.44743   0.78974   0.00000  Uiso   1.00
C707   C     0.24999   0.25001   0.73952   0.00000  Uiso   1.00
C708   C     0.25002   0.25000   0.92715   0.00000  Uiso   1.00
C709   C     0.25000   0.02675   0.83332   0.00000  Uiso   1.00
C710   C     0.24998   0.47338   0.83333   0.00000  Uiso   1.00
C711   C     0.25000   0.25001   0.68846   0.00000  Uiso   1.00
C712   C     0.25001   0.25000   0.97821   0.00000  Uiso   1.00
C713   C     0.04583   0.28880   0.81813   0.00000  Uiso   1.00
C714   C     0.45427   0.21372   0.81517   0.00000  Uiso   1.00
C715   C     0.45228   0.28637   0.86483   0.00000  Uiso   1.00
C716   C     0.33617   0.25004   0.83371   0.00000  Uiso   1.00
C717   C     0.04726   0.21340   0.86294   0.00000  Uiso   1.00
C718   C     0.09202   0.28978   0.81808   0.00000  Uiso   1.00
C719   C     0.40808   0.21220   0.81512   0.00000  Uiso   1.00
C720   C     0.40635   0.28802   0.85959   0.00000  Uiso   1.00
C721   C     0.09315   0.21149   0.85753   0.00000  Uiso   1.00
C722   C     0.11566   0.25027   0.83614   0.00000  Uiso   1.00
C723   C     0.38420   0.25018   0.83593   0.00000  Uiso   1.00
C724   C     0.02384   0.25117   0.84160   0.00000  Uiso   1.00
C725   C     0.47598   0.25007   0.84122   0.00000  Uiso   1.00
C726   C     0.01395   0.31796   0.74709   0.00000  Uiso   1.00
C727   C     0.22263   0.10230   0.80163   0.00000  Uiso   1.00
C728   C     0.48612   0.18937   0.74222   0.00000  Uiso   1.00
C729   C     0.48075   0.31081   0.93961   0.00000  Uiso   1.00
C730   C     0.01833   0.18524   0.93592   0.00000  Uiso   1.00
C731   C     0.11462   0.36580   0.82872   0.00000  Uiso   1.00
C732   C     0.38720   0.13507   0.81995   0.00000  Uiso   1.00
C733   C     0.38508   0.36470   0.85131   0.00000  Uiso   1.00
C734   C     0.11307   0.13503   0.84441   0.00000  Uiso   1.00
C735   C     0.26015   0.39782   0.87605   0.00000  Uiso   1.00
C736   C     0.27740   0.10229   0.86501   0.00000  Uiso   1.00
C737   C     0.23981   0.39783   0.79062   0.00000  Uiso   1.00
C738   C     0.22187   0.05270   0.80124   0.00000  Uiso   1.00
C739   C     0.26015   0.44743   0.87693   0.00000  Uiso   1.00
C740   C     0.27814   0.05269   0.86539   0.00000  Uiso   1.00
H741   H     0.20102   0.12173   0.77668   0.00000  Uiso   1.00
H742   H     0.49651   0.15694   0.72220   0.00000  Uiso   1.00
H743   H     0.01033   0.28776   0.94338   0.00000  Uiso   1.00
H744   H     0.45107   0.29397   0.95701   0.00000  Uiso   1.00
H745   H     0.48773   0.34356   0.96094   0.00000  Uiso   1.00
H746   H     0.04803   0.20094   0.95452   0.00000  Uiso   1.00
H747   H     0.01109   0.15146   0.95522   0.00000  Uiso   1.00
H748   H     0.48886   0.20824   0.94081   0.00000  Uiso   1.00
H749   H     0.13660   0.39344   0.81289   0.00000  Uiso   1.00
H750   H     0.08108   0.38153   0.83309   0.00000  Uiso   1.00
H751   H     0.12829   0.35591   0.86606   0.00000  Uiso   1.00
H752   H     0.26825   0.37863   0.90983   0.00000  Uiso   1.00
H753   H     0.36367   0.10906   0.80381   0.00000  Uiso   1.00
H754   H     0.42064   0.11861   0.81983   0.00000  Uiso   1.00
H755   H     0.37651   0.14214   0.85917   0.00000  Uiso   1.00
H756   H     0.36208   0.39170   0.86645   0.00000  Uiso   1.00
H757   H     0.41894   0.38023   0.85146   0.00000  Uiso   1.00
H758   H     0.37452   0.35705   0.81213   0.00000  Uiso   1.00
H759   H     0.13611   0.10705   0.85738   0.00000  Uiso   1.00
H760   H     0.07910   0.11978   0.84441   0.00000  Uiso   1.00
H761   H     0.12284   0.14475   0.80553   0.00000  Uiso   1.00
H762   H     0.19888   0.03501   0.77638   0.00000  Uiso   1.00
H763   H     0.29900   0.12173   0.88997   0.00000  Uiso   1.00
H764   H     0.26748   0.46511   0.91187   0.00000  Uiso   1.00
H765   H     0.30113   0.03501   0.89026   0.00000  Uiso   1.00
H766   H     0.23247   0.46513   0.75480   0.00000  Uiso   1.00
H767   H     0.23170   0.37864   0.75685   0.00000  Uiso   1.00
H768   H     0.48582   0.29300   0.74272   0.00000  Uiso   1.00
H769   H     0.04377   0.30496   0.72663   0.00000  Uiso   1.00
H770   H     0.00386   0.35168   0.72934   0.00000  Uiso   1.00
H771   H     0.01395   0.21491   0.73949   0.00000  Uiso   1.00
H772   H     0.45606   0.20320   0.72275   0.00000  Uiso   1.00
N773   N     0.25000   0.12624   0.83333   0.00000  Uiso   1.00
N774   N     0.25000   0.37377   0.83333   0.00000  Uiso   1.00
O775   O     0.18453   0.28974   0.83334   0.00000  Uiso   1.00
O776   O     0.47806   0.17766   0.79271   0.00000  Uiso   1.00
O777   O     0.47406   0.32295   0.88897   0.00000  Uiso   1.00
O778   O     0.02517   0.17575   0.88470   0.00000  Uiso   1.00
O779   O     0.11389   0.32711   0.79540   0.00000  Uiso   1.00
O780   O     0.38628   0.17618   0.79006   0.00000  Uiso   1.00
O781   O     0.38278   0.32423   0.88208   0.00000  Uiso   1.00
O782   O     0.11634   0.17371   0.87755   0.00000  Uiso   1.00
O783   O     0.31547   0.21026   0.83333   0.00000  Uiso   1.00
O784   O     0.31547   0.28974   0.83333   0.00000  Uiso   1.00
O785   O     0.18453   0.21026   0.83334   0.00000  Uiso   1.00
O786   O     0.25000   0.28973   0.76178   0.00000  Uiso   1.00
O787   O     0.25000   0.21027   0.90489   0.00000  Uiso   1.00
O788   O     0.25000   0.28973   0.90489   0.00000  Uiso   1.00
O789   O     0.25000   0.21027   0.76178   0.00000  Uiso   1.00
O790   O     0.02237   0.32646   0.79825   0.00000  Uiso   1.00
Zn791  Zn    0.25000   0.30307   0.83333   0.00000  Uiso   1.00
Zn792  Zn    0.25000   0.19693   0.83333   0.00000  Uiso   1.00
C793   C     0.66378   0.25002   0.83374   0.00000  Uiso   1.00
C794   C     0.73981   0.44743   0.78974   0.00000  Uiso   1.00
C795   C     0.74999   0.25001   0.73952   0.00000  Uiso   1.00
C796   C     0.75002   0.25000   0.92715   0.00000  Uiso   1.00
C797   C     0.75000   0.02675   0.83332   0.00000  Uiso   1.00
C798   C     0.74998   0.47338   0.83333   0.00000  Uiso   1.00
C799   C     0.75000   0.25001   0.68846   0.00000  Uiso   1.00
C800   C     0.75001   0.25000   0.97821   0.00000  Uiso   1.00
C801   C     0.54583   0.28880   0.81813   0.00000  Uiso   1.00
C802   C     0.95427   0.21372   0.81517   0.00000  Uiso   1.00
C803   C     0.95228   0.28637   0.86483   0.00000  Uiso   1.00
C804   C     0.83617   0.25004   0.83371   0.00000  Uiso   1.00
C805   C     0.54726   0.21340   0.86294   0.00000  Uiso   1.00
C806   C     0.59202   0.28978   0.81808   0.00000  Uiso   1.00
C807   C     0.90808   0.21220   0.81512   0.00000  Uiso   1.00
C808   C     0.90635   0.28802   0.85959   0.00000  Uiso   1.00
C809   C     0.59315   0.21149   0.85753   0.00000  Uiso   1.00
C810   C     0.61566   0.25027   0.83614   0.00000  Uiso   1.00
C811   C     0.88420   0.25018   0.83593   0.00000  Uiso   1.00
C812   C     0.52384   0.25117   0.84160   0.00000  Uiso   1.00
C813   C     0.97598   0.25007   0.84122   0.00000  Uiso   1.00
C814   C     0.51395   0.31796   0.74709   0.00000  Uiso   1.00
C815   C     0.72263   0.10230   0.80163   0.00000  Uiso   1.00
C816   C     0.98612   0.18937   0.74222   0.00000  Uiso   1.00
C817   C     0.98075   0.31081   0.93961   0.00000  Uiso   1.00
C818   C     0.51833   0.18524   0.93592   0.00000  Uiso   1.00
C819   C     0.61462   0.36580   0.82872   0.00000  Uiso   1.00
C820   C     0.88720   0.13507   0.81995   0.00000  Uiso   1.00
C821   C     0.88508   0.36470   0.85131   0.00000  Uiso   1.00
C822   C     0.61307   0.13503   0.84441   0.00000  Uiso   1.00
C823   C     0.76015   0.39782   0.87605   0.00000  Uiso   1.00
C824   C     0.77740   0.10229   0.86501   0.00000  Uiso   1.00
C825   C     0.73981   0.39783   0.79062   0.00000  Uiso   1.00
C826   C     0.72187   0.05270   0.80124   0.00000  Uiso   1.00
C827   C     0.76015   0.44743   0.87693   0.00000  Uiso   1.00
C828   C     0.77814   0.05269   0.86539   0.00000  Uiso   1.00
H829   H     0.70102   0.12173   0.77668   0.00000  Uiso   1.00
H830   H     0.99651   0.15694   0.72220   0.00000  Uiso   1.00
H831   H     0.51033   0.28776   0.94338   0.00000  Uiso   1.00
H832   H     0.95107   0.29397   0.95701   0.00000  Uiso   1.00
H833   H     0.98773   0.34356   0.96094   0.00000  Uiso   1.00
H834   H     0.54803   0.20094   0.95452   0.00000  Uiso   1.00
H835   H     0.51109   0.15146   0.95522   0.00000  Uiso   1.00
H836   H     0.98886   0.20824   0.94081   0.00000  Uiso   1.00
H837   H     0.63660   0.39344   0.81289   0.00000  Uiso   1.00
H838   H     0.58108   0.38153   0.83309   0.00000  Uiso   1.00
H839   H     0.62829   0.35591   0.86606   0.00000  Uiso   1.00
H840   H     0.76825   0.37863   0.90983   0.00000  Uiso   1.00
H841   H     0.86367   0.10906   0.80381   0.00000  Uiso   1.00
H842   H     0.92064   0.11861   0.81983   0.00000  Uiso   1.00
H843   H     0.87651   0.14214   0.85917   0.00000  Uiso   1.00
H844   H     0.86208   0.39170   0.86645   0.00000  Uiso   1.00
H845   H     0.91894   0.38023   0.85146   0.00000  Uiso   1.00
H846   H     0.87452   0.35705   0.81213   0.00000  Uiso   1.00
H847   H     0.63611   0.10705   0.85738   0.00000  Uiso   1.00
H848   H     0.57910   0.11978   0.84441   0.00000  Uiso   1.00
H849   H     0.62284   0.14475   0.80553   0.00000  Uiso   1.00
H850   H     0.69888   0.03501   0.77638   0.00000  Uiso   1.00
H851   H     0.79900   0.12173   0.88997   0.00000  Uiso   1.00
H852   H     0.76748   0.46511   0.91187   0.00000  Uiso   1.00
H853   H     0.80113   0.03501   0.89026   0.00000  Uiso   1.00
H854   H     0.73247   0.46513   0.75480   0.00000  Uiso   1.00
H855   H     0.73170   0.37864   0.75685   0.00000  Uiso   1.00
H856   H     0.98582   0.29300   0.74272   0.00000  Uiso   1.00
H857   H     0.54377   0.30496   0.72663   0.00000  Uiso   1.00
H858   H     0.50386   0.35168   0.72934   0.00000  Uiso   1.00
H859   H     0.51395   0.21491   0.73949   0.00000  Uiso   1.00
H860   H     0.95606   0.20320   0.72275   0.00000  Uiso   1.00
N861   N     0.75000   0.12624   0.83333   0.00000  Uiso   1.00
N862   N     0.75000   0.37377   0.83333   0.00000  Uiso   1.00
O863   O     0.68453   0.28974   0.83334   0.00000  Uiso   1.00
O864   O     0.97806   0.17766   0.79271   0.00000  Uiso   1.00
O865   O     0.97406   0.32295   0.88897   0.00000  Uiso   1.00
O866   O     0.52517   0.17575   0.88470   0.00000  Uiso   1.00
O867   O     0.61389   0.32711   0.79540   0.00000  Uiso   1.00
O868   O     0.88628   0.17618   0.79006   0.00000  Uiso   1.00
O869   O     0.88278   0.32423   0.88208   0.00000  Uiso   1.00
O870   O     0.61634   0.17371   0.87755   0.00000  Uiso   1.00
O871   O     0.81547   0.21026   0.83333   0.00000  Uiso   1.00
O872   O     0.81547   0.28974   0.83333   0.00000  Uiso   1.00
O873   O     0.68453   0.21026   0.83334   0.00000  Uiso   1.00
O874   O     0.75000   0.28973   0.76178   0.00000  Uiso   1.00
O875   O     0.75000   0.21027   0.90489   0.00000  Uiso   1.00
O876   O     0.75000   0.28973   0.90489   0.00000  Uiso   1.00
O877   O     0.75000   0.21027   0.76178   0.00000  Uiso   1.00
O878   O     0.52237   0.32646   0.79825   0.00000  Uiso   1.00
Zn879  Zn    0.75000   0.30307   0.83333   0.00000  Uiso   1.00
Zn880  Zn    0.75000   0.19693   0.83333   0.00000  Uiso   1.00
C881   C     0.16378   0.75002   0.83374   0.00000  Uiso   1.00
C882   C     0.23981   0.94743   0.78974   0.00000  Uiso   1.00
C883   C     0.24999   0.75001   0.73952   0.00000  Uiso   1.00
C884   C     0.25002   0.75000   0.92715   0.00000  Uiso   1.00
C885   C     0.25000   0.52675   0.83332   0.00000  Uiso   1.00
C886   C     0.24998   0.97338   0.83333   0.00000  Uiso   1.00
C887   C     0.25000   0.75001   0.68846   0.00000  Uiso   1.00
C888   C     0.25001   0.75000   0.97821   0.00000  Uiso   1.00
C889   C     0.04583   0.78880   0.81813   0.00000  Uiso   1.00
C890   C     0.45427   0.71372   0.81517   0.00000  Uiso   1.00
C891   C     0.45228   0.78637   0.86483   0.00000  Uiso   1.00
C892   C     0.33617   0.75004   0.83371   0.00000  Uiso   1.00
C893   C     0.04726   0.71340   0.86294   0.00000  Uiso   1.00
C894   C     0.09202   0.78978   0.81808   0.00000  Uiso   1.00
C895   C     0.40808   0.71220   0.81512   0.00000  Uiso   1.00
C896   C     0.40635   0.78802   0.85959   0.00000  Uiso   1.00
C897   C     0.09315   0.71149   0.85753   0.00000  Uiso   1.00
C898   C     0.11566   0.75027   0.83614   0.00000  Uiso   1.00
C899   C     0.38420   0.75018   0.83593   0.00000  Uiso   1.00
C900   C     0.02384   0.75117   0.84160   0.00000  Uiso   1.00
C901   C     0.47598   0.75007   0.84122   0.00000  Uiso   1.00
C902   C     0.01395   0.81796   0.74709   0.00000  Uiso   1.00
C903   C     0.22263   0.60230   0.80163   0.00000  Uiso   1.00
C904   C     0.48612   0.68937   0.74222   0.00000  Uiso   1.00
C905   C     0.48075   0.81081   0.93961   0.00000  Uiso   1.00
C906   C     0.01833   0.68524   0.93592   0.00000  Uiso   1.00
C907   C     0.11462   0.86580   0.82872   0.00000  Uiso   1.00
C908   C     0.38720   0.63507   0.81995   0.00000  Uiso   1.00
C909   C     0.38508   0.86470   0.85131   0.00000  Uiso   1.00
C910   C     0.11307   0.63503   0.84441   0.00000  Uiso   1.00
C911   C     0.26015   0.89782   0.87605   0.00000  Uiso   1.00
C912   C     0.27740   0.60229   0.86501   0.00000  Uiso   1.00
C913   C     0.23981   0.89783   0.79062   0.00000  Uiso   1.00
C914   C     0.22187   0.55270   0.80124   0.00000  Uiso   1.00
C915   C     0.26015   0.94743   0.87693   0.00000  Uiso   1.00
C916   C     0.27814   0.55269   0.86539   0.00000  Uiso   1.00
H917   H     0.20102   0.62173   0.77668   0.00000  Uiso   1.00
H918   H     0.49651   0.65694   0.72220   0.00000  Uiso   1.00
H919   H     0.01033   0.78776   0.94338   0.00000  Uiso   1.00
H920   H     0.45107   0.79397   0.95701   0.00000  Uiso   1.00
H921   H     0.48773   0.84356   0.96094   0.00000  Uiso   1.00
H922   H     0.04803   0.70094   0.95452   0.00000  Uiso   1.00
H923   H     0.01109   0.65146   0.95522   0.00000  Uiso   1.00
H924   H     0.48886   0.70824   0.94081   0.00000  Uiso   1.00
H925   H     0.13660   0.89344   0.81289   0.00000  Uiso   1.00
H926   H     0.08108   0.88153   0.83309   0.00000  Uiso   1.00
H927   H     0.12829   0.85591   0.86606   0.00000  Uiso   1.00
H928   H     0.26825   0.87863   0.90983   0.00000  Uiso   1.00
H929   H     0.36367   0.60906   0.80381   0.00000  Uiso   1.00
H930   H     0.42064   0.61861   0.81983   0.00000  Uiso   1.00
H931   H     0.37651   0.64214   0.85917   0.00000  Uiso   1.00
H932   H     0.36208   0.89170   0.86645   0.00000  Uiso   1.00
H933   H     0.41894   0.88023   0.85146   0.00000  Uiso   1.00
H934   H     0.37452   0.85705   0.81213   0.00000  Uiso   1.00
H935   H     0.13611   0.60705   0.85738   0.00000  Uiso   1.00
H936   H     0.07910   0.61978   0.84441   0.00000  Uiso   1.00
H937   H     0.12284   0.64475   0.80553   0.00000  Uiso   1.00
H938   H     0.19888   0.53501   0.77638   0.00000  Uiso   1.00
H939   H     0.29900   0.62173   0.88997   0.00000  Uiso   1.00
H940   H     0.26748   0.96511   0.91187   0.00000  Uiso   1.00
H941   H     0.30113   0.53501   0.89026   0.00000  Uiso   1.00
H942   H     0.23247   0.96513   0.75480   0.00000  Uiso   1.00
H943   H     0.23170   0.87864   0.75685   0.00000  Uiso   1.00
H944   H     0.48582   0.79300   0.74272   0.00000  Uiso   1.00
H945   H     0.04377   0.80496   0.72663   0.00000  Uiso   1.00
H946   H     0.00386   0.85168   0.72934   0.00000  Uiso   1.00
H947   H     0.01395   0.71491   0.73949   0.00000  Uiso   1.00
H948   H     0.45606   0.70320   0.72275   0.00000  Uiso   1.00
N949   N     0.25000   0.62624   0.83333   0.00000  Uiso   1.00
N950   N     0.25000   0.87377   0.83333   0.00000  Uiso   1.00
O951   O     0.18453   0.78974   0.83334   0.00000  Uiso   1.00
O952   O     0.47806   0.67766   0.79271   0.00000  Uiso   1.00
O953   O     0.47406   0.82295   0.88897   0.00000  Uiso   1.00
O954   O     0.02517   0.67575   0.88470   0.00000  Uiso   1.00
O955   O     0.11389   0.82711   0.79540   0.00000  Uiso   1.00
O956   O     0.38628   0.67618   0.79006   0.00000  Uiso   1.00
O957   O     0.38278   0.82423   0.88208   0.00000  Uiso   1.00
O958   O     0.11634   0.67371   0.87755   0.00000  Uiso   1.00
O959   O     0.31547   0.71026   0.83333   0.00000  Uiso   1.00
O960   O     0.31547   0.78974   0.83333   0.00000  Uiso   1.00
O961   O     0.18453   0.71026   0.83334   0.00000  Uiso   1.00
O962   O     0.25000   0.78973   0.76178   0.00000  Uiso   1.00
O963   O     0.25000   0.71027   0.90489   0.00000  Uiso   1.00
O964   O     0.25000   0.78973   0.90489   0.00000  Uiso   1.00
O965   O     0.25000   0.71027   0.76178   0.00000  Uiso   1.00
O966   O     0.02237   0.82646   0.79825   0.00000  Uiso   1.00
Zn967  Zn    0.25000   0.80307   0.83333   0.00000  Uiso   1.00
Zn968  Zn    0.25000   0.69693   0.83333   0.00000  Uiso   1.00
C969   C     0.66378   0.75002   0.83374   0.00000  Uiso   1.00
C970   C     0.73981   0.94743   0.78974   0.00000  Uiso   1.00
C971   C     0.74999   0.75001   0.73952   0.00000  Uiso   1.00
C972   C     0.75002   0.75000   0.92715   0.00000  Uiso   1.00
C973   C     0.75000   0.52675   0.83332   0.00000  Uiso   1.00
C974   C     0.74998   0.97338   0.83333   0.00000  Uiso   1.00
C975   C     0.75000   0.75001   0.68846   0.00000  Uiso   1.00
C976   C     0.75001   0.75000   0.97821   0.00000  Uiso   1.00
C977   C     0.54583   0.78880   0.81813   0.00000  Uiso   1.00
C978   C     0.95427   0.71372   0.81517   0.00000  Uiso   1.00
C979   C     0.95228   0.78637   0.86483   0.00000  Uiso   1.00
C980   C     0.83617   0.75004   0.83371   0.00000  Uiso   1.00
C981   C     0.54726   0.71340   0.86294   0.00000  Uiso   1.00
C982   C     0.59202   0.78978   0.81808   0.00000  Uiso   1.00
C983   C     0.90808   0.71220   0.81512   0.00000  Uiso   1.00
C984   C     0.90635   0.78802   0.85959   0.00000  Uiso   1.00
C985   C     0.59315   0.71149   0.85753   0.00000  Uiso   1.00
C986   C     0.61566   0.75027   0.83614   0.00000  Uiso   1.00
C987   C     0.88420   0.75018   0.83593   0.00000  Uiso   1.00
C988   C     0.52384   0.75117   0.84160   0.00000  Uiso   1.00
C989   C     0.97598   0.75007   0.84122   0.00000  Uiso   1.00
C990   C     0.51395   0.81796   0.74709   0.00000  Uiso   1.00
C991   C     0.72263   0.60230   0.80163   0.00000  Uiso   1.00
C992   C     0.98612   0.68937   0.74222   0.00000  Uiso   1.00
C993   C     0.98075   0.81081   0.93961   0.00000  Uiso   1.00
C994   C     0.51833   0.68524   0.93592   0.00000  Uiso   1.00
C995   C     0.61462   0.86580   0.82872   0.00000  Uiso   1.00
C996   C     0.88720   0.63507   0.81995   0.00000  Uiso   1.00
C997   C     0.88508   0.86470   0.85131   0.00000  Uiso   1.00
C998   C     0.61307   0.63503   0.84441   0.00000  Uiso   1.00
C999   C     0.76015   0.89782   0.87605   0.00000  Uiso   1.00
C1000  C     0.77740   0.60229   0.86501   0.00000  Uiso   1.00
C1001  C     0.73981   0.89783   0.79062   0.00000  Uiso   1.00
C1002  C     0.72187   0.55270   0.80124   0.00000  Uiso   1.00
C1003  C     0.76015   0.94743   0.87693   0.00000  Uiso   1.00
C1004  C     0.77814   0.55269   0.86539   0.00000  Uiso   1.00
H1005  H     0.70102   0.62173   0.77668   0.00000  Uiso   1.00
H1006  H     0.99651   0.65694   0.72220   0.00000  Uiso   1.00
H1007  H     0.51033   0.78776   0.94338   0.00000  Uiso   1.00
H1008  H     0.95107   0.79397   0.95701   0.00000  Uiso   1.00
H1009  H     0.98773   0.84356   0.96094   0.00000  Uiso   1.00
H1010  H     0.54803   0.70094   0.95452   0.00000  Uiso   1.00
H1011  H     0.51109   0.65146   0.95522   0.00000  Uiso   1.00
H1012  H     0.98886   0.70824   0.94081   0.00000  Uiso   1.00
H1013  H     0.63660   0.89344   0.81289   0.00000  Uiso   1.00
H1014  H     0.58108   0.88153   0.83309   0.00000  Uiso   1.00
H1015  H     0.62829   0.85591   0.86606   0.00000  Uiso   1.00
H1016  H     0.76825   0.87863   0.90983   0.00000  Uiso   1.00
H1017  H     0.86367   0.60906   0.80381   0.00000  Uiso   1.00
H1018  H     0.92064   0.61861   0.81983   0.00000  Uiso   1.00
H1019  H     0.87651   0.64214   0.85917   0.00000  Uiso   1.00
H1020  H     0.86208   0.89170   0.86645   0.00000  Uiso   1.00
H1021  H     0.91894   0.88023   0.85146   0.00000  Uiso   1.00
H1022  H     0.87452   0.85705   0.81213   0.00000  Uiso   1.00
H1023  H     0.63611   0.60705   0.85738   0.00000  Uiso   1.00
H1024  H     0.57910   0.61978   0.84441   0.00000  Uiso   1.00
H1025  H     0.62284   0.64475   0.80553   0.00000  Uiso   1.00
H1026  H     0.69888   0.53501   0.77638   0.00000  Uiso   1.00
H1027  H     0.79900   0.62173   0.88997   0.00000  Uiso   1.00
H1028  H     0.76748   0.96511   0.91187   0.00000  Uiso   1.00
H1029  H     0.80113   0.53501   0.89026   0.00000  Uiso   1.00
H1030  H     0.73247   0.96513   0.75480   0.00000  Uiso   1.00
H1031  H     0.73170   0.87864   0.75685   0.00000  Uiso   1.00
H1032  H     0.98582   0.79300   0.74272   0.00000  Uiso   1.00
H1033  H     0.54377   0.80496   0.72663   0.00000  Uiso   1.00
H1034  H     0.50386   0.85168   0.72934   0.00000  Uiso   1.00
H1035  H     0.51395   0.71491   0.73949   0.00000  Uiso   1.00
H1036  H     0.95606   0.70320   0.72275   0.00000  Uiso   1.00
N1037  N     0.75000   0.62624   0.83333   0.00000  Uiso   1.00
N1038  N     0.75000   0.87377   0.83333   0.00000  Uiso   1.00
O1039  O     0.68453   0.78974   0.83334   0.00000  Uiso   1.00
O1040  O     0.97806   0.67766   0.79271   0.00000  Uiso   1.00
O1041  O     0.97406   0.82295   0.88897   0.00000  Uiso   1.00
O1042  O     0.52517   0.67575   0.88470   0.00000  Uiso   1.00
O1043  O     0.61389   0.82711   0.79540   0.00000  Uiso   1.00
O1044  O     0.88628   0.67618   0.79006   0.00000  Uiso   1.00
O1045  O     0.88278   0.82423   0.88208   0.00000  Uiso   1.00
O1046  O     0.61634   0.67371   0.87755   0.00000  Uiso   1.00
O1047  O     0.81547   0.71026   0.83333   0.00000  Uiso   1.00
O1048  O     0.81547   0.78974   0.83333   0.00000  Uiso   1.00
O1049  O     0.68453   0.71026   0.83334   0.00000  Uiso   1.00
O1050  O     0.75000   0.78973   0.76178   0.00000  Uiso   1.00
O1051  O     0.75000   0.71027   0.90489   0.00000  Uiso   1.00
O1052  O     0.75000   0.78973   0.90489   0.00000  Uiso   1.00
O1053  O     0.75000   0.71027   0.76178   0.00000  Uiso   1.00
O1054  O     0.52237   0.82646   0.79825   0.00000  Uiso   1.00
Zn1055 Zn    0.75000   0.80307   0.83333   0.00000  Uiso   1.00
Zn1056 Zn    0.75000   0.69693   0.83333   0.00000  Uiso   1.00
loop_
_geom_bond_atom_site_label_1
_geom_bond_atom_site_label_2
_geom_bond_distance
_geom_bond_site_symmetry_2
_ccdc_geom_bond_type
C1     C18     1.451   .     S
C1     O71     1.287   .     A
C1     O81     1.289   .     A
C2     C6      1.410   .     A
C2     C33     1.406   .     A
C2     H62     1.082   .     S
C3     O85     1.273   .     A
C3     C7      1.363   .     S
C3     O82     1.273   .     A
C4     C8      1.363   .     S
C4     O84     1.273   .     A
C4     O83     1.273   .     A
C5     C36     1.411   .     A
C5     C34     1.411   .     A
C5     C182    1.513   1_545 S
C6     C35     1.410   .     A
C6     C181    1.513   .     S
C7     C712    1.164   1_554 S
C8     C359    1.164   .     S
C9     C14     1.391   .     A
C9     O86     1.385   .     S
C9     C20     1.403   .     A
C10    C15     1.392   .     A
C10    C21     1.404   .     A
C10    O72     1.385   .     S
C11    O73     1.385   .     S
C11    C21     1.403   .     A
C11    C16     1.391   .     A
C12    O80     1.287   .     A
C12    C19     1.448   .     S
C12    O79     1.288   .     A
C13    O74     1.385   .     S
C13    C20     1.402   .     A
C13    C17     1.391   .     A
C14    C18     1.412   .     A
C14    O75     1.386   .     S
C15    C19     1.410   .     A
C15    O76     1.386   .     S
C16    O77     1.385   .     S
C16    C19     1.412   .     A
C17    C18     1.412   .     A
C17    O78     1.385   .     S
C20    C109    1.442   1_455 S
C21    C108    1.442   .     S
C22    H66     1.109   .     S
C22    H65     1.115   .     S
C22    O86     1.410   .     S
C22    H152    1.110   1_455 S
C23    N69     1.362   .     A
C23    H37     1.082   .     S
C23    C34     1.406   .     A
C24    O72     1.410   .     S
C24    H38     1.109   .     S
C24    H68     1.115   .     S
C24    H155    1.110   .     S
C25    H40     1.115   .     S
C25    H41     1.109   .     S
C25    O73     1.409   .     S
C25    H127    1.109   .     S
C26    H43     1.109   .     S
C26    O74     1.409   .     S
C26    H42     1.115   .     S
C26    H132    1.109   1_455 S
C27    H45     1.109   .     S
C27    O75     1.412   .     S
C27    H46     1.111   .     S
C27    H47     1.114   .     S
C28    H51     1.114   .     S
C28    H49     1.109   .     S
C28    H50     1.110   .     S
C28    O76     1.412   .     S
C29    H54     1.114   .     S
C29    H53     1.111   .     S
C29    O77     1.413   .     S
C29    H52     1.109   .     S
C30    H57     1.114   .     S
C30    H56     1.111   .     S
C30    H55     1.109   .     S
C30    O78     1.412   .     S
C31    N70     1.363   .     A
C31    H48     1.081   .     S
C31    C35     1.406   .     A
C32    C36     1.406   .     A
C32    N69     1.362   .     A
C32    H59     1.081   .     S
C33    H63     1.081   .     S
C33    N70     1.363   .     A
C34    H58     1.082   .     S
C35    H60     1.082   .     S
C36    H61     1.082   .     S
H39    C113    1.109   1_455 S
H44    C114    1.109   .     S
H64    C110    1.110   .     S
H67    C112    1.110   1_455 S
N69    Zn88    2.004   .     S
N70    Zn87    2.004   .     S
O71    Zn87    2.008   .     S
O79    Zn88    2.008   .     S
O80    Zn87    2.008   .     S
O81    Zn88    2.008   .     S
O82    Zn87    1.948   .     S
O83    Zn88    1.948   .     S
O84    Zn87    1.947   .     S
O85    Zn88    1.947   .     S
C89    C106    1.451   .     S
C89    O159    1.287   .     A
C89    O169    1.289   .     A
C90    C94     1.410   .     A
C90    C121    1.406   .     A
C90    H150    1.082   .     S
C91    O173    1.273   .     A
C91    C95     1.363   .     S
C91    O170    1.273   .     A
C92    C96     1.363   .     S
C92    O172    1.273   .     A
C92    O171    1.273   .     A
C93    C124    1.411   .     A
C93    C122    1.411   .     A
C93    C270    1.513   1_545 S
C94    C123    1.410   .     A
C94    C269    1.513   .     S
C95    C800    1.164   1_554 S
C96    C447    1.164   .     S
C97    C102    1.391   .     A
C97    O174    1.385   .     S
C97    C108    1.403   .     A
C98    C103    1.392   .     A
C98    C109    1.404   .     A
C98    O160    1.385   .     S
C99    O161    1.385   .     S
C99    C109    1.403   .     A
C99    C104    1.391   .     A
C100   O168    1.287   .     A
C100   C107    1.448   .     S
C100   O167    1.288   .     A
C101   O162    1.385   .     S
C101   C108    1.402   .     A
C101   C105    1.391   .     A
C102   C106    1.412   .     A
C102   O163    1.386   .     S
C103   C107    1.410   .     A
C103   O164    1.386   .     S
C104   O165    1.385   .     S
C104   C107    1.412   .     A
C105   C106    1.412   .     A
C105   O166    1.385   .     S
C109   C20     1.442   1_655 S
C110   H154    1.109   .     S
C110   H153    1.115   .     S
C110   O174    1.410   .     S
C111   N157    1.362   .     A
C111   H125    1.082   .     S
C111   C122    1.406   .     A
C112   O160    1.410   .     S
C112   H126    1.109   .     S
C112   H156    1.115   .     S
C112   H67     1.110   1_655 S
C113   H128    1.115   .     S
C113   H129    1.109   .     S
C113   O161    1.409   .     S
C113   H39     1.109   1_655 S
C114   H131    1.109   .     S
C114   O162    1.409   .     S
C114   H130    1.115   .     S
C115   H133    1.109   .     S
C115   O163    1.412   .     S
C115   H134    1.111   .     S
C115   H135    1.114   .     S
C116   H139    1.114   .     S
C116   H137    1.109   .     S
C116   H138    1.110   .     S
C116   O164    1.412   .     S
C117   H142    1.114   .     S
C117   H141    1.111   .     S
C117   O165    1.413   .     S
C117   H140    1.109   .     S
C118   H145    1.114   .     S
C118   H144    1.111   .     S
C118   H143    1.109   .     S
C118   O166    1.412   .     S
C119   N158    1.363   .     A
C119   H136    1.081   .     S
C119   C123    1.406   .     A
C120   C124    1.406   .     A
C120   N157    1.362   .     A
C120   H147    1.081   .     S
C121   H151    1.081   .     S
C121   N158    1.363   .     A
C122   H146    1.082   .     S
C123   H148    1.082   .     S
C124   H149    1.082   .     S
H132   C26     1.109   1_655 S
H152   C22     1.110   1_655 S
N157   Zn176   2.004   .     S
N158   Zn175   2.004   .     S
O159   Zn175   2.008   .     S
O167   Zn176   2.008   .     S
O168   Zn175   2.008   .     S
O169   Zn176   2.008   .     S
O170   Zn175   1.948   .     S
O171   Zn176   1.948   .     S
O172   Zn175   1.947   .     S
O173   Zn176   1.947   .     S
C177   C194    1.451   .     S
C177   O247    1.287   .     A
C177   O257    1.289   .     A
C178   C182    1.410   .     A
C178   C209    1.406   .     A
C178   H238    1.082   .     S
C179   O261    1.273   .     A
C179   C183    1.363   .     S
C179   O258    1.273   .     A
C180   C184    1.363   .     S
C180   O260    1.273   .     A
C180   O259    1.273   .     A
C181   C212    1.411   .     A
C181   C210    1.411   .     A
C182   C211    1.410   .     A
C182   C5      1.513   1_565 S
C183   C888    1.164   1_554 S
C184   C535    1.164   .     S
C185   C190    1.391   .     A
C185   O262    1.385   .     S
C185   C196    1.403   .     A
C186   C191    1.392   .     A
C186   C197    1.404   .     A
C186   O248    1.385   .     S
C187   O249    1.385   .     S
C187   C197    1.403   .     A
C187   C192    1.391   .     A
C188   O256    1.287   .     A
C188   C195    1.448   .     S
C188   O255    1.288   .     A
C189   O250    1.385   .     S
C189   C196    1.402   .     A
C189   C193    1.391   .     A
C190   C194    1.412   .     A
C190   O251    1.386   .     S
C191   C195    1.410   .     A
C191   O252    1.386   .     S
C192   O253    1.385   .     S
C192   C195    1.412   .     A
C193   C194    1.412   .     A
C193   O254    1.385   .     S
C196   C285    1.442   1_455 S
C197   C284    1.442   .     S
C198   H242    1.109   .     S
C198   H241    1.115   .     S
C198   O262    1.410   .     S
C198   H328    1.110   1_455 S
C199   N245    1.362   .     A
C199   H213    1.082   .     S
C199   C210    1.406   .     A
C200   O248    1.410   .     S
C200   H214    1.109   .     S
C200   H244    1.115   .     S
C200   H331    1.110   .     S
C201   H216    1.115   .     S
C201   H217    1.109   .     S
C201   O249    1.409   .     S
C201   H303    1.109   .     S
C202   H219    1.109   .     S
C202   O250    1.409   .     S
C202   H218    1.115   .     S
C202   H308    1.109   1_455 S
C203   H221    1.109   .     S
C203   O251    1.412   .     S
C203   H222    1.111   .     S
C203   H223    1.114   .     S
C204   H227    1.114   .     S
C204   H225    1.109   .     S
C204   H226    1.110   .     S
C204   O252    1.412   .     S
C205   H230    1.114   .     S
C205   H229    1.111   .     S
C205   O253    1.413   .     S
C205   H228    1.109   .     S
C206   H233    1.114   .     S
C206   H232    1.111   .     S
C206   H231    1.109   .     S
C206   O254    1.412   .     S
C207   N246    1.363   .     A
C207   H224    1.081   .     S
C207   C211    1.406   .     A
C208   C212    1.406   .     A
C208   N245    1.362   .     A
C208   H235    1.081   .     S
C209   H239    1.081   .     S
C209   N246    1.363   .     A
C210   H234    1.082   .     S
C211   H236    1.082   .     S
C212   H237    1.082   .     S
H215   C289    1.109   1_455 S
H220   C290    1.109   .     S
H240   C286    1.110   .     S
H243   C288    1.110   1_455 S
N245   Zn264   2.004   .     S
N246   Zn263   2.004   .     S
O247   Zn263   2.008   .     S
O255   Zn264   2.008   .     S
O256   Zn263   2.008   .     S
O257   Zn264   2.008   .     S
O258   Zn263   1.948   .     S
O259   Zn264   1.948   .     S
O260   Zn263   1.947   .     S
O261   Zn264   1.947   .     S
C265   C282    1.451   .     S
C265   O335    1.287   .     A
C265   O345    1.289   .     A
C266   C270    1.410   .     A
C266   C297    1.406   .     A
C266   H326    1.082   .     S
C267   O349    1.273   .     A
C267   C271    1.363   .     S
C267   O346    1.273   .     A
C268   C272    1.363   .     S
C268   O348    1.273   .     A
C268   O347    1.273   .     A
C269   C300    1.411   .     A
C269   C298    1.411   .     A
C270   C299    1.410   .     A
C270   C93     1.513   1_565 S
C271   C976    1.164   1_554 S
C272   C623    1.164   .     S
C273   C278    1.391   .     A
C273   O350    1.385   .     S
C273   C284    1.403   .     A
C274   C279    1.392   .     A
C274   C285    1.404   .     A
C274   O336    1.385   .     S
C275   O337    1.385   .     S
C275   C285    1.403   .     A
C275   C280    1.391   .     A
C276   O344    1.287   .     A
C276   C283    1.448   .     S
C276   O343    1.288   .     A
C277   O338    1.385   .     S
C277   C284    1.402   .     A
C277   C281    1.391   .     A
C278   C282    1.412   .     A
C278   O339    1.386   .     S
C279   C283    1.410   .     A
C279   O340    1.386   .     S
C280   O341    1.385   .     S
C280   C283    1.412   .     A
C281   C282    1.412   .     A
C281   O342    1.385   .     S
C285   C196    1.442   1_655 S
C286   H330    1.109   .     S
C286   H329    1.115   .     S
C286   O350    1.410   .     S
C287   N333    1.362   .     A
C287   H301    1.082   .     S
C287   C298    1.406   .     A
C288   O336    1.410   .     S
C288   H302    1.109   .     S
C288   H332    1.115   .     S
C288   H243    1.110   1_655 S
C289   H304    1.115   .     S
C289   H305    1.109   .     S
C289   O337    1.409   .     S
C289   H215    1.109   1_655 S
C290   H307    1.109   .     S
C290   O338    1.409   .     S
C290   H306    1.115   .     S
C291   H309    1.109   .     S
C291   O339    1.412   .     S
C291   H310    1.111   .     S
C291   H311    1.114   .     S
C292   H315    1.114   .     S
C292   H313    1.109   .     S
C292   H314    1.110   .     S
C292   O340    1.412   .     S
C293   H318    1.114   .     S
C293   H317    1.111   .     S
C293   O341    1.413   .     S
C293   H316    1.109   .     S
C294   H321    1.114   .     S
C294   H320    1.111   .     S
C294   H319    1.109   .     S
C294   O342    1.412   .     S
C295   N334    1.363   .     A
C295   H312    1.081   .     S
C295   C299    1.406   .     A
C296   C300    1.406   .     A
C296   N333    1.362   .     A
C296   H323    1.081   .     S
C297   H327    1.081   .     S
C297   N334    1.363   .     A
C298   H322    1.082   .     S
C299   H324    1.082   .     S
C300   H325    1.082   .     S
H308   C202    1.109   1_655 S
H328   C198    1.110   1_655 S
N333   Zn352   2.004   .     S
N334   Zn351   2.004   .     S
O335   Zn351   2.008   .     S
O343   Zn352   2.008   .     S
O344   Zn351   2.008   .     S
O345   Zn352   2.008   .     S
O346   Zn351   1.948   .     S
O347   Zn352   1.948   .     S
O348   Zn351   1.947   .     S
O349   Zn352   1.947   .     S
C353   C370    1.451   .     S
C353   O423    1.287   .     A
C353   O433    1.289   .     A
C354   C358    1.410   .     A
C354   C385    1.406   .     A
C354   H414    1.082   .     S
C355   O437    1.273   .     A
C355   C359    1.363   .     S
C355   O434    1.273   .     A
C356   C360    1.363   .     S
C356   O436    1.273   .     A
C356   O435    1.273   .     A
C357   C388    1.411   .     A
C357   C386    1.411   .     A
C357   C534    1.513   1_545 S
C358   C387    1.410   .     A
C358   C533    1.513   .     S
C360   C711    1.164   .     S
C361   C366    1.391   .     A
C361   O438    1.385   .     S
C361   C372    1.403   .     A
C362   C367    1.392   .     A
C362   C373    1.404   .     A
C362   O424    1.385   .     S
C363   O425    1.385   .     S
C363   C373    1.403   .     A
C363   C368    1.391   .     A
C364   O432    1.287   .     A
C364   C371    1.448   .     S
C364   O431    1.288   .     A
C365   O426    1.385   .     S
C365   C372    1.402   .     A
C365   C369    1.391   .     A
C366   C370    1.412   .     A
C366   O427    1.386   .     S
C367   C371    1.410   .     A
C367   O428    1.386   .     S
C368   O429    1.385   .     S
C368   C371    1.412   .     A
C369   C370    1.412   .     A
C369   O430    1.385   .     S
C372   C461    1.442   1_455 S
C373   C460    1.442   .     S
C374   H418    1.109   .     S
C374   H417    1.115   .     S
C374   O438    1.410   .     S
C374   H504    1.110   1_455 S
C375   N421    1.362   .     A
C375   H389    1.082   .     S
C375   C386    1.406   .     A
C376   O424    1.410   .     S
C376   H390    1.109   .     S
C376   H420    1.115   .     S
C376   H507    1.110   .     S
C377   H392    1.115   .     S
C377   H393    1.109   .     S
C377   O425    1.409   .     S
C377   H479    1.109   .     S
C378   H395    1.109   .     S
C378   O426    1.409   .     S
C378   H394    1.115   .     S
C378   H484    1.109   1_455 S
C379   H397    1.109   .     S
C379   O427    1.412   .     S
C379   H398    1.111   .     S
C379   H399    1.114   .     S
C380   H403    1.114   .     S
C380   H401    1.109   .     S
C380   H402    1.110   .     S
C380   O428    1.412   .     S
C381   H406    1.114   .     S
C381   H405    1.111   .     S
C381   O429    1.413   .     S
C381   H404    1.109   .     S
C382   H409    1.114   .     S
C382   H408    1.111   .     S
C382   H407    1.109   .     S
C382   O430    1.412   .     S
C383   N422    1.363   .     A
C383   H400    1.081   .     S
C383   C387    1.406   .     A
C384   C388    1.406   .     A
C384   N421    1.362   .     A
C384   H411    1.081   .     S
C385   H415    1.081   .     S
C385   N422    1.363   .     A
C386   H410    1.082   .     S
C387   H412    1.082   .     S
C388   H413    1.082   .     S
H391   C465    1.109   1_455 S
H396   C466    1.109   .     S
H416   C462    1.110   .     S
H419   C464    1.110   1_455 S
N421   Zn440   2.004   .     S
N422   Zn439   2.004   .     S
O423   Zn439   2.008   .     S
O431   Zn440   2.008   .     S
O432   Zn439   2.008   .     S
O433   Zn440   2.008   .     S
O434   Zn439   1.948   .     S
O435   Zn440   1.948   .     S
O436   Zn439   1.947   .     S
O437   Zn440   1.947   .     S
C441   C458    1.451   .     S
C441   O511    1.287   .     A
C441   O521    1.289   .     A
C442   C446    1.410   .     A
C442   C473    1.406   .     A
C442   H502    1.082   .     S
C443   O525    1.273   .     A
C443   C447    1.363   .     S
C443   O522    1.273   .     A
C444   C448    1.363   .     S
C444   O524    1.273   .     A
C444   O523    1.273   .     A
C445   C476    1.411   .     A
C445   C474    1.411   .     A
C445   C622    1.513   1_545 S
C446   C475    1.410   .     A
C446   C621    1.513   .     S
C448   C799    1.164   .     S
C449   C454    1.391   .     A
C449   O526    1.385   .     S
C449   C460    1.403   .     A
C450   C455    1.392   .     A
C450   C461    1.404   .     A
C450   O512    1.385   .     S
C451   O513    1.385   .     S
C451   C461    1.403   .     A
C451   C456    1.391   .     A
C452   O520    1.287   .     A
C452   C459    1.448   .     S
C452   O519    1.288   .     A
C453   O514    1.385   .     S
C453   C460    1.402   .     A
C453   C457    1.391   .     A
C454   C458    1.412   .     A
C454   O515    1.386   .     S
C455   C459    1.410   .     A
C455   O516    1.386   .     S
C456   O517    1.385   .     S
C456   C459    1.412   .     A
C457   C458    1.412   .     A
C457   O518    1.385   .     S
C461   C372    1.442   1_655 S
C462   H506    1.109   .     S
C462   H505    1.115   .     S
C462   O526    1.410   .     S
C463   N509    1.362   .     A
C463   H477    1.082   .     S
C463   C474    1.406   .     A
C464   O512    1.410   .     S
C464   H478    1.109   .     S
C464   H508    1.115   .     S
C464   H419    1.110   1_655 S
C465   H480    1.115   .     S
C465   H481    1.109   .     S
C465   O513    1.409   .     S
C465   H391    1.109   1_655 S
C466   H483    1.109   .     S
C466   O514    1.409   .     S
C466   H482    1.115   .     S
C467   H485    1.109   .     S
C467   O515    1.412   .     S
C467   H486    1.111   .     S
C467   H487    1.114   .     S
C468   H491    1.114   .     S
C468   H489    1.109   .     S
C468   H490    1.110   .     S
C468   O516    1.412   .     S
C469   H494    1.114   .     S
C469   H493    1.111   .     S
C469   O517    1.413   .     S
C469   H492    1.109   .     S
C470   H497    1.114   .     S
C470   H496    1.111   .     S
C470   H495    1.109   .     S
C470   O518    1.412   .     S
C471   N510    1.363   .     A
C471   H488    1.081   .     S
C471   C475    1.406   .     A
C472   C476    1.406   .     A
C472   N509    1.362   .     A
C472   H499    1.081   .     S
C473   H503    1.081   .     S
C473   N510    1.363   .     A
C474   H498    1.082   .     S
C475   H500    1.082   .     S
C476   H501    1.082   .     S
H484   C378    1.109   1_655 S
H504   C374    1.110   1_655 S
N509   Zn528   2.004   .     S
N510   Zn527   2.004   .     S
O511   Zn527   2.008   .     S
O519   Zn528   2.008   .     S
O520   Zn527   2.008   .     S
O521   Zn528   2.008   .     S
O522   Zn527   1.948   .     S
O523   Zn528   1.948   .     S
O524   Zn527   1.947   .     S
O525   Zn528   1.947   .     S
C529   C546    1.451   .     S
C529   O599    1.287   .     A
C529   O609    1.289   .     A
C530   C534    1.410   .     A
C530   C561    1.406   .     A
C530   H590    1.082   .     S
C531   O613    1.273   .     A
C531   C535    1.363   .     S
C531   O610    1.273   .     A
C532   C536    1.363   .     S
C532   O612    1.273   .     A
C532   O611    1.273   .     A
C533   C564    1.411   .     A
C533   C562    1.411   .     A
C534   C563    1.410   .     A
C534   C357    1.513   1_565 S
C536   C887    1.164   .     S
C537   C542    1.391   .     A
C537   O614    1.385   .     S
C537   C548    1.403   .     A
C538   C543    1.392   .     A
C538   C549    1.404   .     A
C538   O600    1.385   .     S
C539   O601    1.385   .     S
C539   C549    1.403   .     A
C539   C544    1.391   .     A
C540   O608    1.287   .     A
C540   C547    1.448   .     S
C540   O607    1.288   .     A
C541   O602    1.385   .     S
C541   C548    1.402   .     A
C541   C545    1.391   .     A
C542   C546    1.412   .     A
C542   O603    1.386   .     S
C543   C547    1.410   .     A
C543   O604    1.386   .     S
C544   O605    1.385   .     S
C544   C547    1.412   .     A
C545   C546    1.412   .     A
C545   O606    1.385   .     S
C548   C637    1.442   1_455 S
C549   C636    1.442   .     S
C550   H594    1.109   .     S
C550   H593    1.115   .     S
C550   O614    1.410   .     S
C550   H680    1.110   1_455 S
C551   N597    1.362   .     A
C551   H565    1.082   .     S
C551   C562    1.406   .     A
C552   O600    1.410   .     S
C552   H566    1.109   .     S
C552   H596    1.115   .     S
C552   H683    1.110   .     S
C553   H568    1.115   .     S
C553   H569    1.109   .     S
C553   O601    1.409   .     S
C553   H655    1.109   .     S
C554   H571    1.109   .     S
C554   O602    1.409   .     S
C554   H570    1.115   .     S
C554   H660    1.109   1_455 S
C555   H573    1.109   .     S
C555   O603    1.412   .     S
C555   H574    1.111   .     S
C555   H575    1.114   .     S
C556   H579    1.114   .     S
C556   H577    1.109   .     S
C556   H578    1.110   .     S
C556   O604    1.412   .     S
C557   H582    1.114   .     S
C557   H581    1.111   .     S
C557   O605    1.413   .     S
C557   H580    1.109   .     S
C558   H585    1.114   .     S
C558   H584    1.111   .     S
C558   H583    1.109   .     S
C558   O606    1.412   .     S
C559   N598    1.363   .     A
C559   H576    1.081   .     S
C559   C563    1.406   .     A
C560   C564    1.406   .     A
C560   N597    1.362   .     A
C560   H587    1.081   .     S
C561   H591    1.081   .     S
C561   N598    1.363   .     A
C562   H586    1.082   .     S
C563   H588    1.082   .     S
C564   H589    1.082   .     S
H567   C641    1.109   1_455 S
H572   C642    1.109   .     S
H592   C638    1.110   .     S
H595   C640    1.110   1_455 S
N597   Zn616   2.004   .     S
N598   Zn615   2.004   .     S
O599   Zn615   2.008   .     S
O607   Zn616   2.008   .     S
O608   Zn615   2.008   .     S
O609   Zn616   2.008   .     S
O610   Zn615   1.948   .     S
O611   Zn616   1.948   .     S
O612   Zn615   1.947   .     S
O613   Zn616   1.947   .     S
C617   C634    1.451   .     S
C617   O687    1.287   .     A
C617   O697    1.289   .     A
C618   C622    1.410   .     A
C618   C649    1.406   .     A
C618   H678    1.082   .     S
C619   O701    1.273   .     A
C619   C623    1.363   .     S
C619   O698    1.273   .     A
C620   C624    1.363   .     S
C620   O700    1.273   .     A
C620   O699    1.273   .     A
C621   C652    1.411   .     A
C621   C650    1.411   .     A
C622   C651    1.410   .     A
C622   C445    1.513   1_565 S
C624   C975    1.164   .     S
C625   C630    1.391   .     A
C625   O702    1.385   .     S
C625   C636    1.403   .     A
C626   C631    1.392   .     A
C626   C637    1.404   .     A
C626   O688    1.385   .     S
C627   O689    1.385   .     S
C627   C637    1.403   .     A
C627   C632    1.391   .     A
C628   O696    1.287   .     A
C628   C635    1.448   .     S
C628   O695    1.288   .     A
C629   O690    1.385   .     S
C629   C636    1.402   .     A
C629   C633    1.391   .     A
C630   C634    1.412   .     A
C630   O691    1.386   .     S
C631   C635    1.410   .     A
C631   O692    1.386   .     S
C632   O693    1.385   .     S
C632   C635    1.412   .     A
C633   C634    1.412   .     A
C633   O694    1.385   .     S
C637   C548    1.442   1_655 S
C638   H682    1.109   .     S
C638   H681    1.115   .     S
C638   O702    1.410   .     S
C639   N685    1.362   .     A
C639   H653    1.082   .     S
C639   C650    1.406   .     A
C640   O688    1.410   .     S
C640   H654    1.109   .     S
C640   H684    1.115   .     S
C640   H595    1.110   1_655 S
C641   H656    1.115   .     S
C641   H657    1.109   .     S
C641   O689    1.409   .     S
C641   H567    1.109   1_655 S
C642   H659    1.109   .     S
C642   O690    1.409   .     S
C642   H658    1.115   .     S
C643   H661    1.109   .     S
C643   O691    1.412   .     S
C643   H662    1.111   .     S
C643   H663    1.114   .     S
C644   H667    1.114   .     S
C644   H665    1.109   .     S
C644   H666    1.110   .     S
C644   O692    1.412   .     S
C645   H670    1.114   .     S
C645   H669    1.111   .     S
C645   O693    1.413   .     S
C645   H668    1.109   .     S
C646   H673    1.114   .     S
C646   H672    1.111   .     S
C646   H671    1.109   .     S
C646   O694    1.412   .     S
C647   N686    1.363   .     A
C647   H664    1.081   .     S
C647   C651    1.406   .     A
C648   C652    1.406   .     A
C648   N685    1.362   .     A
C648   H675    1.081   .     S
C649   H679    1.081   .     S
C649   N686    1.363   .     A
C650   H674    1.082   .     S
C651   H676    1.082   .     S
C652   H677    1.082   .     S
H660   C554    1.109   1_655 S
H680   C550    1.110   1_655 S
N685   Zn704   2.004   .     S
N686   Zn703   2.004   .     S
O687   Zn703   2.008   .     S
O695   Zn704   2.008   .     S
O696   Zn703   2.008   .     S
O697   Zn704   2.008   .     S
O698   Zn703   1.948   .     S
O699   Zn704   1.948   .     S
O700   Zn703   1.947   .     S
O701   Zn704   1.947   .     S
C705   C722    1.451   .     S
C705   O775    1.287   .     A
C705   O785    1.289   .     A
C706   C710    1.410   .     A
C706   C737    1.406   .     A
C706   H766    1.082   .     S
C707   O789    1.273   .     A
C707   C711    1.363   .     S
C707   O786    1.273   .     A
C708   C712    1.363   .     S
C708   O788    1.273   .     A
C708   O787    1.273   .     A
C709   C740    1.411   .     A
C709   C738    1.411   .     A
C709   C886    1.513   1_545 S
C710   C739    1.410   .     A
C710   C885    1.513   .     S
C712   C7      1.164   1_556 S
C713   C718    1.391   .     A
C713   O790    1.385   .     S
C713   C724    1.403   .     A
C714   C719    1.392   .     A
C714   C725    1.404   .     A
C714   O776    1.385   .     S
C715   O777    1.385   .     S
C715   C725    1.403   .     A
C715   C720    1.391   .     A
C716   O784    1.287   .     A
C716   C723    1.448   .     S
C716   O783    1.288   .     A
C717   O778    1.385   .     S
C717   C724    1.402   .     A
C717   C721    1.391   .     A
C718   C722    1.412   .     A
C718   O779    1.386   .     S
C719   C723    1.410   .     A
C719   O780    1.386   .     S
C720   O781    1.385   .     S
C720   C723    1.412   .     A
C721   C722    1.412   .     A
C721   O782    1.385   .     S
C724   C813    1.442   1_455 S
C725   C812    1.442   .     S
C726   H770    1.109   .     S
C726   H769    1.115   .     S
C726   O790    1.410   .     S
C726   H856    1.110   1_455 S
C727   N773    1.362   .     A
C727   H741    1.082   .     S
C727   C738    1.406   .     A
C728   O776    1.410   .     S
C728   H742    1.109   .     S
C728   H772    1.115   .     S
C728   H859    1.110   .     S
C729   H744    1.115   .     S
C729   H745    1.109   .     S
C729   O777    1.409   .     S
C729   H831    1.109   .     S
C730   H747    1.109   .     S
C730   O778    1.409   .     S
C730   H746    1.115   .     S
C730   H836    1.109   1_455 S
C731   H749    1.109   .     S
C731   O779    1.412   .     S
C731   H750    1.111   .     S
C731   H751    1.114   .     S
C732   H755    1.114   .     S
C732   H753    1.109   .     S
C732   H754    1.110   .     S
C732   O780    1.412   .     S
C733   H758    1.114   .     S
C733   H757    1.111   .     S
C733   O781    1.413   .     S
C733   H756    1.109   .     S
C734   H761    1.114   .     S
C734   H760    1.111   .     S
C734   H759    1.109   .     S
C734   O782    1.412   .     S
C735   N774    1.363   .     A
C735   H752    1.081   .     S
C735   C739    1.406   .     A
C736   C740    1.406   .     A
C736   N773    1.362   .     A
C736   H763    1.081   .     S
C737   H767    1.081   .     S
C737   N774    1.363   .     A
C738   H762    1.082   .     S
C739   H764    1.082   .     S
C740   H765    1.082   .     S
H743   C817    1.109   1_455 S
H748   C818    1.109   .     S
H768   C814    1.110   .     S
H771   C816    1.110   1_455 S
N773   Zn792   2.004   .     S
N774   Zn791   2.004   .     S
O775   Zn791   2.008   .     S
O783   Zn792   2.008   .     S
O784   Zn791   2.008   .     S
O785   Zn792   2.008   .     S
O786   Zn791   1.948   .     S
O787   Zn792   1.948   .     S
O788   Zn791   1.947   .     S
O789   Zn792   1.947   .     S
C793   C810    1.451   .     S
C793   O863    1.287   .     A
C793   O873    1.289   .     A
C794   C798    1.410   .     A
C794   C825    1.406   .     A
C794   H854    1.082   .     S
C795   O877    1.273   .     A
C795   C799    1.363   .     S
C795   O874    1.273   .     A
C796   C800    1.363   .     S
C796   O876    1.273   .     A
C796   O875    1.273   .     A
C797   C828    1.411   .     A
C797   C826    1.411   .     A
C797   C974    1.513   1_545 S
C798   C827    1.410   .     A
C798   C973    1.513   .     S
C800   C95     1.164   1_556 S
C801   C806    1.391   .     A
C801   O878    1.385   .     S
C801   C812    1.403   .     A
C802   C807    1.392   .     A
C802   C813    1.404   .     A
C802   O864    1.385   .     S
C803   O865    1.385   .     S
C803   C813    1.403   .     A
C803   C808    1.391   .     A
C804   O872    1.287   .     A
C804   C811    1.448   .     S
C804   O871    1.288   .     A
C805   O866    1.385   .     S
C805   C812    1.402   .     A
C805   C809    1.391   .     A
C806   C810    1.412   .     A
C806   O867    1.386   .     S
C807   C811    1.410   .     A
C807   O868    1.386   .     S
C808   O869    1.385   .     S
C808   C811    1.412   .     A
C809   C810    1.412   .     A
C809   O870    1.385   .     S
C813   C724    1.442   1_655 S
C814   H858    1.109   .     S
C814   H857    1.115   .     S
C814   O878    1.410   .     S
C815   N861    1.362   .     A
C815   H829    1.082   .     S
C815   C826    1.406   .     A
C816   O864    1.410   .     S
C816   H830    1.109   .     S
C816   H860    1.115   .     S
C816   H771    1.110   1_655 S
C817   H832    1.115   .     S
C817   H833    1.109   .     S
C817   O865    1.409   .     S
C817   H743    1.109   1_655 S
C818   H835    1.109   .     S
C818   O866    1.409   .     S
C818   H834    1.115   .     S
C819   H837    1.109   .     S
C819   O867    1.412   .     S
C819   H838    1.111   .     S
C819   H839    1.114   .     S
C820   H843    1.114   .     S
C820   H841    1.109   .     S
C820   H842    1.110   .     S
C820   O868    1.412   .     S
C821   H846    1.114   .     S
C821   H845    1.111   .     S
C821   O869    1.413   .     S
C821   H844    1.109   .     S
C822   H849    1.114   .     S
C822   H848    1.111   .     S
C822   H847    1.109   .     S
C822   O870    1.412   .     S
C823   N862    1.363   .     A
C823   H840    1.081   .     S
C823   C827    1.406   .     A
C824   C828    1.406   .     A
C824   N861    1.362   .     A
C824   H851    1.081   .     S
C825   H855    1.081   .     S
C825   N862    1.363   .     A
C826   H850    1.082   .     S
C827   H852    1.082   .     S
C828   H853    1.082   .     S
H836   C730    1.109   1_655 S
H856   C726    1.110   1_655 S
N861   Zn880   2.004   .     S
N862   Zn879   2.004   .     S
O863   Zn879   2.008   .     S
O871   Zn880   2.008   .     S
O872   Zn879   2.008   .     S
O873   Zn880   2.008   .     S
O874   Zn879   1.948   .     S
O875   Zn880   1.948   .     S
O876   Zn879   1.947   .     S
O877   Zn880   1.947   .     S
C881   C898    1.451   .     S
C881   O951    1.287   .     A
C881   O961    1.289   .     A
C882   C886    1.410   .     A
C882   C913    1.406   .     A
C882   H942    1.082   .     S
C883   O965    1.273   .     A
C883   C887    1.363   .     S
C883   O962    1.273   .     A
C884   C888    1.363   .     S
C884   O964    1.273   .     A
C884   O963    1.273   .     A
C885   C916    1.411   .     A
C885   C914    1.411   .     A
C886   C915    1.410   .     A
C886   C709    1.513   1_565 S
C888   C183    1.164   1_556 S
C889   C894    1.391   .     A
C889   O966    1.385   .     S
C889   C900    1.403   .     A
C890   C895    1.392   .     A
C890   C901    1.404   .     A
C890   O952    1.385   .     S
C891   O953    1.385   .     S
C891   C901    1.403   .     A
C891   C896    1.391   .     A
C892   O960    1.287   .     A
C892   C899    1.448   .     S
C892   O959    1.288   .     A
C893   O954    1.385   .     S
C893   C900    1.402   .     A
C893   C897    1.391   .     A
C894   C898    1.412   .     A
C894   O955    1.386   .     S
C895   C899    1.410   .     A
C895   O956    1.386   .     S
C896   O957    1.385   .     S
C896   C899    1.412   .     A
C897   C898    1.412   .     A
C897   O958    1.385   .     S
C900   C989    1.442   1_455 S
C901   C988    1.442   .     S
C902   H946    1.109   .     S
C902   H945    1.115   .     S
C902   O966    1.410   .     S
C902   H1032   1.110   1_455 S
C903   N949    1.362   .     A
C903   H917    1.082   .     S
C903   C914    1.406   .     A
C904   O952    1.410   .     S
C904   H918    1.109   .     S
C904   H948    1.115   .     S
C904   H1035   1.110   .     S
C905   H920    1.115   .     S
C905   H921    1.109   .     S
C905   O953    1.409   .     S
C905   H1007   1.109   .     S
C906   H923    1.109   .     S
C906   O954    1.409   .     S
C906   H922    1.115   .     S
C906   H1012   1.109   1_455 S
C907   H925    1.109   .     S
C907   O955    1.412   .     S
C907   H926    1.111   .     S
C907   H927    1.114   .     S
C908   H931    1.114   .     S
C908   H929    1.109   .     S
C908   H930    1.110   .     S
C908   O956    1.412   .     S
C909   H934    1.114   .     S
C909   H933    1.111   .     S
C909   O957    1.413   .     S
C909   H932    1.109   .     S
C910   H937    1.114   .     S
C910   H936    1.111   .     S
C910   H935    1.109   .     S
C910   O958    1.412   .     S
C911   N950    1.363   .     A
C911   H928    1.081   .     S
C911   C915    1.406   .     A
C912   C916    1.406   .     A
C912   N949    1.362   .     A
C912   H939    1.081   .     S
C913   H943    1.081   .     S
C913   N950    1.363   .     A
C914   H938    1.082   .     S
C915   H940    1.082   .     S
C916   H941    1.082   .     S
H919   C993    1.109   1_455 S
H924   C994    1.109   .     S
H944   C990    1.110   .     S
H947   C992    1.110   1_455 S
N949   Zn968   2.004   .     S
N950   Zn967   2.004   .     S
O951   Zn967   2.008   .     S
O959   Zn968   2.008   .     S
O960   Zn967   2.008   .     S
O961   Zn968   2.008   .     S
O962   Zn967   1.948   .     S
O963   Zn968   1.948   .     S
O964   Zn967   1.947   .     S
O965   Zn968   1.947   .     S
C969   C986    1.451   .     S
C969   O1039   1.287   .     A
C969   O1049   1.289   .     A
C970   C974    1.410   .     A
C970   C1001   1.406   .     A
C970   H1030   1.082   .     S
C971   O1053   1.273   .     A
C971   C975    1.363   .     S
C971   O1050   1.273   .     A
C972   C976    1.363   .     S
C972   O1052   1.273   .     A
C972   O1051   1.273   .     A
C973   C1004   1.411   .     A
C973   C1002   1.411   .     A
C974   C1003   1.410   .     A
C974   C797    1.513   1_565 S
C976   C271    1.164   1_556 S
C977   C982    1.391   .     A
C977   O1054   1.385   .     S
C977   C988    1.403   .     A
C978   C983    1.392   .     A
C978   C989    1.404   .     A
C978   O1040   1.385   .     S
C979   O1041   1.385   .     S
C979   C989    1.403   .     A
C979   C984    1.391   .     A
C980   O1048   1.287   .     A
C980   C987    1.448   .     S
C980   O1047   1.288   .     A
C981   O1042   1.385   .     S
C981   C988    1.402   .     A
C981   C985    1.391   .     A
C982   C986    1.412   .     A
C982   O1043   1.386   .     S
C983   C987    1.410   .     A
C983   O1044   1.386   .     S
C984   O1045   1.385   .     S
C984   C987    1.412   .     A
C985   C986    1.412   .     A
C985   O1046   1.385   .     S
C989   C900    1.442   1_655 S
C990   H1034   1.109   .     S
C990   H1033   1.115   .     S
C990   O1054   1.410   .     S
C991   N1037   1.362   .     A
C991   H1005   1.082   .     S
C991   C1002   1.406   .     A
C992   O1040   1.410   .     S
C992   H1006   1.109   .     S
C992   H1036   1.115   .     S
C992   H947    1.110   1_655 S
C993   H1008   1.115   .     S
C993   H1009   1.109   .     S
C993   O1041   1.409   .     S
C993   H919    1.109   1_655 S
C994   H1011   1.109   .     S
C994   O1042   1.409   .     S
C994   H1010   1.115   .     S
C995   H1013   1.109   .     S
C995   O1043   1.412   .     S
C995   H1014   1.111   .     S
C995   H1015   1.114   .     S
C996   H1019   1.114   .     S
C996   H1017   1.109   .     S
C996   H1018   1.110   .     S
C996   O1044   1.412   .     S
C997   H1022   1.114   .     S
C997   H1021   1.111   .     S
C997   O1045   1.413   .     S
C997   H1020   1.109   .     S
C998   H1025   1.114   .     S
C998   H1024   1.111   .     S
C998   H1023   1.109   .     S
C998   O1046   1.412   .     S
C999   N1038   1.363   .     A
C999   H1016   1.081   .     S
C999   C1003   1.406   .     A
C1000  C1004   1.406   .     A
C1000  N1037   1.362   .     A
C1000  H1027   1.081   .     S
C1001  H1031   1.081   .     S
C1001  N1038   1.363   .     A
C1002  H1026   1.082   .     S
C1003  H1028   1.082   .     S
C1004  H1029   1.082   .     S
H1012  C906    1.109   1_655 S
H1032  C902    1.110   1_655 S
N1037  Zn1056  2.004   .     S
N1038  Zn1055  2.004   .     S
O1039  Zn1055  2.008   .     S
O1047  Zn1056  2.008   .     S
O1048  Zn1055  2.008   .     S
O1049  Zn1056  2.008   .     S
O1050  Zn1055  1.948   .     S
O1051  Zn1056  1.948   .     S
O1052  Zn1055  1.947   .     S
O1053  Zn1056  1.947   .     S
