data_str_m3_o2_o10_pcu_sym.121
_audit_creation_date              2020-01-03
_audit_creation_method            'Materials Studio'
_symmetry_space_group_name_H-M    'P1'
_symmetry_Int_Tables_number       1
_symmetry_cell_setting            triclinic
loop_
_symmetry_equiv_pos_as_xyz
  x,y,z
_cell_length_a                    25.7802
_cell_length_b                    30.0254
_cell_length_c                    28.3560
_cell_angle_alpha                 91.1934
_cell_angle_beta                  98.2566
_cell_angle_gamma                 89.8993
loop_
_atom_site_label
_atom_site_type_symbol
_atom_site_fract_x
_atom_site_fract_y
_atom_site_fract_z
_atom_site_U_iso_or_equiv
_atom_site_adp_type
_atom_site_occupancy
C1     C     0.16785   0.16411   0.24964   0.00000  Uiso   1.00
C2     C     0.16434   0.33622   0.25013   0.00000  Uiso   1.00
C3     C     0.11980   0.23969   0.04589   0.00000  Uiso   1.00
C4     C     0.18908   0.28605   0.45143   0.00000  Uiso   1.00
C5     C     0.12132   0.24109   0.09605   0.00000  Uiso   1.00
C6     C     0.18935   0.28449   0.40138   0.00000  Uiso   1.00
C7     C     0.21182   0.25712   0.10781   0.00000  Uiso   1.00
C8     C     0.14652   0.21462   0.39427   0.00000  Uiso   1.00
C9     C     0.21271   0.25586   0.05842   0.00000  Uiso   1.00
C10    C     0.14800   0.21315   0.44382   0.00000  Uiso   1.00
C11    C     0.16655   0.24797   0.02637   0.00000  Uiso   1.00
C12    C     0.16803   0.24927   0.47332   0.00000  Uiso   1.00
C13    C     0.06723   0.25078   0.23786   0.00000  Uiso   1.00
C14    C     0.26618   0.25020   0.26230   0.00000  Uiso   1.00
C15    C     0.01289   0.25568   0.23210   0.00000  Uiso   1.00
C16    C     0.32077   0.24716   0.26881   0.00000  Uiso   1.00
C17    C     0.13333   0.04824   0.27003   0.00000  Uiso   1.00
C18    C     0.17611   0.45345   0.21385   0.00000  Uiso   1.00
C19    C     0.13220   0.09379   0.26920   0.00000  Uiso   1.00
C20    C     0.17392   0.40785   0.21174   0.00000  Uiso   1.00
C21    C     0.17030   0.11646   0.24902   0.00000  Uiso   1.00
C22    C     0.16146   0.38456   0.25093   0.00000  Uiso   1.00
C23    C     0.21120   0.09367   0.23060   0.00000  Uiso   1.00
C24    C     0.14802   0.40787   0.29143   0.00000  Uiso   1.00
C25    C     0.21571   0.04734   0.23648   0.00000  Uiso   1.00
C26    C     0.15954   0.45365   0.29654   0.00000  Uiso   1.00
C27    C     0.17567   0.02481   0.25609   0.00000  Uiso   1.00
C28    C     0.17284   0.47634   0.25662   0.00000  Uiso   1.00
H29    H     0.10058   0.03117   0.28149   0.00000  Uiso   1.00
H30    H     0.18155   0.47092   0.18193   0.00000  Uiso   1.00
H31    H     0.24762   0.26375   0.13128   0.00000  Uiso   1.00
H32    H     0.12972   0.18701   0.37217   0.00000  Uiso   1.00
H33    H     0.24954   0.26135   0.04523   0.00000  Uiso   1.00
H34    H     0.13274   0.18402   0.45906   0.00000  Uiso   1.00
N35    N     0.16667   0.24999   0.12624   0.00000  Uiso   1.00
N36    N     0.16667   0.25001   0.37377   0.00000  Uiso   1.00
O37    O     0.16667   0.18453   0.28974   0.00000  Uiso   1.00
O38    O     0.16666   0.31546   0.21026   0.00000  Uiso   1.00
O39    O     0.16667   0.18453   0.21026   0.00000  Uiso   1.00
O40    O     0.16666   0.31547   0.28974   0.00000  Uiso   1.00
O41    O     0.09058   0.25000   0.28045   0.00000  Uiso   1.00
O42    O     0.24275   0.25000   0.21956   0.00000  Uiso   1.00
O43    O     0.09058   0.24999   0.20097   0.00000  Uiso   1.00
O44    O     0.24275   0.25000   0.29904   0.00000  Uiso   1.00
Zn45   Zn    0.16667   0.25000   0.30307   0.00000  Uiso   1.00
Zn46   Zn    0.16667   0.24999   0.19693   0.00000  Uiso   1.00
F47    F     0.32274   0.27171   0.18981   0.00000  Uiso   1.00
F48    F     0.01127   0.23256   0.31184   0.00000  Uiso   1.00
F49    F     0.09285   0.11578   0.28685   0.00000  Uiso   1.00
F50    F     0.18332   0.38690   0.17089   0.00000  Uiso   1.00
C51    C     0.24837   0.11786   0.20483   0.00000  Uiso   1.00
C52    C     0.23268   0.12992   0.15728   0.00000  Uiso   1.00
C53    C     0.26797   0.15073   0.13178   0.00000  Uiso   1.00
C54    C     0.31918   0.15933   0.15343   0.00000  Uiso   1.00
C55    C     0.00178   0.14734   0.20064   0.00000  Uiso   1.00
C56    C     0.29985   0.12671   0.22646   0.00000  Uiso   1.00
H57    H     0.19326   0.12281   0.13993   0.00000  Uiso   1.00
H58    H     0.25575   0.15991   0.09515   0.00000  Uiso   1.00
H59    H     0.01320   0.17513   0.13357   0.00000  Uiso   1.00
H60    H     0.04147   0.15421   0.21710   0.00000  Uiso   1.00
H61    H     0.31265   0.11729   0.26294   0.00000  Uiso   1.00
C62    C     0.11322   0.38665   0.32223   0.00000  Uiso   1.00
C63    C     0.06414   0.37004   0.30099   0.00000  Uiso   1.00
C64    C     0.02902   0.35254   0.32895   0.00000  Uiso   1.00
C65    C     0.04242   0.35158   0.37835   0.00000  Uiso   1.00
C66    C     0.09114   0.36755   0.39977   0.00000  Uiso   1.00
C67    C     0.12683   0.38449   0.37193   0.00000  Uiso   1.00
H68    H     0.05269   0.37142   0.26276   0.00000  Uiso   1.00
H69    H     0.32446   0.34035   0.31239   0.00000  Uiso   1.00
H70    H     0.01489   0.33884   0.40007   0.00000  Uiso   1.00
H71    H     0.10086   0.36726   0.43803   0.00000  Uiso   1.00
H72    H     0.16448   0.39663   0.38919   0.00000  Uiso   1.00
C73    C     0.26140   0.02281   0.22188   0.00000  Uiso   1.00
C74    C     0.29692   0.00103   0.25601   0.00000  Uiso   1.00
C75    C     0.00576   0.47721   0.24213   0.00000  Uiso   1.00
C76    C     0.01319   0.47532   0.19432   0.00000  Uiso   1.00
C77    C     0.31143   0.49688   0.16011   0.00000  Uiso   1.00
C78    C     0.26892   0.02038   0.17371   0.00000  Uiso   1.00
H79    H     0.29202   0.00256   0.29323   0.00000  Uiso   1.00
H80    H     0.03272   0.46012   0.26833   0.00000  Uiso   1.00
H81    H     0.04601   0.45698   0.18379   0.00000  Uiso   1.00
H82    H     0.31692   0.49512   0.12299   0.00000  Uiso   1.00
H83    H     0.24142   0.03606   0.14664   0.00000  Uiso   1.00
C84    C     0.16051   0.47718   0.34343   0.00000  Uiso   1.00
C85    C     0.20881   0.49033   0.36929   0.00000  Uiso   1.00
C86    C     0.21074   0.01229   0.41346   0.00000  Uiso   1.00
C87    C     0.16447   0.02131   0.43218   0.00000  Uiso   1.00
C88    C     0.11621   0.00831   0.40677   0.00000  Uiso   1.00
C89    C     0.11413   0.48632   0.36261   0.00000  Uiso   1.00
H90    H     0.24498   0.48310   0.35551   0.00000  Uiso   1.00
H91    H     0.24813   0.02221   0.43326   0.00000  Uiso   1.00
H92    H     0.16603   0.03828   0.46640   0.00000  Uiso   1.00
H93    H     0.08039   0.01520   0.42134   0.00000  Uiso   1.00
H94    H     0.07648   0.47633   0.34358   0.00000  Uiso   1.00
C95    C     0.06908   0.22899   0.01545   0.00000  Uiso   1.00
C96    C     0.04814   0.25679   0.47809   0.00000  Uiso   1.00
C97    C     0.00158   0.24504   0.44876   0.00000  Uiso   1.00
C98    C     0.30770   0.20666   0.45756   0.00000  Uiso   1.00
C99    C     0.32751   0.17933   0.49515   0.00000  Uiso   1.00
C100   C     0.04150   0.19013   0.02366   0.00000  Uiso   1.00
H101   H     0.06815   0.28710   0.47118   0.00000  Uiso   1.00
H102   H     0.31984   0.26556   0.41902   0.00000  Uiso   1.00
H103   H     0.27141   0.19798   0.43510   0.00000  Uiso   1.00
H104   H     0.30650   0.14948   0.00187   0.00000  Uiso   1.00
H105   H     0.05688   0.16793   0.05191   0.00000  Uiso   1.00
C106   C     0.20890   0.32676   0.47937   0.00000  Uiso   1.00
C107   C     0.17813   0.34857   0.00999   0.00000  Uiso   1.00
C108   C     0.19679   0.38674   0.03602   0.00000  Uiso   1.00
C109   C     0.24625   0.40371   0.03172   0.00000  Uiso   1.00
C110   C     0.27710   0.38252   0.00138   0.00000  Uiso   1.00
C111   C     0.25858   0.34431   0.47536   0.00000  Uiso   1.00
H112   H     0.13952   0.33624   0.01362   0.00000  Uiso   1.00
H113   H     0.17284   0.40321   0.05948   0.00000  Uiso   1.00
H114   H     0.26064   0.43328   0.05189   0.00000  Uiso   1.00
H115   H     0.31545   0.39565   0.49804   0.00000  Uiso   1.00
H116   H     0.28321   0.32837   0.45236   0.00000  Uiso   1.00
F117   F     0.07639   0.23416   0.11420   0.00000  Uiso   1.00
F118   F     0.21195   0.31786   0.38009   0.00000  Uiso   1.00
C119   C     0.50118   0.16411   0.24964   0.00000  Uiso   1.00
C120   C     0.49767   0.33622   0.25013   0.00000  Uiso   1.00
C121   C     0.45313   0.23969   0.04589   0.00000  Uiso   1.00
C122   C     0.52242   0.28605   0.45143   0.00000  Uiso   1.00
C123   C     0.45465   0.24109   0.09605   0.00000  Uiso   1.00
C124   C     0.52268   0.28449   0.40138   0.00000  Uiso   1.00
C125   C     0.54515   0.25712   0.10781   0.00000  Uiso   1.00
C126   C     0.47986   0.21462   0.39427   0.00000  Uiso   1.00
C127   C     0.54605   0.25586   0.05842   0.00000  Uiso   1.00
C128   C     0.48133   0.21315   0.44382   0.00000  Uiso   1.00
C129   C     0.49988   0.24797   0.02637   0.00000  Uiso   1.00
C130   C     0.50136   0.24927   0.47332   0.00000  Uiso   1.00
C131   C     0.40056   0.25078   0.23786   0.00000  Uiso   1.00
C132   C     0.59951   0.25020   0.26230   0.00000  Uiso   1.00
C133   C     0.34623   0.25568   0.23210   0.00000  Uiso   1.00
C134   C     0.65411   0.24716   0.26881   0.00000  Uiso   1.00
C135   C     0.46666   0.04824   0.27003   0.00000  Uiso   1.00
C136   C     0.50944   0.45345   0.21385   0.00000  Uiso   1.00
C137   C     0.46553   0.09379   0.26920   0.00000  Uiso   1.00
C138   C     0.50725   0.40785   0.21174   0.00000  Uiso   1.00
C139   C     0.50363   0.11646   0.24902   0.00000  Uiso   1.00
C140   C     0.49479   0.38456   0.25093   0.00000  Uiso   1.00
C141   C     0.54453   0.09367   0.23060   0.00000  Uiso   1.00
C142   C     0.48135   0.40787   0.29143   0.00000  Uiso   1.00
C143   C     0.54904   0.04734   0.23648   0.00000  Uiso   1.00
C144   C     0.49287   0.45365   0.29654   0.00000  Uiso   1.00
C145   C     0.50901   0.02481   0.25609   0.00000  Uiso   1.00
C146   C     0.50617   0.47634   0.25662   0.00000  Uiso   1.00
H147   H     0.43391   0.03117   0.28149   0.00000  Uiso   1.00
H148   H     0.51488   0.47092   0.18193   0.00000  Uiso   1.00
H149   H     0.58095   0.26375   0.13128   0.00000  Uiso   1.00
H150   H     0.46305   0.18701   0.37217   0.00000  Uiso   1.00
H151   H     0.58287   0.26135   0.04523   0.00000  Uiso   1.00
H152   H     0.46607   0.18402   0.45906   0.00000  Uiso   1.00
N153   N     0.50000   0.24999   0.12624   0.00000  Uiso   1.00
N154   N     0.50000   0.25001   0.37377   0.00000  Uiso   1.00
O155   O     0.50000   0.18453   0.28974   0.00000  Uiso   1.00
O156   O     0.50000   0.31546   0.21026   0.00000  Uiso   1.00
O157   O     0.50000   0.18453   0.21026   0.00000  Uiso   1.00
O158   O     0.50000   0.31547   0.28974   0.00000  Uiso   1.00
O159   O     0.42392   0.25000   0.28045   0.00000  Uiso   1.00
O160   O     0.57608   0.25000   0.21956   0.00000  Uiso   1.00
O161   O     0.42392   0.24999   0.20097   0.00000  Uiso   1.00
O162   O     0.57608   0.25000   0.29904   0.00000  Uiso   1.00
Zn163  Zn    0.50000   0.25000   0.30307   0.00000  Uiso   1.00
Zn164  Zn    0.50000   0.24999   0.19693   0.00000  Uiso   1.00
F165   F     0.65607   0.27171   0.18981   0.00000  Uiso   1.00
F166   F     0.34460   0.23256   0.31184   0.00000  Uiso   1.00
F167   F     0.42619   0.11578   0.28685   0.00000  Uiso   1.00
F168   F     0.51665   0.38690   0.17089   0.00000  Uiso   1.00
C169   C     0.58170   0.11786   0.20483   0.00000  Uiso   1.00
C170   C     0.56602   0.12992   0.15728   0.00000  Uiso   1.00
C171   C     0.60131   0.15073   0.13178   0.00000  Uiso   1.00
C172   C     0.65251   0.15933   0.15343   0.00000  Uiso   1.00
C173   C     0.33511   0.14734   0.20064   0.00000  Uiso   1.00
C174   C     0.63318   0.12671   0.22646   0.00000  Uiso   1.00
H175   H     0.52659   0.12281   0.13993   0.00000  Uiso   1.00
H176   H     0.58908   0.15991   0.09515   0.00000  Uiso   1.00
H177   H     0.34654   0.17513   0.13357   0.00000  Uiso   1.00
H178   H     0.37481   0.15421   0.21710   0.00000  Uiso   1.00
H179   H     0.64598   0.11729   0.26294   0.00000  Uiso   1.00
C180   C     0.44655   0.38665   0.32223   0.00000  Uiso   1.00
C181   C     0.39747   0.37004   0.30099   0.00000  Uiso   1.00
C182   C     0.36235   0.35254   0.32895   0.00000  Uiso   1.00
C183   C     0.37575   0.35158   0.37835   0.00000  Uiso   1.00
C184   C     0.42448   0.36755   0.39977   0.00000  Uiso   1.00
C185   C     0.46016   0.38449   0.37193   0.00000  Uiso   1.00
H186   H     0.38603   0.37142   0.26276   0.00000  Uiso   1.00
H187   H     0.65779   0.34035   0.31239   0.00000  Uiso   1.00
H188   H     0.34822   0.33884   0.40007   0.00000  Uiso   1.00
H189   H     0.43419   0.36726   0.43803   0.00000  Uiso   1.00
H190   H     0.49782   0.39663   0.38919   0.00000  Uiso   1.00
C191   C     0.59473   0.02281   0.22188   0.00000  Uiso   1.00
C192   C     0.63026   0.00103   0.25601   0.00000  Uiso   1.00
C193   C     0.33909   0.47721   0.24213   0.00000  Uiso   1.00
C194   C     0.34652   0.47532   0.19432   0.00000  Uiso   1.00
C195   C     0.64476   0.49688   0.16011   0.00000  Uiso   1.00
C196   C     0.60225   0.02038   0.17371   0.00000  Uiso   1.00
H197   H     0.62535   0.00256   0.29323   0.00000  Uiso   1.00
H198   H     0.36606   0.46012   0.26833   0.00000  Uiso   1.00
H199   H     0.37934   0.45698   0.18379   0.00000  Uiso   1.00
H200   H     0.65025   0.49512   0.12299   0.00000  Uiso   1.00
H201   H     0.57475   0.03606   0.14664   0.00000  Uiso   1.00
C202   C     0.49385   0.47718   0.34343   0.00000  Uiso   1.00
C203   C     0.54215   0.49033   0.36929   0.00000  Uiso   1.00
C204   C     0.54407   0.01229   0.41346   0.00000  Uiso   1.00
C205   C     0.49781   0.02131   0.43218   0.00000  Uiso   1.00
C206   C     0.44955   0.00831   0.40677   0.00000  Uiso   1.00
C207   C     0.44746   0.48632   0.36261   0.00000  Uiso   1.00
H208   H     0.57831   0.48310   0.35551   0.00000  Uiso   1.00
H209   H     0.58146   0.02221   0.43326   0.00000  Uiso   1.00
H210   H     0.49937   0.03828   0.46640   0.00000  Uiso   1.00
H211   H     0.41373   0.01520   0.42134   0.00000  Uiso   1.00
H212   H     0.40981   0.47633   0.34358   0.00000  Uiso   1.00
C213   C     0.40242   0.22899   0.01545   0.00000  Uiso   1.00
C214   C     0.38148   0.25679   0.47809   0.00000  Uiso   1.00
C215   C     0.33492   0.24504   0.44876   0.00000  Uiso   1.00
C216   C     0.64104   0.20666   0.45756   0.00000  Uiso   1.00
C217   C     0.66084   0.17933   0.49515   0.00000  Uiso   1.00
C218   C     0.37483   0.19013   0.02366   0.00000  Uiso   1.00
H219   H     0.40148   0.28710   0.47118   0.00000  Uiso   1.00
H220   H     0.65318   0.26556   0.41902   0.00000  Uiso   1.00
H221   H     0.60474   0.19798   0.43510   0.00000  Uiso   1.00
H222   H     0.63983   0.14948   0.00187   0.00000  Uiso   1.00
H223   H     0.39021   0.16793   0.05191   0.00000  Uiso   1.00
C224   C     0.54223   0.32676   0.47937   0.00000  Uiso   1.00
C225   C     0.51146   0.34857   0.00999   0.00000  Uiso   1.00
C226   C     0.53013   0.38674   0.03602   0.00000  Uiso   1.00
C227   C     0.57958   0.40371   0.03172   0.00000  Uiso   1.00
C228   C     0.61043   0.38252   0.00138   0.00000  Uiso   1.00
C229   C     0.59192   0.34431   0.47536   0.00000  Uiso   1.00
H230   H     0.47286   0.33624   0.01362   0.00000  Uiso   1.00
H231   H     0.50617   0.40321   0.05948   0.00000  Uiso   1.00
H232   H     0.59397   0.43328   0.05189   0.00000  Uiso   1.00
H233   H     0.64878   0.39565   0.49804   0.00000  Uiso   1.00
H234   H     0.61654   0.32837   0.45236   0.00000  Uiso   1.00
F235   F     0.40972   0.23416   0.11420   0.00000  Uiso   1.00
F236   F     0.54529   0.31786   0.38009   0.00000  Uiso   1.00
C237   C     0.83451   0.16411   0.24964   0.00000  Uiso   1.00
C238   C     0.83100   0.33622   0.25013   0.00000  Uiso   1.00
C239   C     0.78646   0.23969   0.04589   0.00000  Uiso   1.00
C240   C     0.85575   0.28605   0.45143   0.00000  Uiso   1.00
C241   C     0.78798   0.24109   0.09605   0.00000  Uiso   1.00
C242   C     0.85602   0.28449   0.40138   0.00000  Uiso   1.00
C243   C     0.87849   0.25712   0.10781   0.00000  Uiso   1.00
C244   C     0.81319   0.21462   0.39427   0.00000  Uiso   1.00
C245   C     0.87938   0.25586   0.05842   0.00000  Uiso   1.00
C246   C     0.81467   0.21315   0.44382   0.00000  Uiso   1.00
C247   C     0.83322   0.24797   0.02637   0.00000  Uiso   1.00
C248   C     0.83470   0.24927   0.47332   0.00000  Uiso   1.00
C249   C     0.73389   0.25078   0.23786   0.00000  Uiso   1.00
C250   C     0.93284   0.25020   0.26230   0.00000  Uiso   1.00
C251   C     0.67956   0.25568   0.23210   0.00000  Uiso   1.00
C252   C     0.98744   0.24716   0.26881   0.00000  Uiso   1.00
C253   C     0.80000   0.04824   0.27003   0.00000  Uiso   1.00
C254   C     0.84278   0.45345   0.21385   0.00000  Uiso   1.00
C255   C     0.79887   0.09379   0.26920   0.00000  Uiso   1.00
C256   C     0.84059   0.40785   0.21174   0.00000  Uiso   1.00
C257   C     0.83697   0.11646   0.24902   0.00000  Uiso   1.00
C258   C     0.82812   0.38456   0.25093   0.00000  Uiso   1.00
C259   C     0.87786   0.09367   0.23060   0.00000  Uiso   1.00
C260   C     0.81468   0.40787   0.29143   0.00000  Uiso   1.00
C261   C     0.88237   0.04734   0.23648   0.00000  Uiso   1.00
C262   C     0.82621   0.45365   0.29654   0.00000  Uiso   1.00
C263   C     0.84234   0.02481   0.25609   0.00000  Uiso   1.00
C264   C     0.83951   0.47634   0.25662   0.00000  Uiso   1.00
H265   H     0.76725   0.03117   0.28149   0.00000  Uiso   1.00
H266   H     0.84822   0.47092   0.18193   0.00000  Uiso   1.00
H267   H     0.91428   0.26375   0.13128   0.00000  Uiso   1.00
H268   H     0.79638   0.18701   0.37217   0.00000  Uiso   1.00
H269   H     0.91621   0.26135   0.04523   0.00000  Uiso   1.00
H270   H     0.79941   0.18402   0.45906   0.00000  Uiso   1.00
N271   N     0.83333   0.24999   0.12624   0.00000  Uiso   1.00
N272   N     0.83333   0.25001   0.37377   0.00000  Uiso   1.00
O273   O     0.83334   0.18453   0.28974   0.00000  Uiso   1.00
O274   O     0.83333   0.31546   0.21026   0.00000  Uiso   1.00
O275   O     0.83334   0.18453   0.21026   0.00000  Uiso   1.00
O276   O     0.83333   0.31547   0.28974   0.00000  Uiso   1.00
O277   O     0.75725   0.25000   0.28045   0.00000  Uiso   1.00
O278   O     0.90942   0.25000   0.21956   0.00000  Uiso   1.00
O279   O     0.75725   0.24999   0.20097   0.00000  Uiso   1.00
O280   O     0.90942   0.25000   0.29904   0.00000  Uiso   1.00
Zn281  Zn    0.83333   0.25000   0.30307   0.00000  Uiso   1.00
Zn282  Zn    0.83333   0.24999   0.19693   0.00000  Uiso   1.00
F283   F     0.98941   0.27171   0.18981   0.00000  Uiso   1.00
F284   F     0.67794   0.23256   0.31184   0.00000  Uiso   1.00
F285   F     0.75952   0.11578   0.28685   0.00000  Uiso   1.00
F286   F     0.84999   0.38690   0.17089   0.00000  Uiso   1.00
C287   C     0.91503   0.11786   0.20483   0.00000  Uiso   1.00
C288   C     0.89935   0.12992   0.15728   0.00000  Uiso   1.00
C289   C     0.93464   0.15073   0.13178   0.00000  Uiso   1.00
C290   C     0.98584   0.15933   0.15343   0.00000  Uiso   1.00
C291   C     0.66844   0.14734   0.20064   0.00000  Uiso   1.00
C292   C     0.96651   0.12671   0.22646   0.00000  Uiso   1.00
H293   H     0.85992   0.12281   0.13993   0.00000  Uiso   1.00
H294   H     0.92241   0.15991   0.09515   0.00000  Uiso   1.00
H295   H     0.67987   0.17513   0.13357   0.00000  Uiso   1.00
H296   H     0.70814   0.15421   0.21710   0.00000  Uiso   1.00
H297   H     0.97932   0.11729   0.26294   0.00000  Uiso   1.00
C298   C     0.77988   0.38665   0.32223   0.00000  Uiso   1.00
C299   C     0.73081   0.37004   0.30099   0.00000  Uiso   1.00
C300   C     0.69569   0.35254   0.32895   0.00000  Uiso   1.00
C301   C     0.70908   0.35158   0.37835   0.00000  Uiso   1.00
C302   C     0.75781   0.36755   0.39977   0.00000  Uiso   1.00
C303   C     0.79349   0.38449   0.37193   0.00000  Uiso   1.00
H304   H     0.71936   0.37142   0.26276   0.00000  Uiso   1.00
H305   H     0.99112   0.34035   0.31239   0.00000  Uiso   1.00
H306   H     0.68156   0.33884   0.40007   0.00000  Uiso   1.00
H307   H     0.76752   0.36726   0.43803   0.00000  Uiso   1.00
H308   H     0.83115   0.39663   0.38919   0.00000  Uiso   1.00
C309   C     0.92806   0.02281   0.22188   0.00000  Uiso   1.00
C310   C     0.96359   0.00103   0.25601   0.00000  Uiso   1.00
C311   C     0.67243   0.47721   0.24213   0.00000  Uiso   1.00
C312   C     0.67986   0.47532   0.19432   0.00000  Uiso   1.00
C313   C     0.97809   0.49688   0.16011   0.00000  Uiso   1.00
C314   C     0.93559   0.02038   0.17371   0.00000  Uiso   1.00
H315   H     0.95868   0.00256   0.29323   0.00000  Uiso   1.00
H316   H     0.69939   0.46012   0.26833   0.00000  Uiso   1.00
H317   H     0.71267   0.45698   0.18379   0.00000  Uiso   1.00
H318   H     0.98359   0.49512   0.12299   0.00000  Uiso   1.00
H319   H     0.90809   0.03606   0.14664   0.00000  Uiso   1.00
C320   C     0.82718   0.47718   0.34343   0.00000  Uiso   1.00
C321   C     0.87548   0.49033   0.36929   0.00000  Uiso   1.00
C322   C     0.87740   0.01229   0.41346   0.00000  Uiso   1.00
C323   C     0.83114   0.02131   0.43218   0.00000  Uiso   1.00
C324   C     0.78288   0.00831   0.40677   0.00000  Uiso   1.00
C325   C     0.78080   0.48632   0.36261   0.00000  Uiso   1.00
H326   H     0.91165   0.48310   0.35551   0.00000  Uiso   1.00
H327   H     0.91479   0.02221   0.43326   0.00000  Uiso   1.00
H328   H     0.83270   0.03828   0.46640   0.00000  Uiso   1.00
H329   H     0.74706   0.01520   0.42134   0.00000  Uiso   1.00
H330   H     0.74314   0.47633   0.34358   0.00000  Uiso   1.00
C331   C     0.73575   0.22899   0.01545   0.00000  Uiso   1.00
C332   C     0.71481   0.25679   0.47809   0.00000  Uiso   1.00
C333   C     0.66825   0.24504   0.44876   0.00000  Uiso   1.00
C334   C     0.97437   0.20666   0.45756   0.00000  Uiso   1.00
C335   C     0.99418   0.17933   0.49515   0.00000  Uiso   1.00
C336   C     0.70816   0.19013   0.02366   0.00000  Uiso   1.00
H337   H     0.73482   0.28710   0.47118   0.00000  Uiso   1.00
H338   H     0.98651   0.26556   0.41902   0.00000  Uiso   1.00
H339   H     0.93808   0.19798   0.43510   0.00000  Uiso   1.00
H340   H     0.97317   0.14948   0.00187   0.00000  Uiso   1.00
H341   H     0.72355   0.16793   0.05191   0.00000  Uiso   1.00
C342   C     0.87556   0.32676   0.47937   0.00000  Uiso   1.00
C343   C     0.84480   0.34857   0.00999   0.00000  Uiso   1.00
C344   C     0.86346   0.38674   0.03602   0.00000  Uiso   1.00
C345   C     0.91291   0.40371   0.03172   0.00000  Uiso   1.00
C346   C     0.94377   0.38252   0.00138   0.00000  Uiso   1.00
C347   C     0.92525   0.34431   0.47536   0.00000  Uiso   1.00
H348   H     0.80619   0.33624   0.01362   0.00000  Uiso   1.00
H349   H     0.83951   0.40321   0.05948   0.00000  Uiso   1.00
H350   H     0.92730   0.43328   0.05189   0.00000  Uiso   1.00
H351   H     0.98212   0.39565   0.49804   0.00000  Uiso   1.00
H352   H     0.94987   0.32837   0.45236   0.00000  Uiso   1.00
F353   F     0.74305   0.23416   0.11420   0.00000  Uiso   1.00
F354   F     0.87862   0.31786   0.38009   0.00000  Uiso   1.00
C355   C     0.16785   0.66411   0.24964   0.00000  Uiso   1.00
C356   C     0.16434   0.83622   0.25013   0.00000  Uiso   1.00
C357   C     0.11980   0.73969   0.04589   0.00000  Uiso   1.00
C358   C     0.18908   0.78605   0.45143   0.00000  Uiso   1.00
C359   C     0.12132   0.74109   0.09605   0.00000  Uiso   1.00
C360   C     0.18935   0.78449   0.40138   0.00000  Uiso   1.00
C361   C     0.21182   0.75712   0.10781   0.00000  Uiso   1.00
C362   C     0.14652   0.71462   0.39427   0.00000  Uiso   1.00
C363   C     0.21271   0.75586   0.05842   0.00000  Uiso   1.00
C364   C     0.14800   0.71315   0.44382   0.00000  Uiso   1.00
C365   C     0.16655   0.74797   0.02637   0.00000  Uiso   1.00
C366   C     0.16803   0.74927   0.47332   0.00000  Uiso   1.00
C367   C     0.06723   0.75078   0.23786   0.00000  Uiso   1.00
C368   C     0.26618   0.75020   0.26230   0.00000  Uiso   1.00
C369   C     0.01289   0.75568   0.23210   0.00000  Uiso   1.00
C370   C     0.32077   0.74716   0.26881   0.00000  Uiso   1.00
C371   C     0.13333   0.54824   0.27003   0.00000  Uiso   1.00
C372   C     0.17611   0.95345   0.21385   0.00000  Uiso   1.00
C373   C     0.13220   0.59379   0.26920   0.00000  Uiso   1.00
C374   C     0.17392   0.90785   0.21174   0.00000  Uiso   1.00
C375   C     0.17030   0.61646   0.24902   0.00000  Uiso   1.00
C376   C     0.16146   0.88456   0.25093   0.00000  Uiso   1.00
C377   C     0.21120   0.59367   0.23060   0.00000  Uiso   1.00
C378   C     0.14802   0.90787   0.29143   0.00000  Uiso   1.00
C379   C     0.21571   0.54734   0.23648   0.00000  Uiso   1.00
C380   C     0.15954   0.95365   0.29654   0.00000  Uiso   1.00
C381   C     0.17567   0.52481   0.25609   0.00000  Uiso   1.00
C382   C     0.17284   0.97634   0.25662   0.00000  Uiso   1.00
H383   H     0.10058   0.53117   0.28149   0.00000  Uiso   1.00
H384   H     0.18155   0.97092   0.18193   0.00000  Uiso   1.00
H385   H     0.24762   0.76375   0.13128   0.00000  Uiso   1.00
H386   H     0.12972   0.68701   0.37217   0.00000  Uiso   1.00
H387   H     0.24954   0.76135   0.04523   0.00000  Uiso   1.00
H388   H     0.13274   0.68402   0.45906   0.00000  Uiso   1.00
N389   N     0.16667   0.74999   0.12624   0.00000  Uiso   1.00
N390   N     0.16667   0.75001   0.37377   0.00000  Uiso   1.00
O391   O     0.16667   0.68453   0.28974   0.00000  Uiso   1.00
O392   O     0.16666   0.81546   0.21026   0.00000  Uiso   1.00
O393   O     0.16667   0.68453   0.21026   0.00000  Uiso   1.00
O394   O     0.16666   0.81547   0.28974   0.00000  Uiso   1.00
O395   O     0.09058   0.75000   0.28045   0.00000  Uiso   1.00
O396   O     0.24275   0.75000   0.21956   0.00000  Uiso   1.00
O397   O     0.09058   0.74999   0.20097   0.00000  Uiso   1.00
O398   O     0.24275   0.75000   0.29904   0.00000  Uiso   1.00
Zn399  Zn    0.16667   0.75000   0.30307   0.00000  Uiso   1.00
Zn400  Zn    0.16667   0.74999   0.19693   0.00000  Uiso   1.00
F401   F     0.32274   0.77171   0.18981   0.00000  Uiso   1.00
F402   F     0.01127   0.73256   0.31184   0.00000  Uiso   1.00
F403   F     0.09285   0.61578   0.28685   0.00000  Uiso   1.00
F404   F     0.18332   0.88690   0.17089   0.00000  Uiso   1.00
C405   C     0.24837   0.61786   0.20483   0.00000  Uiso   1.00
C406   C     0.23268   0.62992   0.15728   0.00000  Uiso   1.00
C407   C     0.26797   0.65073   0.13178   0.00000  Uiso   1.00
C408   C     0.31918   0.65933   0.15343   0.00000  Uiso   1.00
C409   C     0.00178   0.64734   0.20064   0.00000  Uiso   1.00
C410   C     0.29985   0.62671   0.22646   0.00000  Uiso   1.00
H411   H     0.19326   0.62281   0.13993   0.00000  Uiso   1.00
H412   H     0.25575   0.65991   0.09515   0.00000  Uiso   1.00
H413   H     0.01320   0.67513   0.13357   0.00000  Uiso   1.00
H414   H     0.04147   0.65421   0.21710   0.00000  Uiso   1.00
H415   H     0.31265   0.61729   0.26294   0.00000  Uiso   1.00
C416   C     0.11322   0.88665   0.32223   0.00000  Uiso   1.00
C417   C     0.06414   0.87004   0.30099   0.00000  Uiso   1.00
C418   C     0.02902   0.85254   0.32895   0.00000  Uiso   1.00
C419   C     0.04242   0.85158   0.37835   0.00000  Uiso   1.00
C420   C     0.09114   0.86755   0.39977   0.00000  Uiso   1.00
C421   C     0.12683   0.88449   0.37193   0.00000  Uiso   1.00
H422   H     0.05269   0.87142   0.26276   0.00000  Uiso   1.00
H423   H     0.32446   0.84035   0.31239   0.00000  Uiso   1.00
H424   H     0.01489   0.83884   0.40007   0.00000  Uiso   1.00
H425   H     0.10086   0.86726   0.43803   0.00000  Uiso   1.00
H426   H     0.16448   0.89663   0.38919   0.00000  Uiso   1.00
C427   C     0.26140   0.52281   0.22188   0.00000  Uiso   1.00
C428   C     0.29692   0.50103   0.25601   0.00000  Uiso   1.00
C429   C     0.00576   0.97721   0.24213   0.00000  Uiso   1.00
C430   C     0.01319   0.97532   0.19432   0.00000  Uiso   1.00
C431   C     0.31143   0.99688   0.16011   0.00000  Uiso   1.00
C432   C     0.26892   0.52038   0.17371   0.00000  Uiso   1.00
H433   H     0.29202   0.50256   0.29323   0.00000  Uiso   1.00
H434   H     0.03272   0.96012   0.26833   0.00000  Uiso   1.00
H435   H     0.04601   0.95698   0.18379   0.00000  Uiso   1.00
H436   H     0.31692   0.99512   0.12299   0.00000  Uiso   1.00
H437   H     0.24142   0.53606   0.14664   0.00000  Uiso   1.00
C438   C     0.16051   0.97718   0.34343   0.00000  Uiso   1.00
C439   C     0.20881   0.99033   0.36929   0.00000  Uiso   1.00
C440   C     0.21074   0.51229   0.41346   0.00000  Uiso   1.00
C441   C     0.16447   0.52131   0.43218   0.00000  Uiso   1.00
C442   C     0.11621   0.50831   0.40677   0.00000  Uiso   1.00
C443   C     0.11413   0.98632   0.36261   0.00000  Uiso   1.00
H444   H     0.24498   0.98310   0.35551   0.00000  Uiso   1.00
H445   H     0.24813   0.52221   0.43326   0.00000  Uiso   1.00
H446   H     0.16603   0.53828   0.46640   0.00000  Uiso   1.00
H447   H     0.08039   0.51520   0.42134   0.00000  Uiso   1.00
H448   H     0.07648   0.97633   0.34358   0.00000  Uiso   1.00
C449   C     0.06908   0.72899   0.01545   0.00000  Uiso   1.00
C450   C     0.04814   0.75679   0.47809   0.00000  Uiso   1.00
C451   C     0.00158   0.74504   0.44876   0.00000  Uiso   1.00
C452   C     0.30770   0.70666   0.45756   0.00000  Uiso   1.00
C453   C     0.32751   0.67933   0.49515   0.00000  Uiso   1.00
C454   C     0.04150   0.69013   0.02366   0.00000  Uiso   1.00
H455   H     0.06815   0.78710   0.47118   0.00000  Uiso   1.00
H456   H     0.31984   0.76556   0.41902   0.00000  Uiso   1.00
H457   H     0.27141   0.69798   0.43510   0.00000  Uiso   1.00
H458   H     0.30650   0.64948   0.00187   0.00000  Uiso   1.00
H459   H     0.05688   0.66793   0.05191   0.00000  Uiso   1.00
C460   C     0.20890   0.82676   0.47937   0.00000  Uiso   1.00
C461   C     0.17813   0.84857   0.00999   0.00000  Uiso   1.00
C462   C     0.19679   0.88674   0.03602   0.00000  Uiso   1.00
C463   C     0.24625   0.90371   0.03172   0.00000  Uiso   1.00
C464   C     0.27710   0.88252   0.00138   0.00000  Uiso   1.00
C465   C     0.25858   0.84431   0.47536   0.00000  Uiso   1.00
H466   H     0.13952   0.83624   0.01362   0.00000  Uiso   1.00
H467   H     0.17284   0.90321   0.05948   0.00000  Uiso   1.00
H468   H     0.26064   0.93328   0.05189   0.00000  Uiso   1.00
H469   H     0.31545   0.89565   0.49804   0.00000  Uiso   1.00
H470   H     0.28321   0.82837   0.45236   0.00000  Uiso   1.00
F471   F     0.07639   0.73416   0.11420   0.00000  Uiso   1.00
F472   F     0.21195   0.81786   0.38009   0.00000  Uiso   1.00
C473   C     0.50118   0.66411   0.24964   0.00000  Uiso   1.00
C474   C     0.49767   0.83622   0.25013   0.00000  Uiso   1.00
C475   C     0.45313   0.73969   0.04589   0.00000  Uiso   1.00
C476   C     0.52242   0.78605   0.45143   0.00000  Uiso   1.00
C477   C     0.45465   0.74109   0.09605   0.00000  Uiso   1.00
C478   C     0.52268   0.78449   0.40138   0.00000  Uiso   1.00
C479   C     0.54515   0.75712   0.10781   0.00000  Uiso   1.00
C480   C     0.47986   0.71462   0.39427   0.00000  Uiso   1.00
C481   C     0.54605   0.75586   0.05842   0.00000  Uiso   1.00
C482   C     0.48133   0.71315   0.44382   0.00000  Uiso   1.00
C483   C     0.49988   0.74797   0.02637   0.00000  Uiso   1.00
C484   C     0.50136   0.74927   0.47332   0.00000  Uiso   1.00
C485   C     0.40056   0.75078   0.23786   0.00000  Uiso   1.00
C486   C     0.59951   0.75020   0.26230   0.00000  Uiso   1.00
C487   C     0.34623   0.75568   0.23210   0.00000  Uiso   1.00
C488   C     0.65411   0.74716   0.26881   0.00000  Uiso   1.00
C489   C     0.46666   0.54824   0.27003   0.00000  Uiso   1.00
C490   C     0.50944   0.95345   0.21385   0.00000  Uiso   1.00
C491   C     0.46553   0.59379   0.26920   0.00000  Uiso   1.00
C492   C     0.50725   0.90785   0.21174   0.00000  Uiso   1.00
C493   C     0.50363   0.61646   0.24902   0.00000  Uiso   1.00
C494   C     0.49479   0.88456   0.25093   0.00000  Uiso   1.00
C495   C     0.54453   0.59367   0.23060   0.00000  Uiso   1.00
C496   C     0.48135   0.90787   0.29143   0.00000  Uiso   1.00
C497   C     0.54904   0.54734   0.23648   0.00000  Uiso   1.00
C498   C     0.49287   0.95365   0.29654   0.00000  Uiso   1.00
C499   C     0.50901   0.52481   0.25609   0.00000  Uiso   1.00
C500   C     0.50617   0.97634   0.25662   0.00000  Uiso   1.00
H501   H     0.43391   0.53117   0.28149   0.00000  Uiso   1.00
H502   H     0.51488   0.97092   0.18193   0.00000  Uiso   1.00
H503   H     0.58095   0.76375   0.13128   0.00000  Uiso   1.00
H504   H     0.46305   0.68701   0.37217   0.00000  Uiso   1.00
H505   H     0.58287   0.76135   0.04523   0.00000  Uiso   1.00
H506   H     0.46607   0.68402   0.45906   0.00000  Uiso   1.00
N507   N     0.50000   0.74999   0.12624   0.00000  Uiso   1.00
N508   N     0.50000   0.75001   0.37377   0.00000  Uiso   1.00
O509   O     0.50000   0.68453   0.28974   0.00000  Uiso   1.00
O510   O     0.50000   0.81546   0.21026   0.00000  Uiso   1.00
O511   O     0.50000   0.68453   0.21026   0.00000  Uiso   1.00
O512   O     0.50000   0.81547   0.28974   0.00000  Uiso   1.00
O513   O     0.42392   0.75000   0.28045   0.00000  Uiso   1.00
O514   O     0.57608   0.75000   0.21956   0.00000  Uiso   1.00
O515   O     0.42392   0.74999   0.20097   0.00000  Uiso   1.00
O516   O     0.57608   0.75000   0.29904   0.00000  Uiso   1.00
Zn517  Zn    0.50000   0.75000   0.30307   0.00000  Uiso   1.00
Zn518  Zn    0.50000   0.74999   0.19693   0.00000  Uiso   1.00
F519   F     0.65607   0.77171   0.18981   0.00000  Uiso   1.00
F520   F     0.34460   0.73256   0.31184   0.00000  Uiso   1.00
F521   F     0.42619   0.61578   0.28685   0.00000  Uiso   1.00
F522   F     0.51665   0.88690   0.17089   0.00000  Uiso   1.00
C523   C     0.58170   0.61786   0.20483   0.00000  Uiso   1.00
C524   C     0.56602   0.62992   0.15728   0.00000  Uiso   1.00
C525   C     0.60131   0.65073   0.13178   0.00000  Uiso   1.00
C526   C     0.65251   0.65933   0.15343   0.00000  Uiso   1.00
C527   C     0.33511   0.64734   0.20064   0.00000  Uiso   1.00
C528   C     0.63318   0.62671   0.22646   0.00000  Uiso   1.00
H529   H     0.52659   0.62281   0.13993   0.00000  Uiso   1.00
H530   H     0.58908   0.65991   0.09515   0.00000  Uiso   1.00
H531   H     0.34654   0.67513   0.13357   0.00000  Uiso   1.00
H532   H     0.37481   0.65421   0.21710   0.00000  Uiso   1.00
H533   H     0.64598   0.61729   0.26294   0.00000  Uiso   1.00
C534   C     0.44655   0.88665   0.32223   0.00000  Uiso   1.00
C535   C     0.39747   0.87004   0.30099   0.00000  Uiso   1.00
C536   C     0.36235   0.85254   0.32895   0.00000  Uiso   1.00
C537   C     0.37575   0.85158   0.37835   0.00000  Uiso   1.00
C538   C     0.42448   0.86755   0.39977   0.00000  Uiso   1.00
C539   C     0.46016   0.88449   0.37193   0.00000  Uiso   1.00
H540   H     0.38603   0.87142   0.26276   0.00000  Uiso   1.00
H541   H     0.65779   0.84035   0.31239   0.00000  Uiso   1.00
H542   H     0.34822   0.83884   0.40007   0.00000  Uiso   1.00
H543   H     0.43419   0.86726   0.43803   0.00000  Uiso   1.00
H544   H     0.49782   0.89663   0.38919   0.00000  Uiso   1.00
C545   C     0.59473   0.52281   0.22188   0.00000  Uiso   1.00
C546   C     0.63026   0.50103   0.25601   0.00000  Uiso   1.00
C547   C     0.33909   0.97721   0.24213   0.00000  Uiso   1.00
C548   C     0.34652   0.97532   0.19432   0.00000  Uiso   1.00
C549   C     0.64476   0.99688   0.16011   0.00000  Uiso   1.00
C550   C     0.60225   0.52038   0.17371   0.00000  Uiso   1.00
H551   H     0.62535   0.50256   0.29323   0.00000  Uiso   1.00
H552   H     0.36606   0.96012   0.26833   0.00000  Uiso   1.00
H553   H     0.37934   0.95698   0.18379   0.00000  Uiso   1.00
H554   H     0.65025   0.99512   0.12299   0.00000  Uiso   1.00
H555   H     0.57475   0.53606   0.14664   0.00000  Uiso   1.00
C556   C     0.49385   0.97718   0.34343   0.00000  Uiso   1.00
C557   C     0.54215   0.99033   0.36929   0.00000  Uiso   1.00
C558   C     0.54407   0.51229   0.41346   0.00000  Uiso   1.00
C559   C     0.49781   0.52131   0.43218   0.00000  Uiso   1.00
C560   C     0.44955   0.50831   0.40677   0.00000  Uiso   1.00
C561   C     0.44746   0.98632   0.36261   0.00000  Uiso   1.00
H562   H     0.57831   0.98310   0.35551   0.00000  Uiso   1.00
H563   H     0.58146   0.52221   0.43326   0.00000  Uiso   1.00
H564   H     0.49937   0.53828   0.46640   0.00000  Uiso   1.00
H565   H     0.41373   0.51520   0.42134   0.00000  Uiso   1.00
H566   H     0.40981   0.97633   0.34358   0.00000  Uiso   1.00
C567   C     0.40242   0.72899   0.01545   0.00000  Uiso   1.00
C568   C     0.38148   0.75679   0.47809   0.00000  Uiso   1.00
C569   C     0.33492   0.74504   0.44876   0.00000  Uiso   1.00
C570   C     0.64104   0.70666   0.45756   0.00000  Uiso   1.00
C571   C     0.66084   0.67933   0.49515   0.00000  Uiso   1.00
C572   C     0.37483   0.69013   0.02366   0.00000  Uiso   1.00
H573   H     0.40148   0.78710   0.47118   0.00000  Uiso   1.00
H574   H     0.65318   0.76556   0.41902   0.00000  Uiso   1.00
H575   H     0.60474   0.69798   0.43510   0.00000  Uiso   1.00
H576   H     0.63983   0.64948   0.00187   0.00000  Uiso   1.00
H577   H     0.39021   0.66793   0.05191   0.00000  Uiso   1.00
C578   C     0.54223   0.82676   0.47937   0.00000  Uiso   1.00
C579   C     0.51146   0.84857   0.00999   0.00000  Uiso   1.00
C580   C     0.53013   0.88674   0.03602   0.00000  Uiso   1.00
C581   C     0.57958   0.90371   0.03172   0.00000  Uiso   1.00
C582   C     0.61043   0.88252   0.00138   0.00000  Uiso   1.00
C583   C     0.59192   0.84431   0.47536   0.00000  Uiso   1.00
H584   H     0.47286   0.83624   0.01362   0.00000  Uiso   1.00
H585   H     0.50617   0.90321   0.05948   0.00000  Uiso   1.00
H586   H     0.59397   0.93328   0.05189   0.00000  Uiso   1.00
H587   H     0.64878   0.89565   0.49804   0.00000  Uiso   1.00
H588   H     0.61654   0.82837   0.45236   0.00000  Uiso   1.00
F589   F     0.40972   0.73416   0.11420   0.00000  Uiso   1.00
F590   F     0.54529   0.81786   0.38009   0.00000  Uiso   1.00
C591   C     0.83451   0.66411   0.24964   0.00000  Uiso   1.00
C592   C     0.83100   0.83622   0.25013   0.00000  Uiso   1.00
C593   C     0.78646   0.73969   0.04589   0.00000  Uiso   1.00
C594   C     0.85575   0.78605   0.45143   0.00000  Uiso   1.00
C595   C     0.78798   0.74109   0.09605   0.00000  Uiso   1.00
C596   C     0.85602   0.78449   0.40138   0.00000  Uiso   1.00
C597   C     0.87849   0.75712   0.10781   0.00000  Uiso   1.00
C598   C     0.81319   0.71462   0.39427   0.00000  Uiso   1.00
C599   C     0.87938   0.75586   0.05842   0.00000  Uiso   1.00
C600   C     0.81467   0.71315   0.44382   0.00000  Uiso   1.00
C601   C     0.83322   0.74797   0.02637   0.00000  Uiso   1.00
C602   C     0.83470   0.74927   0.47332   0.00000  Uiso   1.00
C603   C     0.73389   0.75078   0.23786   0.00000  Uiso   1.00
C604   C     0.93284   0.75020   0.26230   0.00000  Uiso   1.00
C605   C     0.67956   0.75568   0.23210   0.00000  Uiso   1.00
C606   C     0.98744   0.74716   0.26881   0.00000  Uiso   1.00
C607   C     0.80000   0.54824   0.27003   0.00000  Uiso   1.00
C608   C     0.84278   0.95345   0.21385   0.00000  Uiso   1.00
C609   C     0.79887   0.59379   0.26920   0.00000  Uiso   1.00
C610   C     0.84059   0.90785   0.21174   0.00000  Uiso   1.00
C611   C     0.83697   0.61646   0.24902   0.00000  Uiso   1.00
C612   C     0.82812   0.88456   0.25093   0.00000  Uiso   1.00
C613   C     0.87786   0.59367   0.23060   0.00000  Uiso   1.00
C614   C     0.81468   0.90787   0.29143   0.00000  Uiso   1.00
C615   C     0.88237   0.54734   0.23648   0.00000  Uiso   1.00
C616   C     0.82621   0.95365   0.29654   0.00000  Uiso   1.00
C617   C     0.84234   0.52481   0.25609   0.00000  Uiso   1.00
C618   C     0.83951   0.97634   0.25662   0.00000  Uiso   1.00
H619   H     0.76725   0.53117   0.28149   0.00000  Uiso   1.00
H620   H     0.84822   0.97092   0.18193   0.00000  Uiso   1.00
H621   H     0.91428   0.76375   0.13128   0.00000  Uiso   1.00
H622   H     0.79638   0.68701   0.37217   0.00000  Uiso   1.00
H623   H     0.91621   0.76135   0.04523   0.00000  Uiso   1.00
H624   H     0.79941   0.68402   0.45906   0.00000  Uiso   1.00
N625   N     0.83333   0.74999   0.12624   0.00000  Uiso   1.00
N626   N     0.83333   0.75001   0.37377   0.00000  Uiso   1.00
O627   O     0.83334   0.68453   0.28974   0.00000  Uiso   1.00
O628   O     0.83333   0.81546   0.21026   0.00000  Uiso   1.00
O629   O     0.83334   0.68453   0.21026   0.00000  Uiso   1.00
O630   O     0.83333   0.81547   0.28974   0.00000  Uiso   1.00
O631   O     0.75725   0.75000   0.28045   0.00000  Uiso   1.00
O632   O     0.90942   0.75000   0.21956   0.00000  Uiso   1.00
O633   O     0.75725   0.74999   0.20097   0.00000  Uiso   1.00
O634   O     0.90942   0.75000   0.29904   0.00000  Uiso   1.00
Zn635  Zn    0.83333   0.75000   0.30307   0.00000  Uiso   1.00
Zn636  Zn    0.83333   0.74999   0.19693   0.00000  Uiso   1.00
F637   F     0.98941   0.77171   0.18981   0.00000  Uiso   1.00
F638   F     0.67794   0.73256   0.31184   0.00000  Uiso   1.00
F639   F     0.75952   0.61578   0.28685   0.00000  Uiso   1.00
F640   F     0.84999   0.88690   0.17089   0.00000  Uiso   1.00
C641   C     0.91503   0.61786   0.20483   0.00000  Uiso   1.00
C642   C     0.89935   0.62992   0.15728   0.00000  Uiso   1.00
C643   C     0.93464   0.65073   0.13178   0.00000  Uiso   1.00
C644   C     0.98584   0.65933   0.15343   0.00000  Uiso   1.00
C645   C     0.66844   0.64734   0.20064   0.00000  Uiso   1.00
C646   C     0.96651   0.62671   0.22646   0.00000  Uiso   1.00
H647   H     0.85992   0.62281   0.13993   0.00000  Uiso   1.00
H648   H     0.92241   0.65991   0.09515   0.00000  Uiso   1.00
H649   H     0.67987   0.67513   0.13357   0.00000  Uiso   1.00
H650   H     0.70814   0.65421   0.21710   0.00000  Uiso   1.00
H651   H     0.97932   0.61729   0.26294   0.00000  Uiso   1.00
C652   C     0.77988   0.88665   0.32223   0.00000  Uiso   1.00
C653   C     0.73081   0.87004   0.30099   0.00000  Uiso   1.00
C654   C     0.69569   0.85254   0.32895   0.00000  Uiso   1.00
C655   C     0.70908   0.85158   0.37835   0.00000  Uiso   1.00
C656   C     0.75781   0.86755   0.39977   0.00000  Uiso   1.00
C657   C     0.79349   0.88449   0.37193   0.00000  Uiso   1.00
H658   H     0.71936   0.87142   0.26276   0.00000  Uiso   1.00
H659   H     0.99112   0.84035   0.31239   0.00000  Uiso   1.00
H660   H     0.68156   0.83884   0.40007   0.00000  Uiso   1.00
H661   H     0.76752   0.86726   0.43803   0.00000  Uiso   1.00
H662   H     0.83115   0.89663   0.38919   0.00000  Uiso   1.00
C663   C     0.92806   0.52281   0.22188   0.00000  Uiso   1.00
C664   C     0.96359   0.50103   0.25601   0.00000  Uiso   1.00
C665   C     0.67243   0.97721   0.24213   0.00000  Uiso   1.00
C666   C     0.67986   0.97532   0.19432   0.00000  Uiso   1.00
C667   C     0.97809   0.99688   0.16011   0.00000  Uiso   1.00
C668   C     0.93559   0.52038   0.17371   0.00000  Uiso   1.00
H669   H     0.95868   0.50256   0.29323   0.00000  Uiso   1.00
H670   H     0.69939   0.96012   0.26833   0.00000  Uiso   1.00
H671   H     0.71267   0.95698   0.18379   0.00000  Uiso   1.00
H672   H     0.98359   0.99512   0.12299   0.00000  Uiso   1.00
H673   H     0.90809   0.53606   0.14664   0.00000  Uiso   1.00
C674   C     0.82718   0.97718   0.34343   0.00000  Uiso   1.00
C675   C     0.87548   0.99033   0.36929   0.00000  Uiso   1.00
C676   C     0.87740   0.51229   0.41346   0.00000  Uiso   1.00
C677   C     0.83114   0.52131   0.43218   0.00000  Uiso   1.00
C678   C     0.78288   0.50831   0.40677   0.00000  Uiso   1.00
C679   C     0.78080   0.98632   0.36261   0.00000  Uiso   1.00
H680   H     0.91165   0.98310   0.35551   0.00000  Uiso   1.00
H681   H     0.91479   0.52221   0.43326   0.00000  Uiso   1.00
H682   H     0.83270   0.53828   0.46640   0.00000  Uiso   1.00
H683   H     0.74706   0.51520   0.42134   0.00000  Uiso   1.00
H684   H     0.74314   0.97633   0.34358   0.00000  Uiso   1.00
C685   C     0.73575   0.72899   0.01545   0.00000  Uiso   1.00
C686   C     0.71481   0.75679   0.47809   0.00000  Uiso   1.00
C687   C     0.66825   0.74504   0.44876   0.00000  Uiso   1.00
C688   C     0.97437   0.70666   0.45756   0.00000  Uiso   1.00
C689   C     0.99418   0.67933   0.49515   0.00000  Uiso   1.00
C690   C     0.70816   0.69013   0.02366   0.00000  Uiso   1.00
H691   H     0.73482   0.78710   0.47118   0.00000  Uiso   1.00
H692   H     0.98651   0.76556   0.41902   0.00000  Uiso   1.00
H693   H     0.93808   0.69798   0.43510   0.00000  Uiso   1.00
H694   H     0.97317   0.64948   0.00187   0.00000  Uiso   1.00
H695   H     0.72355   0.66793   0.05191   0.00000  Uiso   1.00
C696   C     0.87556   0.82676   0.47937   0.00000  Uiso   1.00
C697   C     0.84480   0.84857   0.00999   0.00000  Uiso   1.00
C698   C     0.86346   0.88674   0.03602   0.00000  Uiso   1.00
C699   C     0.91291   0.90371   0.03172   0.00000  Uiso   1.00
C700   C     0.94377   0.88252   0.00138   0.00000  Uiso   1.00
C701   C     0.92525   0.84431   0.47536   0.00000  Uiso   1.00
H702   H     0.80619   0.83624   0.01362   0.00000  Uiso   1.00
H703   H     0.83951   0.90321   0.05948   0.00000  Uiso   1.00
H704   H     0.92730   0.93328   0.05189   0.00000  Uiso   1.00
H705   H     0.98212   0.89565   0.49804   0.00000  Uiso   1.00
H706   H     0.94987   0.82837   0.45236   0.00000  Uiso   1.00
F707   F     0.74305   0.73416   0.11420   0.00000  Uiso   1.00
F708   F     0.87862   0.81786   0.38009   0.00000  Uiso   1.00
C709   C     0.16785   0.16411   0.74964   0.00000  Uiso   1.00
C710   C     0.16434   0.33622   0.75013   0.00000  Uiso   1.00
C711   C     0.11980   0.23969   0.54589   0.00000  Uiso   1.00
C712   C     0.18908   0.28605   0.95143   0.00000  Uiso   1.00
C713   C     0.12132   0.24109   0.59605   0.00000  Uiso   1.00
C714   C     0.18935   0.28449   0.90138   0.00000  Uiso   1.00
C715   C     0.21182   0.25712   0.60781   0.00000  Uiso   1.00
C716   C     0.14652   0.21462   0.89427   0.00000  Uiso   1.00
C717   C     0.21271   0.25586   0.55842   0.00000  Uiso   1.00
C718   C     0.14800   0.21315   0.94382   0.00000  Uiso   1.00
C719   C     0.16655   0.24797   0.52637   0.00000  Uiso   1.00
C720   C     0.16803   0.24927   0.97332   0.00000  Uiso   1.00
C721   C     0.06723   0.25078   0.73786   0.00000  Uiso   1.00
C722   C     0.26618   0.25020   0.76230   0.00000  Uiso   1.00
C723   C     0.01289   0.25568   0.73210   0.00000  Uiso   1.00
C724   C     0.32077   0.24716   0.76881   0.00000  Uiso   1.00
C725   C     0.13333   0.04824   0.77003   0.00000  Uiso   1.00
C726   C     0.17611   0.45345   0.71385   0.00000  Uiso   1.00
C727   C     0.13220   0.09379   0.76920   0.00000  Uiso   1.00
C728   C     0.17392   0.40785   0.71174   0.00000  Uiso   1.00
C729   C     0.17030   0.11646   0.74902   0.00000  Uiso   1.00
C730   C     0.16146   0.38456   0.75093   0.00000  Uiso   1.00
C731   C     0.21120   0.09367   0.73060   0.00000  Uiso   1.00
C732   C     0.14802   0.40787   0.79143   0.00000  Uiso   1.00
C733   C     0.21571   0.04734   0.73648   0.00000  Uiso   1.00
C734   C     0.15954   0.45365   0.79654   0.00000  Uiso   1.00
C735   C     0.17567   0.02481   0.75609   0.00000  Uiso   1.00
C736   C     0.17284   0.47634   0.75662   0.00000  Uiso   1.00
H737   H     0.10058   0.03117   0.78149   0.00000  Uiso   1.00
H738   H     0.18155   0.47092   0.68193   0.00000  Uiso   1.00
H739   H     0.24762   0.26375   0.63128   0.00000  Uiso   1.00
H740   H     0.12972   0.18701   0.87217   0.00000  Uiso   1.00
H741   H     0.24954   0.26135   0.54523   0.00000  Uiso   1.00
H742   H     0.13274   0.18402   0.95906   0.00000  Uiso   1.00
N743   N     0.16667   0.24999   0.62624   0.00000  Uiso   1.00
N744   N     0.16667   0.25001   0.87377   0.00000  Uiso   1.00
O745   O     0.16667   0.18453   0.78974   0.00000  Uiso   1.00
O746   O     0.16666   0.31546   0.71026   0.00000  Uiso   1.00
O747   O     0.16667   0.18453   0.71026   0.00000  Uiso   1.00
O748   O     0.16666   0.31547   0.78974   0.00000  Uiso   1.00
O749   O     0.09058   0.25000   0.78045   0.00000  Uiso   1.00
O750   O     0.24275   0.25000   0.71956   0.00000  Uiso   1.00
O751   O     0.09058   0.24999   0.70097   0.00000  Uiso   1.00
O752   O     0.24275   0.25000   0.79904   0.00000  Uiso   1.00
Zn753  Zn    0.16667   0.25000   0.80307   0.00000  Uiso   1.00
Zn754  Zn    0.16667   0.24999   0.69693   0.00000  Uiso   1.00
F755   F     0.32274   0.27171   0.68981   0.00000  Uiso   1.00
F756   F     0.01127   0.23256   0.81184   0.00000  Uiso   1.00
F757   F     0.09285   0.11578   0.78685   0.00000  Uiso   1.00
F758   F     0.18332   0.38690   0.67089   0.00000  Uiso   1.00
C759   C     0.24837   0.11786   0.70483   0.00000  Uiso   1.00
C760   C     0.23268   0.12992   0.65728   0.00000  Uiso   1.00
C761   C     0.26797   0.15073   0.63178   0.00000  Uiso   1.00
C762   C     0.31918   0.15933   0.65343   0.00000  Uiso   1.00
C763   C     0.00178   0.14734   0.70064   0.00000  Uiso   1.00
C764   C     0.29985   0.12671   0.72646   0.00000  Uiso   1.00
H765   H     0.19326   0.12281   0.63993   0.00000  Uiso   1.00
H766   H     0.25575   0.15991   0.59515   0.00000  Uiso   1.00
H767   H     0.01320   0.17513   0.63357   0.00000  Uiso   1.00
H768   H     0.04147   0.15421   0.71710   0.00000  Uiso   1.00
H769   H     0.31265   0.11729   0.76294   0.00000  Uiso   1.00
C770   C     0.11322   0.38665   0.82223   0.00000  Uiso   1.00
C771   C     0.06414   0.37004   0.80099   0.00000  Uiso   1.00
C772   C     0.02902   0.35254   0.82895   0.00000  Uiso   1.00
C773   C     0.04242   0.35158   0.87835   0.00000  Uiso   1.00
C774   C     0.09114   0.36755   0.89977   0.00000  Uiso   1.00
C775   C     0.12683   0.38449   0.87193   0.00000  Uiso   1.00
H776   H     0.05269   0.37142   0.76276   0.00000  Uiso   1.00
H777   H     0.32446   0.34035   0.81239   0.00000  Uiso   1.00
H778   H     0.01489   0.33884   0.90007   0.00000  Uiso   1.00
H779   H     0.10086   0.36726   0.93803   0.00000  Uiso   1.00
H780   H     0.16448   0.39663   0.88919   0.00000  Uiso   1.00
C781   C     0.26140   0.02281   0.72188   0.00000  Uiso   1.00
C782   C     0.29692   0.00103   0.75601   0.00000  Uiso   1.00
C783   C     0.00576   0.47721   0.74213   0.00000  Uiso   1.00
C784   C     0.01319   0.47532   0.69432   0.00000  Uiso   1.00
C785   C     0.31143   0.49688   0.66011   0.00000  Uiso   1.00
C786   C     0.26892   0.02038   0.67371   0.00000  Uiso   1.00
H787   H     0.29202   0.00256   0.79323   0.00000  Uiso   1.00
H788   H     0.03272   0.46012   0.76833   0.00000  Uiso   1.00
H789   H     0.04601   0.45698   0.68379   0.00000  Uiso   1.00
H790   H     0.31692   0.49512   0.62299   0.00000  Uiso   1.00
H791   H     0.24142   0.03606   0.64664   0.00000  Uiso   1.00
C792   C     0.16051   0.47718   0.84343   0.00000  Uiso   1.00
C793   C     0.20881   0.49033   0.86929   0.00000  Uiso   1.00
C794   C     0.21074   0.01229   0.91346   0.00000  Uiso   1.00
C795   C     0.16447   0.02131   0.93218   0.00000  Uiso   1.00
C796   C     0.11621   0.00831   0.90677   0.00000  Uiso   1.00
C797   C     0.11413   0.48632   0.86261   0.00000  Uiso   1.00
H798   H     0.24498   0.48310   0.85551   0.00000  Uiso   1.00
H799   H     0.24813   0.02221   0.93326   0.00000  Uiso   1.00
H800   H     0.16603   0.03828   0.96640   0.00000  Uiso   1.00
H801   H     0.08039   0.01520   0.92134   0.00000  Uiso   1.00
H802   H     0.07648   0.47633   0.84358   0.00000  Uiso   1.00
C803   C     0.06908   0.22899   0.51545   0.00000  Uiso   1.00
C804   C     0.04814   0.25679   0.97809   0.00000  Uiso   1.00
C805   C     0.00158   0.24504   0.94876   0.00000  Uiso   1.00
C806   C     0.30770   0.20666   0.95756   0.00000  Uiso   1.00
C807   C     0.32751   0.17933   0.99515   0.00000  Uiso   1.00
C808   C     0.04150   0.19013   0.52366   0.00000  Uiso   1.00
H809   H     0.06815   0.28710   0.97118   0.00000  Uiso   1.00
H810   H     0.31984   0.26556   0.91902   0.00000  Uiso   1.00
H811   H     0.27141   0.19798   0.93510   0.00000  Uiso   1.00
H812   H     0.30650   0.14948   0.50187   0.00000  Uiso   1.00
H813   H     0.05688   0.16793   0.55191   0.00000  Uiso   1.00
C814   C     0.20890   0.32676   0.97937   0.00000  Uiso   1.00
C815   C     0.17813   0.34857   0.50999   0.00000  Uiso   1.00
C816   C     0.19679   0.38674   0.53602   0.00000  Uiso   1.00
C817   C     0.24625   0.40371   0.53172   0.00000  Uiso   1.00
C818   C     0.27710   0.38252   0.50138   0.00000  Uiso   1.00
C819   C     0.25858   0.34431   0.97536   0.00000  Uiso   1.00
H820   H     0.13952   0.33624   0.51362   0.00000  Uiso   1.00
H821   H     0.17284   0.40321   0.55948   0.00000  Uiso   1.00
H822   H     0.26064   0.43328   0.55189   0.00000  Uiso   1.00
H823   H     0.31545   0.39565   0.99804   0.00000  Uiso   1.00
H824   H     0.28321   0.32837   0.95236   0.00000  Uiso   1.00
F825   F     0.07639   0.23416   0.61420   0.00000  Uiso   1.00
F826   F     0.21195   0.31786   0.88009   0.00000  Uiso   1.00
C827   C     0.50118   0.16411   0.74964   0.00000  Uiso   1.00
C828   C     0.49767   0.33622   0.75013   0.00000  Uiso   1.00
C829   C     0.45313   0.23969   0.54589   0.00000  Uiso   1.00
C830   C     0.52242   0.28605   0.95143   0.00000  Uiso   1.00
C831   C     0.45465   0.24109   0.59605   0.00000  Uiso   1.00
C832   C     0.52268   0.28449   0.90138   0.00000  Uiso   1.00
C833   C     0.54515   0.25712   0.60781   0.00000  Uiso   1.00
C834   C     0.47986   0.21462   0.89427   0.00000  Uiso   1.00
C835   C     0.54605   0.25586   0.55842   0.00000  Uiso   1.00
C836   C     0.48133   0.21315   0.94382   0.00000  Uiso   1.00
C837   C     0.49988   0.24797   0.52637   0.00000  Uiso   1.00
C838   C     0.50136   0.24927   0.97332   0.00000  Uiso   1.00
C839   C     0.40056   0.25078   0.73786   0.00000  Uiso   1.00
C840   C     0.59951   0.25020   0.76230   0.00000  Uiso   1.00
C841   C     0.34623   0.25568   0.73210   0.00000  Uiso   1.00
C842   C     0.65411   0.24716   0.76881   0.00000  Uiso   1.00
C843   C     0.46666   0.04824   0.77003   0.00000  Uiso   1.00
C844   C     0.50944   0.45345   0.71385   0.00000  Uiso   1.00
C845   C     0.46553   0.09379   0.76920   0.00000  Uiso   1.00
C846   C     0.50725   0.40785   0.71174   0.00000  Uiso   1.00
C847   C     0.50363   0.11646   0.74902   0.00000  Uiso   1.00
C848   C     0.49479   0.38456   0.75093   0.00000  Uiso   1.00
C849   C     0.54453   0.09367   0.73060   0.00000  Uiso   1.00
C850   C     0.48135   0.40787   0.79143   0.00000  Uiso   1.00
C851   C     0.54904   0.04734   0.73648   0.00000  Uiso   1.00
C852   C     0.49287   0.45365   0.79654   0.00000  Uiso   1.00
C853   C     0.50901   0.02481   0.75609   0.00000  Uiso   1.00
C854   C     0.50617   0.47634   0.75662   0.00000  Uiso   1.00
H855   H     0.43391   0.03117   0.78149   0.00000  Uiso   1.00
H856   H     0.51488   0.47092   0.68193   0.00000  Uiso   1.00
H857   H     0.58095   0.26375   0.63128   0.00000  Uiso   1.00
H858   H     0.46305   0.18701   0.87217   0.00000  Uiso   1.00
H859   H     0.58287   0.26135   0.54523   0.00000  Uiso   1.00
H860   H     0.46607   0.18402   0.95906   0.00000  Uiso   1.00
N861   N     0.50000   0.24999   0.62624   0.00000  Uiso   1.00
N862   N     0.50000   0.25001   0.87377   0.00000  Uiso   1.00
O863   O     0.50000   0.18453   0.78974   0.00000  Uiso   1.00
O864   O     0.50000   0.31546   0.71026   0.00000  Uiso   1.00
O865   O     0.50000   0.18453   0.71026   0.00000  Uiso   1.00
O866   O     0.50000   0.31547   0.78974   0.00000  Uiso   1.00
O867   O     0.42392   0.25000   0.78045   0.00000  Uiso   1.00
O868   O     0.57608   0.25000   0.71956   0.00000  Uiso   1.00
O869   O     0.42392   0.24999   0.70097   0.00000  Uiso   1.00
O870   O     0.57608   0.25000   0.79904   0.00000  Uiso   1.00
Zn871  Zn    0.50000   0.25000   0.80307   0.00000  Uiso   1.00
Zn872  Zn    0.50000   0.24999   0.69693   0.00000  Uiso   1.00
F873   F     0.65607   0.27171   0.68981   0.00000  Uiso   1.00
F874   F     0.34460   0.23256   0.81184   0.00000  Uiso   1.00
F875   F     0.42619   0.11578   0.78685   0.00000  Uiso   1.00
F876   F     0.51665   0.38690   0.67089   0.00000  Uiso   1.00
C877   C     0.58170   0.11786   0.70483   0.00000  Uiso   1.00
C878   C     0.56602   0.12992   0.65728   0.00000  Uiso   1.00
C879   C     0.60131   0.15073   0.63178   0.00000  Uiso   1.00
C880   C     0.65251   0.15933   0.65343   0.00000  Uiso   1.00
C881   C     0.33511   0.14734   0.70064   0.00000  Uiso   1.00
C882   C     0.63318   0.12671   0.72646   0.00000  Uiso   1.00
H883   H     0.52659   0.12281   0.63993   0.00000  Uiso   1.00
H884   H     0.58908   0.15991   0.59515   0.00000  Uiso   1.00
H885   H     0.34654   0.17513   0.63357   0.00000  Uiso   1.00
H886   H     0.37481   0.15421   0.71710   0.00000  Uiso   1.00
H887   H     0.64598   0.11729   0.76294   0.00000  Uiso   1.00
C888   C     0.44655   0.38665   0.82223   0.00000  Uiso   1.00
C889   C     0.39747   0.37004   0.80099   0.00000  Uiso   1.00
C890   C     0.36235   0.35254   0.82895   0.00000  Uiso   1.00
C891   C     0.37575   0.35158   0.87835   0.00000  Uiso   1.00
C892   C     0.42448   0.36755   0.89977   0.00000  Uiso   1.00
C893   C     0.46016   0.38449   0.87193   0.00000  Uiso   1.00
H894   H     0.38603   0.37142   0.76276   0.00000  Uiso   1.00
H895   H     0.65779   0.34035   0.81239   0.00000  Uiso   1.00
H896   H     0.34822   0.33884   0.90007   0.00000  Uiso   1.00
H897   H     0.43419   0.36726   0.93803   0.00000  Uiso   1.00
H898   H     0.49782   0.39663   0.88919   0.00000  Uiso   1.00
C899   C     0.59473   0.02281   0.72188   0.00000  Uiso   1.00
C900   C     0.63026   0.00103   0.75601   0.00000  Uiso   1.00
C901   C     0.33909   0.47721   0.74213   0.00000  Uiso   1.00
C902   C     0.34652   0.47532   0.69432   0.00000  Uiso   1.00
C903   C     0.64476   0.49688   0.66011   0.00000  Uiso   1.00
C904   C     0.60225   0.02038   0.67371   0.00000  Uiso   1.00
H905   H     0.62535   0.00256   0.79323   0.00000  Uiso   1.00
H906   H     0.36606   0.46012   0.76833   0.00000  Uiso   1.00
H907   H     0.37934   0.45698   0.68379   0.00000  Uiso   1.00
H908   H     0.65025   0.49512   0.62299   0.00000  Uiso   1.00
H909   H     0.57475   0.03606   0.64664   0.00000  Uiso   1.00
C910   C     0.49385   0.47718   0.84343   0.00000  Uiso   1.00
C911   C     0.54215   0.49033   0.86929   0.00000  Uiso   1.00
C912   C     0.54407   0.01229   0.91346   0.00000  Uiso   1.00
C913   C     0.49781   0.02131   0.93218   0.00000  Uiso   1.00
C914   C     0.44955   0.00831   0.90677   0.00000  Uiso   1.00
C915   C     0.44746   0.48632   0.86261   0.00000  Uiso   1.00
H916   H     0.57831   0.48310   0.85551   0.00000  Uiso   1.00
H917   H     0.58146   0.02221   0.93326   0.00000  Uiso   1.00
H918   H     0.49937   0.03828   0.96640   0.00000  Uiso   1.00
H919   H     0.41373   0.01520   0.92134   0.00000  Uiso   1.00
H920   H     0.40981   0.47633   0.84358   0.00000  Uiso   1.00
C921   C     0.40242   0.22899   0.51545   0.00000  Uiso   1.00
C922   C     0.38148   0.25679   0.97809   0.00000  Uiso   1.00
C923   C     0.33492   0.24504   0.94876   0.00000  Uiso   1.00
C924   C     0.64104   0.20666   0.95756   0.00000  Uiso   1.00
C925   C     0.66084   0.17933   0.99515   0.00000  Uiso   1.00
C926   C     0.37483   0.19013   0.52366   0.00000  Uiso   1.00
H927   H     0.40148   0.28710   0.97118   0.00000  Uiso   1.00
H928   H     0.65318   0.26556   0.91902   0.00000  Uiso   1.00
H929   H     0.60474   0.19798   0.93510   0.00000  Uiso   1.00
H930   H     0.63983   0.14948   0.50187   0.00000  Uiso   1.00
H931   H     0.39021   0.16793   0.55191   0.00000  Uiso   1.00
C932   C     0.54223   0.32676   0.97937   0.00000  Uiso   1.00
C933   C     0.51146   0.34857   0.50999   0.00000  Uiso   1.00
C934   C     0.53013   0.38674   0.53602   0.00000  Uiso   1.00
C935   C     0.57958   0.40371   0.53172   0.00000  Uiso   1.00
C936   C     0.61043   0.38252   0.50138   0.00000  Uiso   1.00
C937   C     0.59192   0.34431   0.97536   0.00000  Uiso   1.00
H938   H     0.47286   0.33624   0.51362   0.00000  Uiso   1.00
H939   H     0.50617   0.40321   0.55948   0.00000  Uiso   1.00
H940   H     0.59397   0.43328   0.55189   0.00000  Uiso   1.00
H941   H     0.64878   0.39565   0.99804   0.00000  Uiso   1.00
H942   H     0.61654   0.32837   0.95236   0.00000  Uiso   1.00
F943   F     0.40972   0.23416   0.61420   0.00000  Uiso   1.00
F944   F     0.54529   0.31786   0.88009   0.00000  Uiso   1.00
C945   C     0.83451   0.16411   0.74964   0.00000  Uiso   1.00
C946   C     0.83100   0.33622   0.75013   0.00000  Uiso   1.00
C947   C     0.78646   0.23969   0.54589   0.00000  Uiso   1.00
C948   C     0.85575   0.28605   0.95143   0.00000  Uiso   1.00
C949   C     0.78798   0.24109   0.59605   0.00000  Uiso   1.00
C950   C     0.85602   0.28449   0.90138   0.00000  Uiso   1.00
C951   C     0.87849   0.25712   0.60781   0.00000  Uiso   1.00
C952   C     0.81319   0.21462   0.89427   0.00000  Uiso   1.00
C953   C     0.87938   0.25586   0.55842   0.00000  Uiso   1.00
C954   C     0.81467   0.21315   0.94382   0.00000  Uiso   1.00
C955   C     0.83322   0.24797   0.52637   0.00000  Uiso   1.00
C956   C     0.83470   0.24927   0.97332   0.00000  Uiso   1.00
C957   C     0.73389   0.25078   0.73786   0.00000  Uiso   1.00
C958   C     0.93284   0.25020   0.76230   0.00000  Uiso   1.00
C959   C     0.67956   0.25568   0.73210   0.00000  Uiso   1.00
C960   C     0.98744   0.24716   0.76881   0.00000  Uiso   1.00
C961   C     0.80000   0.04824   0.77003   0.00000  Uiso   1.00
C962   C     0.84278   0.45345   0.71385   0.00000  Uiso   1.00
C963   C     0.79887   0.09379   0.76920   0.00000  Uiso   1.00
C964   C     0.84059   0.40785   0.71174   0.00000  Uiso   1.00
C965   C     0.83697   0.11646   0.74902   0.00000  Uiso   1.00
C966   C     0.82812   0.38456   0.75093   0.00000  Uiso   1.00
C967   C     0.87786   0.09367   0.73060   0.00000  Uiso   1.00
C968   C     0.81468   0.40787   0.79143   0.00000  Uiso   1.00
C969   C     0.88237   0.04734   0.73648   0.00000  Uiso   1.00
C970   C     0.82621   0.45365   0.79654   0.00000  Uiso   1.00
C971   C     0.84234   0.02481   0.75609   0.00000  Uiso   1.00
C972   C     0.83951   0.47634   0.75662   0.00000  Uiso   1.00
H973   H     0.76725   0.03117   0.78149   0.00000  Uiso   1.00
H974   H     0.84822   0.47092   0.68193   0.00000  Uiso   1.00
H975   H     0.91428   0.26375   0.63128   0.00000  Uiso   1.00
H976   H     0.79638   0.18701   0.87217   0.00000  Uiso   1.00
H977   H     0.91621   0.26135   0.54523   0.00000  Uiso   1.00
H978   H     0.79941   0.18402   0.95906   0.00000  Uiso   1.00
N979   N     0.83333   0.24999   0.62624   0.00000  Uiso   1.00
N980   N     0.83333   0.25001   0.87377   0.00000  Uiso   1.00
O981   O     0.83334   0.18453   0.78974   0.00000  Uiso   1.00
O982   O     0.83333   0.31546   0.71026   0.00000  Uiso   1.00
O983   O     0.83334   0.18453   0.71026   0.00000  Uiso   1.00
O984   O     0.83333   0.31547   0.78974   0.00000  Uiso   1.00
O985   O     0.75725   0.25000   0.78045   0.00000  Uiso   1.00
O986   O     0.90942   0.25000   0.71956   0.00000  Uiso   1.00
O987   O     0.75725   0.24999   0.70097   0.00000  Uiso   1.00
O988   O     0.90942   0.25000   0.79904   0.00000  Uiso   1.00
Zn989  Zn    0.83333   0.25000   0.80307   0.00000  Uiso   1.00
Zn990  Zn    0.83333   0.24999   0.69693   0.00000  Uiso   1.00
F991   F     0.98941   0.27171   0.68981   0.00000  Uiso   1.00
F992   F     0.67794   0.23256   0.81184   0.00000  Uiso   1.00
F993   F     0.75952   0.11578   0.78685   0.00000  Uiso   1.00
F994   F     0.84999   0.38690   0.67089   0.00000  Uiso   1.00
C995   C     0.91503   0.11786   0.70483   0.00000  Uiso   1.00
C996   C     0.89935   0.12992   0.65728   0.00000  Uiso   1.00
C997   C     0.93464   0.15073   0.63178   0.00000  Uiso   1.00
C998   C     0.98584   0.15933   0.65343   0.00000  Uiso   1.00
C999   C     0.66844   0.14734   0.70064   0.00000  Uiso   1.00
C1000  C     0.96651   0.12671   0.72646   0.00000  Uiso   1.00
H1001  H     0.85992   0.12281   0.63993   0.00000  Uiso   1.00
H1002  H     0.92241   0.15991   0.59515   0.00000  Uiso   1.00
H1003  H     0.67987   0.17513   0.63357   0.00000  Uiso   1.00
H1004  H     0.70814   0.15421   0.71710   0.00000  Uiso   1.00
H1005  H     0.97932   0.11729   0.76294   0.00000  Uiso   1.00
C1006  C     0.77988   0.38665   0.82223   0.00000  Uiso   1.00
C1007  C     0.73081   0.37004   0.80099   0.00000  Uiso   1.00
C1008  C     0.69569   0.35254   0.82895   0.00000  Uiso   1.00
C1009  C     0.70908   0.35158   0.87835   0.00000  Uiso   1.00
C1010  C     0.75781   0.36755   0.89977   0.00000  Uiso   1.00
C1011  C     0.79349   0.38449   0.87193   0.00000  Uiso   1.00
H1012  H     0.71936   0.37142   0.76276   0.00000  Uiso   1.00
H1013  H     0.99112   0.34035   0.81239   0.00000  Uiso   1.00
H1014  H     0.68156   0.33884   0.90007   0.00000  Uiso   1.00
H1015  H     0.76752   0.36726   0.93803   0.00000  Uiso   1.00
H1016  H     0.83115   0.39663   0.88919   0.00000  Uiso   1.00
C1017  C     0.92806   0.02281   0.72188   0.00000  Uiso   1.00
C1018  C     0.96359   0.00103   0.75601   0.00000  Uiso   1.00
C1019  C     0.67243   0.47721   0.74213   0.00000  Uiso   1.00
C1020  C     0.67986   0.47532   0.69432   0.00000  Uiso   1.00
C1021  C     0.97809   0.49688   0.66011   0.00000  Uiso   1.00
C1022  C     0.93559   0.02038   0.67371   0.00000  Uiso   1.00
H1023  H     0.95868   0.00256   0.79323   0.00000  Uiso   1.00
H1024  H     0.69939   0.46012   0.76833   0.00000  Uiso   1.00
H1025  H     0.71267   0.45698   0.68379   0.00000  Uiso   1.00
H1026  H     0.98359   0.49512   0.62299   0.00000  Uiso   1.00
H1027  H     0.90809   0.03606   0.64664   0.00000  Uiso   1.00
C1028  C     0.82718   0.47718   0.84343   0.00000  Uiso   1.00
C1029  C     0.87548   0.49033   0.86929   0.00000  Uiso   1.00
C1030  C     0.87740   0.01229   0.91346   0.00000  Uiso   1.00
C1031  C     0.83114   0.02131   0.93218   0.00000  Uiso   1.00
C1032  C     0.78288   0.00831   0.90677   0.00000  Uiso   1.00
C1033  C     0.78080   0.48632   0.86261   0.00000  Uiso   1.00
H1034  H     0.91165   0.48310   0.85551   0.00000  Uiso   1.00
H1035  H     0.91479   0.02221   0.93326   0.00000  Uiso   1.00
H1036  H     0.83270   0.03828   0.96640   0.00000  Uiso   1.00
H1037  H     0.74706   0.01520   0.92134   0.00000  Uiso   1.00
H1038  H     0.74314   0.47633   0.84358   0.00000  Uiso   1.00
C1039  C     0.73575   0.22899   0.51545   0.00000  Uiso   1.00
C1040  C     0.71481   0.25679   0.97809   0.00000  Uiso   1.00
C1041  C     0.66825   0.24504   0.94876   0.00000  Uiso   1.00
C1042  C     0.97437   0.20666   0.95756   0.00000  Uiso   1.00
C1043  C     0.99418   0.17933   0.99515   0.00000  Uiso   1.00
C1044  C     0.70816   0.19013   0.52366   0.00000  Uiso   1.00
H1045  H     0.73482   0.28710   0.97118   0.00000  Uiso   1.00
H1046  H     0.98651   0.26556   0.91902   0.00000  Uiso   1.00
H1047  H     0.93808   0.19798   0.93510   0.00000  Uiso   1.00
H1048  H     0.97317   0.14948   0.50187   0.00000  Uiso   1.00
H1049  H     0.72355   0.16793   0.55191   0.00000  Uiso   1.00
C1050  C     0.87556   0.32676   0.97937   0.00000  Uiso   1.00
C1051  C     0.84480   0.34857   0.50999   0.00000  Uiso   1.00
C1052  C     0.86346   0.38674   0.53602   0.00000  Uiso   1.00
C1053  C     0.91291   0.40371   0.53172   0.00000  Uiso   1.00
C1054  C     0.94377   0.38252   0.50138   0.00000  Uiso   1.00
C1055  C     0.92525   0.34431   0.97536   0.00000  Uiso   1.00
H1056  H     0.80619   0.33624   0.51362   0.00000  Uiso   1.00
H1057  H     0.83951   0.40321   0.55948   0.00000  Uiso   1.00
H1058  H     0.92730   0.43328   0.55189   0.00000  Uiso   1.00
H1059  H     0.98212   0.39565   0.99804   0.00000  Uiso   1.00
H1060  H     0.94987   0.32837   0.95236   0.00000  Uiso   1.00
F1061  F     0.74305   0.23416   0.61420   0.00000  Uiso   1.00
F1062  F     0.87862   0.31786   0.88009   0.00000  Uiso   1.00
C1063  C     0.16785   0.66411   0.74964   0.00000  Uiso   1.00
C1064  C     0.16434   0.83622   0.75013   0.00000  Uiso   1.00
C1065  C     0.11980   0.73969   0.54589   0.00000  Uiso   1.00
C1066  C     0.18908   0.78605   0.95143   0.00000  Uiso   1.00
C1067  C     0.12132   0.74109   0.59605   0.00000  Uiso   1.00
C1068  C     0.18935   0.78449   0.90138   0.00000  Uiso   1.00
C1069  C     0.21182   0.75712   0.60781   0.00000  Uiso   1.00
C1070  C     0.14652   0.71462   0.89427   0.00000  Uiso   1.00
C1071  C     0.21271   0.75586   0.55842   0.00000  Uiso   1.00
C1072  C     0.14800   0.71315   0.94382   0.00000  Uiso   1.00
C1073  C     0.16655   0.74797   0.52637   0.00000  Uiso   1.00
C1074  C     0.16803   0.74927   0.97332   0.00000  Uiso   1.00
C1075  C     0.06723   0.75078   0.73786   0.00000  Uiso   1.00
C1076  C     0.26618   0.75020   0.76230   0.00000  Uiso   1.00
C1077  C     0.01289   0.75568   0.73210   0.00000  Uiso   1.00
C1078  C     0.32077   0.74716   0.76881   0.00000  Uiso   1.00
C1079  C     0.13333   0.54824   0.77003   0.00000  Uiso   1.00
C1080  C     0.17611   0.95345   0.71385   0.00000  Uiso   1.00
C1081  C     0.13220   0.59379   0.76920   0.00000  Uiso   1.00
C1082  C     0.17392   0.90785   0.71174   0.00000  Uiso   1.00
C1083  C     0.17030   0.61646   0.74902   0.00000  Uiso   1.00
C1084  C     0.16146   0.88456   0.75093   0.00000  Uiso   1.00
C1085  C     0.21120   0.59367   0.73060   0.00000  Uiso   1.00
C1086  C     0.14802   0.90787   0.79143   0.00000  Uiso   1.00
C1087  C     0.21571   0.54734   0.73648   0.00000  Uiso   1.00
C1088  C     0.15954   0.95365   0.79654   0.00000  Uiso   1.00
C1089  C     0.17567   0.52481   0.75609   0.00000  Uiso   1.00
C1090  C     0.17284   0.97634   0.75662   0.00000  Uiso   1.00
H1091  H     0.10058   0.53117   0.78149   0.00000  Uiso   1.00
H1092  H     0.18155   0.97092   0.68193   0.00000  Uiso   1.00
H1093  H     0.24762   0.76375   0.63128   0.00000  Uiso   1.00
H1094  H     0.12972   0.68701   0.87217   0.00000  Uiso   1.00
H1095  H     0.24954   0.76135   0.54523   0.00000  Uiso   1.00
H1096  H     0.13274   0.68402   0.95906   0.00000  Uiso   1.00
N1097  N     0.16667   0.74999   0.62624   0.00000  Uiso   1.00
N1098  N     0.16667   0.75001   0.87377   0.00000  Uiso   1.00
O1099  O     0.16667   0.68453   0.78974   0.00000  Uiso   1.00
O1100  O     0.16666   0.81546   0.71026   0.00000  Uiso   1.00
O1101  O     0.16667   0.68453   0.71026   0.00000  Uiso   1.00
O1102  O     0.16666   0.81547   0.78974   0.00000  Uiso   1.00
O1103  O     0.09058   0.75000   0.78045   0.00000  Uiso   1.00
O1104  O     0.24275   0.75000   0.71956   0.00000  Uiso   1.00
O1105  O     0.09058   0.74999   0.70097   0.00000  Uiso   1.00
O1106  O     0.24275   0.75000   0.79904   0.00000  Uiso   1.00
Zn1107 Zn    0.16667   0.75000   0.80307   0.00000  Uiso   1.00
Zn1108 Zn    0.16667   0.74999   0.69693   0.00000  Uiso   1.00
F1109  F     0.32274   0.77171   0.68981   0.00000  Uiso   1.00
F1110  F     0.01127   0.73256   0.81184   0.00000  Uiso   1.00
F1111  F     0.09285   0.61578   0.78685   0.00000  Uiso   1.00
F1112  F     0.18332   0.88690   0.67089   0.00000  Uiso   1.00
C1113  C     0.24837   0.61786   0.70483   0.00000  Uiso   1.00
C1114  C     0.23268   0.62992   0.65728   0.00000  Uiso   1.00
C1115  C     0.26797   0.65073   0.63178   0.00000  Uiso   1.00
C1116  C     0.31918   0.65933   0.65343   0.00000  Uiso   1.00
C1117  C     0.00178   0.64734   0.70064   0.00000  Uiso   1.00
C1118  C     0.29985   0.62671   0.72646   0.00000  Uiso   1.00
H1119  H     0.19326   0.62281   0.63993   0.00000  Uiso   1.00
H1120  H     0.25575   0.65991   0.59515   0.00000  Uiso   1.00
H1121  H     0.01320   0.67513   0.63357   0.00000  Uiso   1.00
H1122  H     0.04147   0.65421   0.71710   0.00000  Uiso   1.00
H1123  H     0.31265   0.61729   0.76294   0.00000  Uiso   1.00
C1124  C     0.11322   0.88665   0.82223   0.00000  Uiso   1.00
C1125  C     0.06414   0.87004   0.80099   0.00000  Uiso   1.00
C1126  C     0.02902   0.85254   0.82895   0.00000  Uiso   1.00
C1127  C     0.04242   0.85158   0.87835   0.00000  Uiso   1.00
C1128  C     0.09114   0.86755   0.89977   0.00000  Uiso   1.00
C1129  C     0.12683   0.88449   0.87193   0.00000  Uiso   1.00
H1130  H     0.05269   0.87142   0.76276   0.00000  Uiso   1.00
H1131  H     0.32446   0.84035   0.81239   0.00000  Uiso   1.00
H1132  H     0.01489   0.83884   0.90007   0.00000  Uiso   1.00
H1133  H     0.10086   0.86726   0.93803   0.00000  Uiso   1.00
H1134  H     0.16448   0.89663   0.88919   0.00000  Uiso   1.00
C1135  C     0.26140   0.52281   0.72188   0.00000  Uiso   1.00
C1136  C     0.29692   0.50103   0.75601   0.00000  Uiso   1.00
C1137  C     0.00576   0.97721   0.74213   0.00000  Uiso   1.00
C1138  C     0.01319   0.97532   0.69432   0.00000  Uiso   1.00
C1139  C     0.31143   0.99688   0.66011   0.00000  Uiso   1.00
C1140  C     0.26892   0.52038   0.67371   0.00000  Uiso   1.00
H1141  H     0.29202   0.50256   0.79323   0.00000  Uiso   1.00
H1142  H     0.03272   0.96012   0.76833   0.00000  Uiso   1.00
H1143  H     0.04601   0.95698   0.68379   0.00000  Uiso   1.00
H1144  H     0.31692   0.99512   0.62299   0.00000  Uiso   1.00
H1145  H     0.24142   0.53606   0.64664   0.00000  Uiso   1.00
C1146  C     0.16051   0.97718   0.84343   0.00000  Uiso   1.00
C1147  C     0.20881   0.99033   0.86929   0.00000  Uiso   1.00
C1148  C     0.21074   0.51229   0.91346   0.00000  Uiso   1.00
C1149  C     0.16447   0.52131   0.93218   0.00000  Uiso   1.00
C1150  C     0.11621   0.50831   0.90677   0.00000  Uiso   1.00
C1151  C     0.11413   0.98632   0.86261   0.00000  Uiso   1.00
H1152  H     0.24498   0.98310   0.85551   0.00000  Uiso   1.00
H1153  H     0.24813   0.52221   0.93326   0.00000  Uiso   1.00
H1154  H     0.16603   0.53828   0.96640   0.00000  Uiso   1.00
H1155  H     0.08039   0.51520   0.92134   0.00000  Uiso   1.00
H1156  H     0.07648   0.97633   0.84358   0.00000  Uiso   1.00
C1157  C     0.06908   0.72899   0.51545   0.00000  Uiso   1.00
C1158  C     0.04814   0.75679   0.97809   0.00000  Uiso   1.00
C1159  C     0.00158   0.74504   0.94876   0.00000  Uiso   1.00
C1160  C     0.30770   0.70666   0.95756   0.00000  Uiso   1.00
C1161  C     0.32751   0.67933   0.99515   0.00000  Uiso   1.00
C1162  C     0.04150   0.69013   0.52366   0.00000  Uiso   1.00
H1163  H     0.06815   0.78710   0.97118   0.00000  Uiso   1.00
H1164  H     0.31984   0.76556   0.91902   0.00000  Uiso   1.00
H1165  H     0.27141   0.69798   0.93510   0.00000  Uiso   1.00
H1166  H     0.30650   0.64948   0.50187   0.00000  Uiso   1.00
H1167  H     0.05688   0.66793   0.55191   0.00000  Uiso   1.00
C1168  C     0.20890   0.82676   0.97937   0.00000  Uiso   1.00
C1169  C     0.17813   0.84857   0.50999   0.00000  Uiso   1.00
C1170  C     0.19679   0.88674   0.53602   0.00000  Uiso   1.00
C1171  C     0.24625   0.90371   0.53172   0.00000  Uiso   1.00
C1172  C     0.27710   0.88252   0.50138   0.00000  Uiso   1.00
C1173  C     0.25858   0.84431   0.97536   0.00000  Uiso   1.00
H1174  H     0.13952   0.83624   0.51362   0.00000  Uiso   1.00
H1175  H     0.17284   0.90321   0.55948   0.00000  Uiso   1.00
H1176  H     0.26064   0.93328   0.55189   0.00000  Uiso   1.00
H1177  H     0.31545   0.89565   0.99804   0.00000  Uiso   1.00
H1178  H     0.28321   0.82837   0.95236   0.00000  Uiso   1.00
F1179  F     0.07639   0.73416   0.61420   0.00000  Uiso   1.00
F1180  F     0.21195   0.81786   0.88009   0.00000  Uiso   1.00
C1181  C     0.50118   0.66411   0.74964   0.00000  Uiso   1.00
C1182  C     0.49767   0.83622   0.75013   0.00000  Uiso   1.00
C1183  C     0.45313   0.73969   0.54589   0.00000  Uiso   1.00
C1184  C     0.52242   0.78605   0.95143   0.00000  Uiso   1.00
C1185  C     0.45465   0.74109   0.59605   0.00000  Uiso   1.00
C1186  C     0.52268   0.78449   0.90138   0.00000  Uiso   1.00
C1187  C     0.54515   0.75712   0.60781   0.00000  Uiso   1.00
C1188  C     0.47986   0.71462   0.89427   0.00000  Uiso   1.00
C1189  C     0.54605   0.75586   0.55842   0.00000  Uiso   1.00
C1190  C     0.48133   0.71315   0.94382   0.00000  Uiso   1.00
C1191  C     0.49988   0.74797   0.52637   0.00000  Uiso   1.00
C1192  C     0.50136   0.74927   0.97332   0.00000  Uiso   1.00
C1193  C     0.40056   0.75078   0.73786   0.00000  Uiso   1.00
C1194  C     0.59951   0.75020   0.76230   0.00000  Uiso   1.00
C1195  C     0.34623   0.75568   0.73210   0.00000  Uiso   1.00
C1196  C     0.65411   0.74716   0.76881   0.00000  Uiso   1.00
C1197  C     0.46666   0.54824   0.77003   0.00000  Uiso   1.00
C1198  C     0.50944   0.95345   0.71385   0.00000  Uiso   1.00
C1199  C     0.46553   0.59379   0.76920   0.00000  Uiso   1.00
C1200  C     0.50725   0.90785   0.71174   0.00000  Uiso   1.00
C1201  C     0.50363   0.61646   0.74902   0.00000  Uiso   1.00
C1202  C     0.49479   0.88456   0.75093   0.00000  Uiso   1.00
C1203  C     0.54453   0.59367   0.73060   0.00000  Uiso   1.00
C1204  C     0.48135   0.90787   0.79143   0.00000  Uiso   1.00
C1205  C     0.54904   0.54734   0.73648   0.00000  Uiso   1.00
C1206  C     0.49287   0.95365   0.79654   0.00000  Uiso   1.00
C1207  C     0.50901   0.52481   0.75609   0.00000  Uiso   1.00
C1208  C     0.50617   0.97634   0.75662   0.00000  Uiso   1.00
H1209  H     0.43391   0.53117   0.78149   0.00000  Uiso   1.00
H1210  H     0.51488   0.97092   0.68193   0.00000  Uiso   1.00
H1211  H     0.58095   0.76375   0.63128   0.00000  Uiso   1.00
H1212  H     0.46305   0.68701   0.87217   0.00000  Uiso   1.00
H1213  H     0.58287   0.76135   0.54523   0.00000  Uiso   1.00
H1214  H     0.46607   0.68402   0.95906   0.00000  Uiso   1.00
N1215  N     0.50000   0.74999   0.62624   0.00000  Uiso   1.00
N1216  N     0.50000   0.75001   0.87377   0.00000  Uiso   1.00
O1217  O     0.50000   0.68453   0.78974   0.00000  Uiso   1.00
O1218  O     0.50000   0.81546   0.71026   0.00000  Uiso   1.00
O1219  O     0.50000   0.68453   0.71026   0.00000  Uiso   1.00
O1220  O     0.50000   0.81547   0.78974   0.00000  Uiso   1.00
O1221  O     0.42392   0.75000   0.78045   0.00000  Uiso   1.00
O1222  O     0.57608   0.75000   0.71956   0.00000  Uiso   1.00
O1223  O     0.42392   0.74999   0.70097   0.00000  Uiso   1.00
O1224  O     0.57608   0.75000   0.79904   0.00000  Uiso   1.00
Zn1225 Zn    0.50000   0.75000   0.80307   0.00000  Uiso   1.00
Zn1226 Zn    0.50000   0.74999   0.69693   0.00000  Uiso   1.00
F1227  F     0.65607   0.77171   0.68981   0.00000  Uiso   1.00
F1228  F     0.34460   0.73256   0.81184   0.00000  Uiso   1.00
F1229  F     0.42619   0.61578   0.78685   0.00000  Uiso   1.00
F1230  F     0.51665   0.88690   0.67089   0.00000  Uiso   1.00
C1231  C     0.58170   0.61786   0.70483   0.00000  Uiso   1.00
C1232  C     0.56602   0.62992   0.65728   0.00000  Uiso   1.00
C1233  C     0.60131   0.65073   0.63178   0.00000  Uiso   1.00
C1234  C     0.65251   0.65933   0.65343   0.00000  Uiso   1.00
C1235  C     0.33511   0.64734   0.70064   0.00000  Uiso   1.00
C1236  C     0.63318   0.62671   0.72646   0.00000  Uiso   1.00
H1237  H     0.52659   0.62281   0.63993   0.00000  Uiso   1.00
H1238  H     0.58908   0.65991   0.59515   0.00000  Uiso   1.00
H1239  H     0.34654   0.67513   0.63357   0.00000  Uiso   1.00
H1240  H     0.37481   0.65421   0.71710   0.00000  Uiso   1.00
H1241  H     0.64598   0.61729   0.76294   0.00000  Uiso   1.00
C1242  C     0.44655   0.88665   0.82223   0.00000  Uiso   1.00
C1243  C     0.39747   0.87004   0.80099   0.00000  Uiso   1.00
C1244  C     0.36235   0.85254   0.82895   0.00000  Uiso   1.00
C1245  C     0.37575   0.85158   0.87835   0.00000  Uiso   1.00
C1246  C     0.42448   0.86755   0.89977   0.00000  Uiso   1.00
C1247  C     0.46016   0.88449   0.87193   0.00000  Uiso   1.00
H1248  H     0.38603   0.87142   0.76276   0.00000  Uiso   1.00
H1249  H     0.65779   0.84035   0.81239   0.00000  Uiso   1.00
H1250  H     0.34822   0.83884   0.90007   0.00000  Uiso   1.00
H1251  H     0.43419   0.86726   0.93803   0.00000  Uiso   1.00
H1252  H     0.49782   0.89663   0.88919   0.00000  Uiso   1.00
C1253  C     0.59473   0.52281   0.72188   0.00000  Uiso   1.00
C1254  C     0.63026   0.50103   0.75601   0.00000  Uiso   1.00
C1255  C     0.33909   0.97721   0.74213   0.00000  Uiso   1.00
C1256  C     0.34652   0.97532   0.69432   0.00000  Uiso   1.00
C1257  C     0.64476   0.99688   0.66011   0.00000  Uiso   1.00
C1258  C     0.60225   0.52038   0.67371   0.00000  Uiso   1.00
H1259  H     0.62535   0.50256   0.79323   0.00000  Uiso   1.00
H1260  H     0.36606   0.96012   0.76833   0.00000  Uiso   1.00
H1261  H     0.37934   0.95698   0.68379   0.00000  Uiso   1.00
H1262  H     0.65025   0.99512   0.62299   0.00000  Uiso   1.00
H1263  H     0.57475   0.53606   0.64664   0.00000  Uiso   1.00
C1264  C     0.49385   0.97718   0.84343   0.00000  Uiso   1.00
C1265  C     0.54215   0.99033   0.86929   0.00000  Uiso   1.00
C1266  C     0.54407   0.51229   0.91346   0.00000  Uiso   1.00
C1267  C     0.49781   0.52131   0.93218   0.00000  Uiso   1.00
C1268  C     0.44955   0.50831   0.90677   0.00000  Uiso   1.00
C1269  C     0.44746   0.98632   0.86261   0.00000  Uiso   1.00
H1270  H     0.57831   0.98310   0.85551   0.00000  Uiso   1.00
H1271  H     0.58146   0.52221   0.93326   0.00000  Uiso   1.00
H1272  H     0.49937   0.53828   0.96640   0.00000  Uiso   1.00
H1273  H     0.41373   0.51520   0.92134   0.00000  Uiso   1.00
H1274  H     0.40981   0.97633   0.84358   0.00000  Uiso   1.00
C1275  C     0.40242   0.72899   0.51545   0.00000  Uiso   1.00
C1276  C     0.38148   0.75679   0.97809   0.00000  Uiso   1.00
C1277  C     0.33492   0.74504   0.94876   0.00000  Uiso   1.00
C1278  C     0.64104   0.70666   0.95756   0.00000  Uiso   1.00
C1279  C     0.66084   0.67933   0.99515   0.00000  Uiso   1.00
C1280  C     0.37483   0.69013   0.52366   0.00000  Uiso   1.00
H1281  H     0.40148   0.78710   0.97118   0.00000  Uiso   1.00
H1282  H     0.65318   0.76556   0.91902   0.00000  Uiso   1.00
H1283  H     0.60474   0.69798   0.93510   0.00000  Uiso   1.00
H1284  H     0.63983   0.64948   0.50187   0.00000  Uiso   1.00
H1285  H     0.39021   0.66793   0.55191   0.00000  Uiso   1.00
C1286  C     0.54223   0.82676   0.97937   0.00000  Uiso   1.00
C1287  C     0.51146   0.84857   0.50999   0.00000  Uiso   1.00
C1288  C     0.53013   0.88674   0.53602   0.00000  Uiso   1.00
C1289  C     0.57958   0.90371   0.53172   0.00000  Uiso   1.00
C1290  C     0.61043   0.88252   0.50138   0.00000  Uiso   1.00
C1291  C     0.59192   0.84431   0.97536   0.00000  Uiso   1.00
H1292  H     0.47286   0.83624   0.51362   0.00000  Uiso   1.00
H1293  H     0.50617   0.90321   0.55948   0.00000  Uiso   1.00
H1294  H     0.59397   0.93328   0.55189   0.00000  Uiso   1.00
H1295  H     0.64878   0.89565   0.99804   0.00000  Uiso   1.00
H1296  H     0.61654   0.82837   0.95236   0.00000  Uiso   1.00
F1297  F     0.40972   0.73416   0.61420   0.00000  Uiso   1.00
F1298  F     0.54529   0.81786   0.88009   0.00000  Uiso   1.00
C1299  C     0.83451   0.66411   0.74964   0.00000  Uiso   1.00
C1300  C     0.83100   0.83622   0.75013   0.00000  Uiso   1.00
C1301  C     0.78646   0.73969   0.54589   0.00000  Uiso   1.00
C1302  C     0.85575   0.78605   0.95143   0.00000  Uiso   1.00
C1303  C     0.78798   0.74109   0.59605   0.00000  Uiso   1.00
C1304  C     0.85602   0.78449   0.90138   0.00000  Uiso   1.00
C1305  C     0.87849   0.75712   0.60781   0.00000  Uiso   1.00
C1306  C     0.81319   0.71462   0.89427   0.00000  Uiso   1.00
C1307  C     0.87938   0.75586   0.55842   0.00000  Uiso   1.00
C1308  C     0.81467   0.71315   0.94382   0.00000  Uiso   1.00
C1309  C     0.83322   0.74797   0.52637   0.00000  Uiso   1.00
C1310  C     0.83470   0.74927   0.97332   0.00000  Uiso   1.00
C1311  C     0.73389   0.75078   0.73786   0.00000  Uiso   1.00
C1312  C     0.93284   0.75020   0.76230   0.00000  Uiso   1.00
C1313  C     0.67956   0.75568   0.73210   0.00000  Uiso   1.00
C1314  C     0.98744   0.74716   0.76881   0.00000  Uiso   1.00
C1315  C     0.80000   0.54824   0.77003   0.00000  Uiso   1.00
C1316  C     0.84278   0.95345   0.71385   0.00000  Uiso   1.00
C1317  C     0.79887   0.59379   0.76920   0.00000  Uiso   1.00
C1318  C     0.84059   0.90785   0.71174   0.00000  Uiso   1.00
C1319  C     0.83697   0.61646   0.74902   0.00000  Uiso   1.00
C1320  C     0.82812   0.88456   0.75093   0.00000  Uiso   1.00
C1321  C     0.87786   0.59367   0.73060   0.00000  Uiso   1.00
C1322  C     0.81468   0.90787   0.79143   0.00000  Uiso   1.00
C1323  C     0.88237   0.54734   0.73648   0.00000  Uiso   1.00
C1324  C     0.82621   0.95365   0.79654   0.00000  Uiso   1.00
C1325  C     0.84234   0.52481   0.75609   0.00000  Uiso   1.00
C1326  C     0.83951   0.97634   0.75662   0.00000  Uiso   1.00
H1327  H     0.76725   0.53117   0.78149   0.00000  Uiso   1.00
H1328  H     0.84822   0.97092   0.68193   0.00000  Uiso   1.00
H1329  H     0.91428   0.76375   0.63128   0.00000  Uiso   1.00
H1330  H     0.79638   0.68701   0.87217   0.00000  Uiso   1.00
H1331  H     0.91621   0.76135   0.54523   0.00000  Uiso   1.00
H1332  H     0.79941   0.68402   0.95906   0.00000  Uiso   1.00
N1333  N     0.83333   0.74999   0.62624   0.00000  Uiso   1.00
N1334  N     0.83333   0.75001   0.87377   0.00000  Uiso   1.00
O1335  O     0.83334   0.68453   0.78974   0.00000  Uiso   1.00
O1336  O     0.83333   0.81546   0.71026   0.00000  Uiso   1.00
O1337  O     0.83334   0.68453   0.71026   0.00000  Uiso   1.00
O1338  O     0.83333   0.81547   0.78974   0.00000  Uiso   1.00
O1339  O     0.75725   0.75000   0.78045   0.00000  Uiso   1.00
O1340  O     0.90942   0.75000   0.71956   0.00000  Uiso   1.00
O1341  O     0.75725   0.74999   0.70097   0.00000  Uiso   1.00
O1342  O     0.90942   0.75000   0.79904   0.00000  Uiso   1.00
Zn1343 Zn    0.83333   0.75000   0.80307   0.00000  Uiso   1.00
Zn1344 Zn    0.83333   0.74999   0.69693   0.00000  Uiso   1.00
F1345  F     0.98941   0.77171   0.68981   0.00000  Uiso   1.00
F1346  F     0.67794   0.73256   0.81184   0.00000  Uiso   1.00
F1347  F     0.75952   0.61578   0.78685   0.00000  Uiso   1.00
F1348  F     0.84999   0.88690   0.67089   0.00000  Uiso   1.00
C1349  C     0.91503   0.61786   0.70483   0.00000  Uiso   1.00
C1350  C     0.89935   0.62992   0.65728   0.00000  Uiso   1.00
C1351  C     0.93464   0.65073   0.63178   0.00000  Uiso   1.00
C1352  C     0.98584   0.65933   0.65343   0.00000  Uiso   1.00
C1353  C     0.66844   0.64734   0.70064   0.00000  Uiso   1.00
C1354  C     0.96651   0.62671   0.72646   0.00000  Uiso   1.00
H1355  H     0.85992   0.62281   0.63993   0.00000  Uiso   1.00
H1356  H     0.92241   0.65991   0.59515   0.00000  Uiso   1.00
H1357  H     0.67987   0.67513   0.63357   0.00000  Uiso   1.00
H1358  H     0.70814   0.65421   0.71710   0.00000  Uiso   1.00
H1359  H     0.97932   0.61729   0.76294   0.00000  Uiso   1.00
C1360  C     0.77988   0.88665   0.82223   0.00000  Uiso   1.00
C1361  C     0.73081   0.87004   0.80099   0.00000  Uiso   1.00
C1362  C     0.69569   0.85254   0.82895   0.00000  Uiso   1.00
C1363  C     0.70908   0.85158   0.87835   0.00000  Uiso   1.00
C1364  C     0.75781   0.86755   0.89977   0.00000  Uiso   1.00
C1365  C     0.79349   0.88449   0.87193   0.00000  Uiso   1.00
H1366  H     0.71936   0.87142   0.76276   0.00000  Uiso   1.00
H1367  H     0.99112   0.84035   0.81239   0.00000  Uiso   1.00
H1368  H     0.68156   0.83884   0.90007   0.00000  Uiso   1.00
H1369  H     0.76752   0.86726   0.93803   0.00000  Uiso   1.00
H1370  H     0.83115   0.89663   0.88919   0.00000  Uiso   1.00
C1371  C     0.92806   0.52281   0.72188   0.00000  Uiso   1.00
C1372  C     0.96359   0.50103   0.75601   0.00000  Uiso   1.00
C1373  C     0.67243   0.97721   0.74213   0.00000  Uiso   1.00
C1374  C     0.67986   0.97532   0.69432   0.00000  Uiso   1.00
C1375  C     0.97809   0.99688   0.66011   0.00000  Uiso   1.00
C1376  C     0.93559   0.52038   0.67371   0.00000  Uiso   1.00
H1377  H     0.95868   0.50256   0.79323   0.00000  Uiso   1.00
H1378  H     0.69939   0.96012   0.76833   0.00000  Uiso   1.00
H1379  H     0.71267   0.95698   0.68379   0.00000  Uiso   1.00
H1380  H     0.98359   0.99512   0.62299   0.00000  Uiso   1.00
H1381  H     0.90809   0.53606   0.64664   0.00000  Uiso   1.00
C1382  C     0.82718   0.97718   0.84343   0.00000  Uiso   1.00
C1383  C     0.87548   0.99033   0.86929   0.00000  Uiso   1.00
C1384  C     0.87740   0.51229   0.91346   0.00000  Uiso   1.00
C1385  C     0.83114   0.52131   0.93218   0.00000  Uiso   1.00
C1386  C     0.78288   0.50831   0.90677   0.00000  Uiso   1.00
C1387  C     0.78080   0.98632   0.86261   0.00000  Uiso   1.00
H1388  H     0.91165   0.98310   0.85551   0.00000  Uiso   1.00
H1389  H     0.91479   0.52221   0.93326   0.00000  Uiso   1.00
H1390  H     0.83270   0.53828   0.96640   0.00000  Uiso   1.00
H1391  H     0.74706   0.51520   0.92134   0.00000  Uiso   1.00
H1392  H     0.74314   0.97633   0.84358   0.00000  Uiso   1.00
C1393  C     0.73575   0.72899   0.51545   0.00000  Uiso   1.00
C1394  C     0.71481   0.75679   0.97809   0.00000  Uiso   1.00
C1395  C     0.66825   0.74504   0.94876   0.00000  Uiso   1.00
C1396  C     0.97437   0.70666   0.95756   0.00000  Uiso   1.00
C1397  C     0.99418   0.67933   0.99515   0.00000  Uiso   1.00
C1398  C     0.70816   0.69013   0.52366   0.00000  Uiso   1.00
H1399  H     0.73482   0.78710   0.97118   0.00000  Uiso   1.00
H1400  H     0.98651   0.76556   0.91902   0.00000  Uiso   1.00
H1401  H     0.93808   0.69798   0.93510   0.00000  Uiso   1.00
H1402  H     0.97317   0.64948   0.50187   0.00000  Uiso   1.00
H1403  H     0.72355   0.66793   0.55191   0.00000  Uiso   1.00
C1404  C     0.87556   0.82676   0.97937   0.00000  Uiso   1.00
C1405  C     0.84480   0.84857   0.50999   0.00000  Uiso   1.00
C1406  C     0.86346   0.88674   0.53602   0.00000  Uiso   1.00
C1407  C     0.91291   0.90371   0.53172   0.00000  Uiso   1.00
C1408  C     0.94377   0.88252   0.50138   0.00000  Uiso   1.00
C1409  C     0.92525   0.84431   0.97536   0.00000  Uiso   1.00
H1410  H     0.80619   0.83624   0.51362   0.00000  Uiso   1.00
H1411  H     0.83951   0.90321   0.55948   0.00000  Uiso   1.00
H1412  H     0.92730   0.93328   0.55189   0.00000  Uiso   1.00
H1413  H     0.98212   0.89565   0.99804   0.00000  Uiso   1.00
H1414  H     0.94987   0.82837   0.95236   0.00000  Uiso   1.00
F1415  F     0.74305   0.73416   0.61420   0.00000  Uiso   1.00
F1416  F     0.87862   0.81786   0.88009   0.00000  Uiso   1.00
loop_
_geom_bond_atom_site_label_1
_geom_bond_atom_site_label_2
_geom_bond_distance
_geom_bond_site_symmetry_2
_ccdc_geom_bond_type
C1     C21     1.432   .     S
C1     O37     1.285   .     A
C1     O39     1.281   .     A
C2     C22     1.453   .     S
C2     O38     1.288   .     A
C2     O40     1.290   .     A
C3     C5      1.417   .     A
C3     C11     1.421   .     A
C3     C95     1.491   .     S
C4     C12     1.424   .     A
C4     C6      1.420   .     A
C4     C106    1.493   .     S
C5     F117    1.351   .     S
C5     N35     1.369   .     A
C6     N36     1.365   .     A
C6     F118    1.355   .     S
C7     H31     1.074   .     S
C7     C9      1.404   .     A
C7     N35     1.362   .     A
C8     H32     1.081   .     S
C8     N36     1.360   .     A
C8     C10     1.402   .     A
C9     H33     1.083   .     S
C9     C11     1.407   .     A
C10    H34     1.083   .     S
C10    C12     1.408   .     A
C11    C720    1.512   1_554 S
C12    C719    1.512   .     S
C13    O41     1.270   .     A
C13    C15     1.395   .     S
C13    O43     1.280   .     A
C14    C16     1.396   .     S
C14    O44     1.277   .     A
C14    O42     1.274   .     A
C15    C252    1.337   1_455 S
C15    F283    1.360   1_455 S
C16    C133    1.337   .     S
C16    F166    1.366   .     S
C17    H29     1.081   .     S
C17    C27     1.397   .     A
C17    C19     1.369   .     A
C18    H30     1.082   .     S
C18    C20     1.370   .     A
C18    C28     1.395   .     A
C19    C21     1.391   .     A
C19    F49     1.358   .     S
C20    F50     1.359   .     S
C20    C22     1.401   .     A
C21    C23     1.412   .     A
C22    C24     1.417   .     A
C23    C51     1.485   .     S
C23    C25     1.407   .     A
C24    C26     1.407   .     A
C24    C62     1.491   .     S
C25    C27     1.419   .     A
C25    C73     1.492   .     S
C26    C84     1.490   .     S
C26    C28     1.417   .     A
C27    C382    1.458   1_545 S
C28    C381    1.458   .     S
N35    Zn46    2.005   .     S
N36    Zn45    2.005   .     S
O37    Zn45    1.994   .     S
O38    Zn46    1.994   .     S
O39    Zn46    2.009   .     S
O40    Zn45    2.009   .     S
O41    Zn45    1.974   .     S
O42    Zn46    1.974   .     S
O43    Zn46    1.981   .     S
O44    Zn45    1.981   .     S
F47    C133    1.360   .     S
F48    C252    1.366   1_455 S
C51    C56     1.403   .     A
C51    C52     1.406   .     A
C52    C53     1.397   .     A
C52    H57     1.083   .     S
C53    H58     1.083   .     S
C53    C54     1.396   .     A
C54    C173    1.397   .     S
C54    H177    1.080   .     S
C55    H60     1.080   .     S
C55    C290    1.397   1_455 S
C55    C292    1.399   1_455 S
C56    H61     1.083   .     S
C56    C173    1.399   .     S
H59    C290    1.080   1_455 S
C62    C67     1.405   .     A
C62    C63     1.408   .     A
C63    H68     1.083   .     S
C63    C64     1.396   .     A
C64    C65     1.395   .     A
C64    H305    1.082   1_455 S
C65    C66     1.396   .     A
C65    H70     1.080   .     S
C66    H71     1.078   .     S
C66    C67     1.398   .     A
C67    H72     1.083   .     S
H69    C182    1.082   .     S
C73    C74     1.404   .     A
C73    C78     1.407   .     A
C74    H79     1.081   .     S
C74    C547    1.399   1_545 S
C75    H80     1.079   .     S
C75    C76     1.396   .     A
C75    C664    1.399   1_455 S
C76    H81     1.083   .     S
C76    C313    1.397   1_455 S
C77    H82     1.082   .     S
C77    C194    1.397   .     S
C77    C432    1.398   .     S
C78    H83     1.082   .     S
C78    C431    1.398   1_545 S
C84    C85     1.404   .     A
C84    C89     1.407   .     A
C85    H90     1.082   .     S
C85    C440    1.398   .     S
C86    H91     1.082   .     S
C86    C87     1.397   .     A
C86    C439    1.398   1_545 S
C87    C88     1.397   .     A
C87    H92     1.082   .     S
C88    H93     1.082   .     S
C88    C443    1.398   1_545 S
C89    H94     1.080   .     S
C89    C442    1.398   .     S
C95    C100    1.408   .     A
C95    C804    1.408   1_554 S
C96    H101    1.082   .     S
C96    C97     1.400   .     A
C96    C803    1.408   .     S
C97    C334    1.396   1_455 S
C97    H338    1.081   1_455 S
C98    H103    1.082   .     S
C98    C99     1.396   .     A
C98    C215    1.396   .     S
C99    C926    1.398   .     S
C99    H812    1.082   .     S
C100   H105    1.083   .     S
C100   C1043   1.398   1_454 S
H102   C215    1.081   .     S
H104   C807    1.082   1_554 S
C106   C111    1.406   .     A
C106   C815    1.409   .     S
C107   H112    1.082   .     S
C107   C108    1.398   .     A
C107   C814    1.409   1_554 S
C108   C109    1.396   .     A
C108   H113    1.082   .     S
C109   H114    1.082   .     S
C109   C110    1.396   .     A
C110   C819    1.398   1_554 S
C110   H823    1.083   1_554 S
C111   H116    1.078   .     S
C111   C818    1.398   .     S
H115   C818    1.083   .     S
C119   C139    1.432   .     S
C119   O155    1.285   .     A
C119   O157    1.281   .     A
C120   C140    1.453   .     S
C120   O156    1.288   .     A
C120   O158    1.290   .     A
C121   C123    1.417   .     A
C121   C129    1.421   .     A
C121   C213    1.491   .     S
C122   C130    1.424   .     A
C122   C124    1.420   .     A
C122   C224    1.493   .     S
C123   F235    1.351   .     S
C123   N153    1.369   .     A
C124   N154    1.365   .     A
C124   F236    1.355   .     S
C125   H149    1.074   .     S
C125   C127    1.404   .     A
C125   N153    1.362   .     A
C126   H150    1.081   .     S
C126   N154    1.360   .     A
C126   C128    1.402   .     A
C127   H151    1.083   .     S
C127   C129    1.407   .     A
C128   H152    1.083   .     S
C128   C130    1.408   .     A
C129   C838    1.512   1_554 S
C130   C837    1.512   .     S
C131   O159    1.270   .     A
C131   C133    1.395   .     S
C131   O161    1.280   .     A
C132   C134    1.396   .     S
C132   O162    1.277   .     A
C132   O160    1.274   .     A
C134   C251    1.337   .     S
C134   F284    1.366   .     S
C135   H147    1.081   .     S
C135   C145    1.397   .     A
C135   C137    1.369   .     A
C136   H148    1.082   .     S
C136   C138    1.370   .     A
C136   C146    1.395   .     A
C137   C139    1.391   .     A
C137   F167    1.358   .     S
C138   F168    1.359   .     S
C138   C140    1.401   .     A
C139   C141    1.412   .     A
C140   C142    1.417   .     A
C141   C169    1.485   .     S
C141   C143    1.407   .     A
C142   C144    1.407   .     A
C142   C180    1.491   .     S
C143   C145    1.419   .     A
C143   C191    1.492   .     S
C144   C202    1.490   .     S
C144   C146    1.417   .     A
C145   C500    1.458   1_545 S
C146   C499    1.458   .     S
N153   Zn164   2.005   .     S
N154   Zn163   2.005   .     S
O155   Zn163   1.994   .     S
O156   Zn164   1.994   .     S
O157   Zn164   2.009   .     S
O158   Zn163   2.009   .     S
O159   Zn163   1.974   .     S
O160   Zn164   1.974   .     S
O161   Zn164   1.981   .     S
O162   Zn163   1.981   .     S
F165   C251    1.360   .     S
C169   C174    1.403   .     A
C169   C170    1.406   .     A
C170   C171    1.397   .     A
C170   H175    1.083   .     S
C171   H176    1.083   .     S
C171   C172    1.396   .     A
C172   C291    1.397   .     S
C172   H295    1.080   .     S
C173   H178    1.080   .     S
C174   H179    1.083   .     S
C174   C291    1.399   .     S
C180   C185    1.405   .     A
C180   C181    1.408   .     A
C181   H186    1.083   .     S
C181   C182    1.396   .     A
C182   C183    1.395   .     A
C183   C184    1.396   .     A
C183   H188    1.080   .     S
C184   H189    1.078   .     S
C184   C185    1.398   .     A
C185   H190    1.083   .     S
H187   C300    1.082   .     S
C191   C192    1.404   .     A
C191   C196    1.407   .     A
C192   H197    1.081   .     S
C192   C665    1.399   1_545 S
C193   H198    1.079   .     S
C193   C194    1.396   .     A
C193   C428    1.399   .     S
C194   H199    1.083   .     S
C195   H200    1.082   .     S
C195   C312    1.397   .     S
C195   C550    1.398   .     S
C196   H201    1.082   .     S
C196   C549    1.398   1_545 S
C202   C203    1.404   .     A
C202   C207    1.407   .     A
C203   H208    1.082   .     S
C203   C558    1.398   .     S
C204   H209    1.082   .     S
C204   C205    1.397   .     A
C204   C557    1.398   1_545 S
C205   C206    1.397   .     A
C205   H210    1.082   .     S
C206   H211    1.082   .     S
C206   C561    1.398   1_545 S
C207   H212    1.080   .     S
C207   C560    1.398   .     S
C213   C218    1.408   .     A
C213   C922    1.408   1_554 S
C214   H219    1.082   .     S
C214   C215    1.400   .     A
C214   C921    1.408   .     S
C216   H221    1.082   .     S
C216   C217    1.396   .     A
C216   C333    1.396   .     S
C217   C1044   1.398   .     S
C217   H930    1.082   .     S
C218   H223    1.083   .     S
C218   C807    1.398   1_554 S
H220   C333    1.081   .     S
H222   C925    1.082   1_554 S
C224   C229    1.406   .     A
C224   C933    1.409   .     S
C225   H230    1.082   .     S
C225   C226    1.398   .     A
C225   C932    1.409   1_554 S
C226   C227    1.396   .     A
C226   H231    1.082   .     S
C227   H232    1.082   .     S
C227   C228    1.396   .     A
C228   C937    1.398   1_554 S
C228   H941    1.083   1_554 S
C229   H234    1.078   .     S
C229   C936    1.398   .     S
H233   C936    1.083   .     S
C237   C257    1.432   .     S
C237   O273    1.285   .     A
C237   O275    1.281   .     A
C238   C258    1.453   .     S
C238   O274    1.288   .     A
C238   O276    1.290   .     A
C239   C241    1.417   .     A
C239   C247    1.421   .     A
C239   C331    1.491   .     S
C240   C248    1.424   .     A
C240   C242    1.420   .     A
C240   C342    1.493   .     S
C241   F353    1.351   .     S
C241   N271    1.369   .     A
C242   N272    1.365   .     A
C242   F354    1.355   .     S
C243   H267    1.074   .     S
C243   C245    1.404   .     A
C243   N271    1.362   .     A
C244   H268    1.081   .     S
C244   N272    1.360   .     A
C244   C246    1.402   .     A
C245   H269    1.083   .     S
C245   C247    1.407   .     A
C246   H270    1.083   .     S
C246   C248    1.408   .     A
C247   C956    1.512   1_554 S
C248   C955    1.512   .     S
C249   O277    1.270   .     A
C249   C251    1.395   .     S
C249   O279    1.280   .     A
C250   C252    1.396   .     S
C250   O280    1.277   .     A
C250   O278    1.274   .     A
C252   C15     1.337   1_655 S
C252   F48     1.366   1_655 S
C253   H265    1.081   .     S
C253   C263    1.397   .     A
C253   C255    1.369   .     A
C254   H266    1.082   .     S
C254   C256    1.370   .     A
C254   C264    1.395   .     A
C255   C257    1.391   .     A
C255   F285    1.358   .     S
C256   F286    1.359   .     S
C256   C258    1.401   .     A
C257   C259    1.412   .     A
C258   C260    1.417   .     A
C259   C287    1.485   .     S
C259   C261    1.407   .     A
C260   C262    1.407   .     A
C260   C298    1.491   .     S
C261   C263    1.419   .     A
C261   C309    1.492   .     S
C262   C320    1.490   .     S
C262   C264    1.417   .     A
C263   C618    1.458   1_545 S
C264   C617    1.458   .     S
N271   Zn282   2.005   .     S
N272   Zn281   2.005   .     S
O273   Zn281   1.994   .     S
O274   Zn282   1.994   .     S
O275   Zn282   2.009   .     S
O276   Zn281   2.009   .     S
O277   Zn281   1.974   .     S
O278   Zn282   1.974   .     S
O279   Zn282   1.981   .     S
O280   Zn281   1.981   .     S
F283   C15     1.360   1_655 S
C287   C292    1.403   .     A
C287   C288    1.406   .     A
C288   C289    1.397   .     A
C288   H293    1.083   .     S
C289   H294    1.083   .     S
C289   C290    1.396   .     A
C290   C55     1.397   1_655 S
C290   H59     1.080   1_655 S
C291   H296    1.080   .     S
C292   H297    1.083   .     S
C292   C55     1.399   1_655 S
C298   C303    1.405   .     A
C298   C299    1.408   .     A
C299   H304    1.083   .     S
C299   C300    1.396   .     A
C300   C301    1.395   .     A
C301   C302    1.396   .     A
C301   H306    1.080   .     S
C302   H307    1.078   .     S
C302   C303    1.398   .     A
C303   H308    1.083   .     S
H305   C64     1.082   1_655 S
C309   C310    1.404   .     A
C309   C314    1.407   .     A
C310   H315    1.081   .     S
C310   C429    1.399   1_645 S
C311   H316    1.079   .     S
C311   C312    1.396   .     A
C311   C546    1.399   .     S
C312   H317    1.083   .     S
C313   H318    1.082   .     S
C313   C76     1.397   1_655 S
C313   C668    1.398   .     S
C314   H319    1.082   .     S
C314   C667    1.398   1_545 S
C320   C321    1.404   .     A
C320   C325    1.407   .     A
C321   H326    1.082   .     S
C321   C676    1.398   .     S
C322   H327    1.082   .     S
C322   C323    1.397   .     A
C322   C675    1.398   1_545 S
C323   C324    1.397   .     A
C323   H328    1.082   .     S
C324   H329    1.082   .     S
C324   C679    1.398   1_545 S
C325   H330    1.080   .     S
C325   C678    1.398   .     S
C331   C336    1.408   .     A
C331   C1040   1.408   1_554 S
C332   H337    1.082   .     S
C332   C333    1.400   .     A
C332   C1039   1.408   .     S
C334   H339    1.082   .     S
C334   C335    1.396   .     A
C334   C97     1.396   1_655 S
C335   C808    1.398   1_655 S
C335   H1048   1.082   .     S
C336   H341    1.083   .     S
C336   C925    1.398   1_554 S
H338   C97     1.081   1_655 S
H340   C1043   1.082   1_554 S
C342   C347    1.406   .     A
C342   C1051   1.409   .     S
C343   H348    1.082   .     S
C343   C344    1.398   .     A
C343   C1050   1.409   1_554 S
C344   C345    1.396   .     A
C344   H349    1.082   .     S
C345   H350    1.082   .     S
C345   C346    1.396   .     A
C346   C1055   1.398   1_554 S
C346   H1059   1.083   1_554 S
C347   H352    1.078   .     S
C347   C1054   1.398   .     S
H351   C1054   1.083   .     S
C355   C375    1.432   .     S
C355   O391    1.285   .     A
C355   O393    1.281   .     A
C356   C376    1.453   .     S
C356   O392    1.288   .     A
C356   O394    1.290   .     A
C357   C359    1.417   .     A
C357   C365    1.421   .     A
C357   C449    1.491   .     S
C358   C366    1.424   .     A
C358   C360    1.420   .     A
C358   C460    1.493   .     S
C359   F471    1.351   .     S
C359   N389    1.369   .     A
C360   N390    1.365   .     A
C360   F472    1.355   .     S
C361   H385    1.074   .     S
C361   C363    1.404   .     A
C361   N389    1.362   .     A
C362   H386    1.081   .     S
C362   N390    1.360   .     A
C362   C364    1.402   .     A
C363   H387    1.083   .     S
C363   C365    1.407   .     A
C364   H388    1.083   .     S
C364   C366    1.408   .     A
C365   C1074   1.512   1_554 S
C366   C1073   1.512   .     S
C367   O395    1.270   .     A
C367   C369    1.395   .     S
C367   O397    1.280   .     A
C368   C370    1.396   .     S
C368   O398    1.277   .     A
C368   O396    1.274   .     A
C369   C606    1.337   1_455 S
C369   F637    1.360   1_455 S
C370   C487    1.337   .     S
C370   F520    1.366   .     S
C371   H383    1.081   .     S
C371   C381    1.397   .     A
C371   C373    1.369   .     A
C372   H384    1.082   .     S
C372   C374    1.370   .     A
C372   C382    1.395   .     A
C373   C375    1.391   .     A
C373   F403    1.358   .     S
C374   F404    1.359   .     S
C374   C376    1.401   .     A
C375   C377    1.412   .     A
C376   C378    1.417   .     A
C377   C405    1.485   .     S
C377   C379    1.407   .     A
C378   C380    1.407   .     A
C378   C416    1.491   .     S
C379   C381    1.419   .     A
C379   C427    1.492   .     S
C380   C438    1.490   .     S
C380   C382    1.417   .     A
C382   C27     1.458   1_565 S
N389   Zn400   2.005   .     S
N390   Zn399   2.005   .     S
O391   Zn399   1.994   .     S
O392   Zn400   1.994   .     S
O393   Zn400   2.009   .     S
O394   Zn399   2.009   .     S
O395   Zn399   1.974   .     S
O396   Zn400   1.974   .     S
O397   Zn400   1.981   .     S
O398   Zn399   1.981   .     S
F401   C487    1.360   .     S
F402   C606    1.366   1_455 S
C405   C410    1.403   .     A
C405   C406    1.406   .     A
C406   C407    1.397   .     A
C406   H411    1.083   .     S
C407   H412    1.083   .     S
C407   C408    1.396   .     A
C408   C527    1.397   .     S
C408   H531    1.080   .     S
C409   H414    1.080   .     S
C409   C644    1.397   1_455 S
C409   C646    1.399   1_455 S
C410   H415    1.083   .     S
C410   C527    1.399   .     S
H413   C644    1.080   1_455 S
C416   C421    1.405   .     A
C416   C417    1.408   .     A
C417   H422    1.083   .     S
C417   C418    1.396   .     A
C418   C419    1.395   .     A
C418   H659    1.082   1_455 S
C419   C420    1.396   .     A
C419   H424    1.080   .     S
C420   H425    1.078   .     S
C420   C421    1.398   .     A
C421   H426    1.083   .     S
H423   C536    1.082   .     S
C427   C428    1.404   .     A
C427   C432    1.407   .     A
C428   H433    1.081   .     S
C429   H434    1.079   .     S
C429   C430    1.396   .     A
C429   C310    1.399   1_465 S
C430   H435    1.083   .     S
C430   C667    1.397   1_455 S
C431   H436    1.082   .     S
C431   C548    1.397   .     S
C431   C78     1.398   1_565 S
C432   H437    1.082   .     S
C438   C439    1.404   .     A
C438   C443    1.407   .     A
C439   H444    1.082   .     S
C439   C86     1.398   1_565 S
C440   H445    1.082   .     S
C440   C441    1.397   .     A
C441   C442    1.397   .     A
C441   H446    1.082   .     S
C442   H447    1.082   .     S
C443   H448    1.080   .     S
C443   C88     1.398   1_565 S
C449   C454    1.408   .     A
C449   C1158   1.408   1_554 S
C450   H455    1.082   .     S
C450   C451    1.400   .     A
C450   C1157   1.408   .     S
C451   C688    1.396   1_455 S
C451   H692    1.081   1_455 S
C452   H457    1.082   .     S
C452   C453    1.396   .     A
C452   C569    1.396   .     S
C453   C1280   1.398   .     S
C453   H1166   1.082   .     S
C454   H459    1.083   .     S
C454   C1397   1.398   1_454 S
H456   C569    1.081   .     S
H458   C1161   1.082   1_554 S
C460   C465    1.406   .     A
C460   C1169   1.409   .     S
C461   H466    1.082   .     S
C461   C462    1.398   .     A
C461   C1168   1.409   1_554 S
C462   C463    1.396   .     A
C462   H467    1.082   .     S
C463   H468    1.082   .     S
C463   C464    1.396   .     A
C464   C1173   1.398   1_554 S
C464   H1177   1.083   1_554 S
C465   H470    1.078   .     S
C465   C1172   1.398   .     S
H469   C1172   1.083   .     S
C473   C493    1.432   .     S
C473   O509    1.285   .     A
C473   O511    1.281   .     A
C474   C494    1.453   .     S
C474   O510    1.288   .     A
C474   O512    1.290   .     A
C475   C477    1.417   .     A
C475   C483    1.421   .     A
C475   C567    1.491   .     S
C476   C484    1.424   .     A
C476   C478    1.420   .     A
C476   C578    1.493   .     S
C477   F589    1.351   .     S
C477   N507    1.369   .     A
C478   N508    1.365   .     A
C478   F590    1.355   .     S
C479   H503    1.074   .     S
C479   C481    1.404   .     A
C479   N507    1.362   .     A
C480   H504    1.081   .     S
C480   N508    1.360   .     A
C480   C482    1.402   .     A
C481   H505    1.083   .     S
C481   C483    1.407   .     A
C482   H506    1.083   .     S
C482   C484    1.408   .     A
C483   C1192   1.512   1_554 S
C484   C1191   1.512   .     S
C485   O513    1.270   .     A
C485   C487    1.395   .     S
C485   O515    1.280   .     A
C486   C488    1.396   .     S
C486   O516    1.277   .     A
C486   O514    1.274   .     A
C488   C605    1.337   .     S
C488   F638    1.366   .     S
C489   H501    1.081   .     S
C489   C499    1.397   .     A
C489   C491    1.369   .     A
C490   H502    1.082   .     S
C490   C492    1.370   .     A
C490   C500    1.395   .     A
C491   C493    1.391   .     A
C491   F521    1.358   .     S
C492   F522    1.359   .     S
C492   C494    1.401   .     A
C493   C495    1.412   .     A
C494   C496    1.417   .     A
C495   C523    1.485   .     S
C495   C497    1.407   .     A
C496   C498    1.407   .     A
C496   C534    1.491   .     S
C497   C499    1.419   .     A
C497   C545    1.492   .     S
C498   C556    1.490   .     S
C498   C500    1.417   .     A
C500   C145    1.458   1_565 S
N507   Zn518   2.005   .     S
N508   Zn517   2.005   .     S
O509   Zn517   1.994   .     S
O510   Zn518   1.994   .     S
O511   Zn518   2.009   .     S
O512   Zn517   2.009   .     S
O513   Zn517   1.974   .     S
O514   Zn518   1.974   .     S
O515   Zn518   1.981   .     S
O516   Zn517   1.981   .     S
F519   C605    1.360   .     S
C523   C528    1.403   .     A
C523   C524    1.406   .     A
C524   C525    1.397   .     A
C524   H529    1.083   .     S
C525   H530    1.083   .     S
C525   C526    1.396   .     A
C526   C645    1.397   .     S
C526   H649    1.080   .     S
C527   H532    1.080   .     S
C528   H533    1.083   .     S
C528   C645    1.399   .     S
C534   C539    1.405   .     A
C534   C535    1.408   .     A
C535   H540    1.083   .     S
C535   C536    1.396   .     A
C536   C537    1.395   .     A
C537   C538    1.396   .     A
C537   H542    1.080   .     S
C538   H543    1.078   .     S
C538   C539    1.398   .     A
C539   H544    1.083   .     S
H541   C654    1.082   .     S
C545   C546    1.404   .     A
C545   C550    1.407   .     A
C546   H551    1.081   .     S
C547   H552    1.079   .     S
C547   C548    1.396   .     A
C547   C74     1.399   1_565 S
C548   H553    1.083   .     S
C549   H554    1.082   .     S
C549   C666    1.397   .     S
C549   C196    1.398   1_565 S
C550   H555    1.082   .     S
C556   C557    1.404   .     A
C556   C561    1.407   .     A
C557   H562    1.082   .     S
C557   C204    1.398   1_565 S
C558   H563    1.082   .     S
C558   C559    1.397   .     A
C559   C560    1.397   .     A
C559   H564    1.082   .     S
C560   H565    1.082   .     S
C561   H566    1.080   .     S
C561   C206    1.398   1_565 S
C567   C572    1.408   .     A
C567   C1276   1.408   1_554 S
C568   H573    1.082   .     S
C568   C569    1.400   .     A
C568   C1275   1.408   .     S
C570   H575    1.082   .     S
C570   C571    1.396   .     A
C570   C687    1.396   .     S
C571   C1398   1.398   .     S
C571   H1284   1.082   .     S
C572   H577    1.083   .     S
C572   C1161   1.398   1_554 S
H574   C687    1.081   .     S
H576   C1279   1.082   1_554 S
C578   C583    1.406   .     A
C578   C1287   1.409   .     S
C579   H584    1.082   .     S
C579   C580    1.398   .     A
C579   C1286   1.409   1_554 S
C580   C581    1.396   .     A
C580   H585    1.082   .     S
C581   H586    1.082   .     S
C581   C582    1.396   .     A
C582   C1291   1.398   1_554 S
C582   H1295   1.083   1_554 S
C583   H588    1.078   .     S
C583   C1290   1.398   .     S
H587   C1290   1.083   .     S
C591   C611    1.432   .     S
C591   O627    1.285   .     A
C591   O629    1.281   .     A
C592   C612    1.453   .     S
C592   O628    1.288   .     A
C592   O630    1.290   .     A
C593   C595    1.417   .     A
C593   C601    1.421   .     A
C593   C685    1.491   .     S
C594   C602    1.424   .     A
C594   C596    1.420   .     A
C594   C696    1.493   .     S
C595   F707    1.351   .     S
C595   N625    1.369   .     A
C596   N626    1.365   .     A
C596   F708    1.355   .     S
C597   H621    1.074   .     S
C597   C599    1.404   .     A
C597   N625    1.362   .     A
C598   H622    1.081   .     S
C598   N626    1.360   .     A
C598   C600    1.402   .     A
C599   H623    1.083   .     S
C599   C601    1.407   .     A
C600   H624    1.083   .     S
C600   C602    1.408   .     A
C601   C1310   1.512   1_554 S
C602   C1309   1.512   .     S
C603   O631    1.270   .     A
C603   C605    1.395   .     S
C603   O633    1.280   .     A
C604   C606    1.396   .     S
C604   O634    1.277   .     A
C604   O632    1.274   .     A
C606   C369    1.337   1_655 S
C606   F402    1.366   1_655 S
C607   H619    1.081   .     S
C607   C617    1.397   .     A
C607   C609    1.369   .     A
C608   H620    1.082   .     S
C608   C610    1.370   .     A
C608   C618    1.395   .     A
C609   C611    1.391   .     A
C609   F639    1.358   .     S
C610   F640    1.359   .     S
C610   C612    1.401   .     A
C611   C613    1.412   .     A
C612   C614    1.417   .     A
C613   C641    1.485   .     S
C613   C615    1.407   .     A
C614   C616    1.407   .     A
C614   C652    1.491   .     S
C615   C617    1.419   .     A
C615   C663    1.492   .     S
C616   C674    1.490   .     S
C616   C618    1.417   .     A
C618   C263    1.458   1_565 S
N625   Zn636   2.005   .     S
N626   Zn635   2.005   .     S
O627   Zn635   1.994   .     S
O628   Zn636   1.994   .     S
O629   Zn636   2.009   .     S
O630   Zn635   2.009   .     S
O631   Zn635   1.974   .     S
O632   Zn636   1.974   .     S
O633   Zn636   1.981   .     S
O634   Zn635   1.981   .     S
F637   C369    1.360   1_655 S
C641   C646    1.403   .     A
C641   C642    1.406   .     A
C642   C643    1.397   .     A
C642   H647    1.083   .     S
C643   H648    1.083   .     S
C643   C644    1.396   .     A
C644   C409    1.397   1_655 S
C644   H413    1.080   1_655 S
C645   H650    1.080   .     S
C646   H651    1.083   .     S
C646   C409    1.399   1_655 S
C652   C657    1.405   .     A
C652   C653    1.408   .     A
C653   H658    1.083   .     S
C653   C654    1.396   .     A
C654   C655    1.395   .     A
C655   C656    1.396   .     A
C655   H660    1.080   .     S
C656   H661    1.078   .     S
C656   C657    1.398   .     A
C657   H662    1.083   .     S
H659   C418    1.082   1_655 S
C663   C664    1.404   .     A
C663   C668    1.407   .     A
C664   H669    1.081   .     S
C664   C75     1.399   1_655 S
C665   H670    1.079   .     S
C665   C666    1.396   .     A
C665   C192    1.399   1_565 S
C666   H671    1.083   .     S
C667   H672    1.082   .     S
C667   C430    1.397   1_655 S
C667   C314    1.398   1_565 S
C668   H673    1.082   .     S
C674   C675    1.404   .     A
C674   C679    1.407   .     A
C675   H680    1.082   .     S
C675   C322    1.398   1_565 S
C676   H681    1.082   .     S
C676   C677    1.397   .     A
C677   C678    1.397   .     A
C677   H682    1.082   .     S
C678   H683    1.082   .     S
C679   H684    1.080   .     S
C679   C324    1.398   1_565 S
C685   C690    1.408   .     A
C685   C1394   1.408   1_554 S
C686   H691    1.082   .     S
C686   C687    1.400   .     A
C686   C1393   1.408   .     S
C688   H693    1.082   .     S
C688   C689    1.396   .     A
C688   C451    1.396   1_655 S
C689   C1162   1.398   1_655 S
C689   H1402   1.082   .     S
C690   H695    1.083   .     S
C690   C1279   1.398   1_554 S
H692   C451    1.081   1_655 S
H694   C1397   1.082   1_554 S
C696   C701    1.406   .     A
C696   C1405   1.409   .     S
C697   H702    1.082   .     S
C697   C698    1.398   .     A
C697   C1404   1.409   1_554 S
C698   C699    1.396   .     A
C698   H703    1.082   .     S
C699   H704    1.082   .     S
C699   C700    1.396   .     A
C700   C1409   1.398   1_554 S
C700   H1413   1.083   1_554 S
C701   H706    1.078   .     S
C701   C1408   1.398   .     S
H705   C1408   1.083   .     S
C709   C729    1.432   .     S
C709   O745    1.285   .     A
C709   O747    1.281   .     A
C710   C730    1.453   .     S
C710   O746    1.288   .     A
C710   O748    1.290   .     A
C711   C713    1.417   .     A
C711   C719    1.421   .     A
C711   C803    1.491   .     S
C712   C720    1.424   .     A
C712   C714    1.420   .     A
C712   C814    1.493   .     S
C713   F825    1.351   .     S
C713   N743    1.369   .     A
C714   N744    1.365   .     A
C714   F826    1.355   .     S
C715   H739    1.074   .     S
C715   C717    1.404   .     A
C715   N743    1.362   .     A
C716   H740    1.081   .     S
C716   N744    1.360   .     A
C716   C718    1.402   .     A
C717   H741    1.083   .     S
C717   C719    1.407   .     A
C718   H742    1.083   .     S
C718   C720    1.408   .     A
C720   C11     1.512   1_556 S
C721   O749    1.270   .     A
C721   C723    1.395   .     S
C721   O751    1.280   .     A
C722   C724    1.396   .     S
C722   O752    1.277   .     A
C722   O750    1.274   .     A
C723   C960    1.337   1_455 S
C723   F991    1.360   1_455 S
C724   C841    1.337   .     S
C724   F874    1.366   .     S
C725   H737    1.081   .     S
C725   C735    1.397   .     A
C725   C727    1.369   .     A
C726   H738    1.082   .     S
C726   C728    1.370   .     A
C726   C736    1.395   .     A
C727   C729    1.391   .     A
C727   F757    1.358   .     S
C728   F758    1.359   .     S
C728   C730    1.401   .     A
C729   C731    1.412   .     A
C730   C732    1.417   .     A
C731   C759    1.485   .     S
C731   C733    1.407   .     A
C732   C734    1.407   .     A
C732   C770    1.491   .     S
C733   C735    1.419   .     A
C733   C781    1.492   .     S
C734   C792    1.490   .     S
C734   C736    1.417   .     A
C735   C1090   1.458   1_545 S
C736   C1089   1.458   .     S
N743   Zn754   2.005   .     S
N744   Zn753   2.005   .     S
O745   Zn753   1.994   .     S
O746   Zn754   1.994   .     S
O747   Zn754   2.009   .     S
O748   Zn753   2.009   .     S
O749   Zn753   1.974   .     S
O750   Zn754   1.974   .     S
O751   Zn754   1.981   .     S
O752   Zn753   1.981   .     S
F755   C841    1.360   .     S
F756   C960    1.366   1_455 S
C759   C764    1.403   .     A
C759   C760    1.406   .     A
C760   C761    1.397   .     A
C760   H765    1.083   .     S
C761   H766    1.083   .     S
C761   C762    1.396   .     A
C762   C881    1.397   .     S
C762   H885    1.080   .     S
C763   H768    1.080   .     S
C763   C998    1.397   1_455 S
C763   C1000   1.399   1_455 S
C764   H769    1.083   .     S
C764   C881    1.399   .     S
H767   C998    1.080   1_455 S
C770   C775    1.405   .     A
C770   C771    1.408   .     A
C771   H776    1.083   .     S
C771   C772    1.396   .     A
C772   C773    1.395   .     A
C772   H1013   1.082   1_455 S
C773   C774    1.396   .     A
C773   H778    1.080   .     S
C774   H779    1.078   .     S
C774   C775    1.398   .     A
C775   H780    1.083   .     S
H777   C890    1.082   .     S
C781   C782    1.404   .     A
C781   C786    1.407   .     A
C782   H787    1.081   .     S
C782   C1255   1.399   1_545 S
C783   H788    1.079   .     S
C783   C784    1.396   .     A
C783   C1372   1.399   1_455 S
C784   H789    1.083   .     S
C784   C1021   1.397   1_455 S
C785   H790    1.082   .     S
C785   C902    1.397   .     S
C785   C1140   1.398   .     S
C786   H791    1.082   .     S
C786   C1139   1.398   1_545 S
C792   C793    1.404   .     A
C792   C797    1.407   .     A
C793   H798    1.082   .     S
C793   C1148   1.398   .     S
C794   H799    1.082   .     S
C794   C795    1.397   .     A
C794   C1147   1.398   1_545 S
C795   C796    1.397   .     A
C795   H800    1.082   .     S
C796   H801    1.082   .     S
C796   C1151   1.398   1_545 S
C797   H802    1.080   .     S
C797   C1150   1.398   .     S
C803   C808    1.408   .     A
C804   H809    1.082   .     S
C804   C805    1.400   .     A
C804   C95     1.408   1_556 S
C805   C1042   1.396   1_455 S
C805   H1046   1.081   1_455 S
C806   H811    1.082   .     S
C806   C807    1.396   .     A
C806   C923    1.396   .     S
C807   C218    1.398   1_556 S
C807   H104    1.082   1_556 S
C808   H813    1.083   .     S
C808   C335    1.398   1_455 S
H810   C923    1.081   .     S
C814   C819    1.406   .     A
C814   C107    1.409   1_556 S
C815   H820    1.082   .     S
C815   C816    1.398   .     A
C816   C817    1.396   .     A
C816   H821    1.082   .     S
C817   H822    1.082   .     S
C817   C818    1.396   .     A
C819   H824    1.078   .     S
C819   C110    1.398   1_556 S
H823   C110    1.083   1_556 S
C827   C847    1.432   .     S
C827   O863    1.285   .     A
C827   O865    1.281   .     A
C828   C848    1.453   .     S
C828   O864    1.288   .     A
C828   O866    1.290   .     A
C829   C831    1.417   .     A
C829   C837    1.421   .     A
C829   C921    1.491   .     S
C830   C838    1.424   .     A
C830   C832    1.420   .     A
C830   C932    1.493   .     S
C831   F943    1.351   .     S
C831   N861    1.369   .     A
C832   N862    1.365   .     A
C832   F944    1.355   .     S
C833   H857    1.074   .     S
C833   C835    1.404   .     A
C833   N861    1.362   .     A
C834   H858    1.081   .     S
C834   N862    1.360   .     A
C834   C836    1.402   .     A
C835   H859    1.083   .     S
C835   C837    1.407   .     A
C836   H860    1.083   .     S
C836   C838    1.408   .     A
C838   C129    1.512   1_556 S
C839   O867    1.270   .     A
C839   C841    1.395   .     S
C839   O869    1.280   .     A
C840   C842    1.396   .     S
C840   O870    1.277   .     A
C840   O868    1.274   .     A
C842   C959    1.337   .     S
C842   F992    1.366   .     S
C843   H855    1.081   .     S
C843   C853    1.397   .     A
C843   C845    1.369   .     A
C844   H856    1.082   .     S
C844   C846    1.370   .     A
C844   C854    1.395   .     A
C845   C847    1.391   .     A
C845   F875    1.358   .     S
C846   F876    1.359   .     S
C846   C848    1.401   .     A
C847   C849    1.412   .     A
C848   C850    1.417   .     A
C849   C877    1.485   .     S
C849   C851    1.407   .     A
C850   C852    1.407   .     A
C850   C888    1.491   .     S
C851   C853    1.419   .     A
C851   C899    1.492   .     S
C852   C910    1.490   .     S
C852   C854    1.417   .     A
C853   C1208   1.458   1_545 S
C854   C1207   1.458   .     S
N861   Zn872   2.005   .     S
N862   Zn871   2.005   .     S
O863   Zn871   1.994   .     S
O864   Zn872   1.994   .     S
O865   Zn872   2.009   .     S
O866   Zn871   2.009   .     S
O867   Zn871   1.974   .     S
O868   Zn872   1.974   .     S
O869   Zn872   1.981   .     S
O870   Zn871   1.981   .     S
F873   C959    1.360   .     S
C877   C882    1.403   .     A
C877   C878    1.406   .     A
C878   C879    1.397   .     A
C878   H883    1.083   .     S
C879   H884    1.083   .     S
C879   C880    1.396   .     A
C880   C999    1.397   .     S
C880   H1003   1.080   .     S
C881   H886    1.080   .     S
C882   H887    1.083   .     S
C882   C999    1.399   .     S
C888   C893    1.405   .     A
C888   C889    1.408   .     A
C889   H894    1.083   .     S
C889   C890    1.396   .     A
C890   C891    1.395   .     A
C891   C892    1.396   .     A
C891   H896    1.080   .     S
C892   H897    1.078   .     S
C892   C893    1.398   .     A
C893   H898    1.083   .     S
H895   C1008   1.082   .     S
C899   C900    1.404   .     A
C899   C904    1.407   .     A
C900   H905    1.081   .     S
C900   C1373   1.399   1_545 S
C901   H906    1.079   .     S
C901   C902    1.396   .     A
C901   C1136   1.399   .     S
C902   H907    1.083   .     S
C903   H908    1.082   .     S
C903   C1020   1.397   .     S
C903   C1258   1.398   .     S
C904   H909    1.082   .     S
C904   C1257   1.398   1_545 S
C910   C911    1.404   .     A
C910   C915    1.407   .     A
C911   H916    1.082   .     S
C911   C1266   1.398   .     S
C912   H917    1.082   .     S
C912   C913    1.397   .     A
C912   C1265   1.398   1_545 S
C913   C914    1.397   .     A
C913   H918    1.082   .     S
C914   H919    1.082   .     S
C914   C1269   1.398   1_545 S
C915   H920    1.080   .     S
C915   C1268   1.398   .     S
C921   C926    1.408   .     A
C922   H927    1.082   .     S
C922   C923    1.400   .     A
C922   C213    1.408   1_556 S
C924   H929    1.082   .     S
C924   C925    1.396   .     A
C924   C1041   1.396   .     S
C925   C336    1.398   1_556 S
C925   H222    1.082   1_556 S
C926   H931    1.083   .     S
H928   C1041   1.081   .     S
C932   C937    1.406   .     A
C932   C225    1.409   1_556 S
C933   H938    1.082   .     S
C933   C934    1.398   .     A
C934   C935    1.396   .     A
C934   H939    1.082   .     S
C935   H940    1.082   .     S
C935   C936    1.396   .     A
C937   H942    1.078   .     S
C937   C228    1.398   1_556 S
H941   C228    1.083   1_556 S
C945   C965    1.432   .     S
C945   O981    1.285   .     A
C945   O983    1.281   .     A
C946   C966    1.453   .     S
C946   O982    1.288   .     A
C946   O984    1.290   .     A
C947   C949    1.417   .     A
C947   C955    1.421   .     A
C947   C1039   1.491   .     S
C948   C956    1.424   .     A
C948   C950    1.420   .     A
C948   C1050   1.493   .     S
C949   F1061   1.351   .     S
C949   N979    1.369   .     A
C950   N980    1.365   .     A
C950   F1062   1.355   .     S
C951   H975    1.074   .     S
C951   C953    1.404   .     A
C951   N979    1.362   .     A
C952   H976    1.081   .     S
C952   N980    1.360   .     A
C952   C954    1.402   .     A
C953   H977    1.083   .     S
C953   C955    1.407   .     A
C954   H978    1.083   .     S
C954   C956    1.408   .     A
C956   C247    1.512   1_556 S
C957   O985    1.270   .     A
C957   C959    1.395   .     S
C957   O987    1.280   .     A
C958   C960    1.396   .     S
C958   O988    1.277   .     A
C958   O986    1.274   .     A
C960   C723    1.337   1_655 S
C960   F756    1.366   1_655 S
C961   H973    1.081   .     S
C961   C971    1.397   .     A
C961   C963    1.369   .     A
C962   H974    1.082   .     S
C962   C964    1.370   .     A
C962   C972    1.395   .     A
C963   C965    1.391   .     A
C963   F993    1.358   .     S
C964   F994    1.359   .     S
C964   C966    1.401   .     A
C965   C967    1.412   .     A
C966   C968    1.417   .     A
C967   C995    1.485   .     S
C967   C969    1.407   .     A
C968   C970    1.407   .     A
C968   C1006   1.491   .     S
C969   C971    1.419   .     A
C969   C1017   1.492   .     S
C970   C1028   1.490   .     S
C970   C972    1.417   .     A
C971   C1326   1.458   1_545 S
C972   C1325   1.458   .     S
N979   Zn990   2.005   .     S
N980   Zn989   2.005   .     S
O981   Zn989   1.994   .     S
O982   Zn990   1.994   .     S
O983   Zn990   2.009   .     S
O984   Zn989   2.009   .     S
O985   Zn989   1.974   .     S
O986   Zn990   1.974   .     S
O987   Zn990   1.981   .     S
O988   Zn989   1.981   .     S
F991   C723    1.360   1_655 S
C995   C1000   1.403   .     A
C995   C996    1.406   .     A
C996   C997    1.397   .     A
C996   H1001   1.083   .     S
C997   H1002   1.083   .     S
C997   C998    1.396   .     A
C998   C763    1.397   1_655 S
C998   H767    1.080   1_655 S
C999   H1004   1.080   .     S
C1000  H1005   1.083   .     S
C1000  C763    1.399   1_655 S
C1006  C1011   1.405   .     A
C1006  C1007   1.408   .     A
C1007  H1012   1.083   .     S
C1007  C1008   1.396   .     A
C1008  C1009   1.395   .     A
C1009  C1010   1.396   .     A
C1009  H1014   1.080   .     S
C1010  H1015   1.078   .     S
C1010  C1011   1.398   .     A
C1011  H1016   1.083   .     S
H1013  C772    1.082   1_655 S
C1017  C1018   1.404   .     A
C1017  C1022   1.407   .     A
C1018  H1023   1.081   .     S
C1018  C1137   1.399   1_645 S
C1019  H1024   1.079   .     S
C1019  C1020   1.396   .     A
C1019  C1254   1.399   .     S
C1020  H1025   1.083   .     S
C1021  H1026   1.082   .     S
C1021  C784    1.397   1_655 S
C1021  C1376   1.398   .     S
C1022  H1027   1.082   .     S
C1022  C1375   1.398   1_545 S
C1028  C1029   1.404   .     A
C1028  C1033   1.407   .     A
C1029  H1034   1.082   .     S
C1029  C1384   1.398   .     S
C1030  H1035   1.082   .     S
C1030  C1031   1.397   .     A
C1030  C1383   1.398   1_545 S
C1031  C1032   1.397   .     A
C1031  H1036   1.082   .     S
C1032  H1037   1.082   .     S
C1032  C1387   1.398   1_545 S
C1033  H1038   1.080   .     S
C1033  C1386   1.398   .     S
C1039  C1044   1.408   .     A
C1040  H1045   1.082   .     S
C1040  C1041   1.400   .     A
C1040  C331    1.408   1_556 S
C1042  H1047   1.082   .     S
C1042  C1043   1.396   .     A
C1042  C805    1.396   1_655 S
C1043  C100    1.398   1_656 S
C1043  H340    1.082   1_556 S
C1044  H1049   1.083   .     S
H1046  C805    1.081   1_655 S
C1050  C1055   1.406   .     A
C1050  C343    1.409   1_556 S
C1051  H1056   1.082   .     S
C1051  C1052   1.398   .     A
C1052  C1053   1.396   .     A
C1052  H1057   1.082   .     S
C1053  H1058   1.082   .     S
C1053  C1054   1.396   .     A
C1055  H1060   1.078   .     S
C1055  C346    1.398   1_556 S
H1059  C346    1.083   1_556 S
C1063  C1083   1.432   .     S
C1063  O1099   1.285   .     A
C1063  O1101   1.281   .     A
C1064  C1084   1.453   .     S
C1064  O1100   1.288   .     A
C1064  O1102   1.290   .     A
C1065  C1067   1.417   .     A
C1065  C1073   1.421   .     A
C1065  C1157   1.491   .     S
C1066  C1074   1.424   .     A
C1066  C1068   1.420   .     A
C1066  C1168   1.493   .     S
C1067  F1179   1.351   .     S
C1067  N1097   1.369   .     A
C1068  N1098   1.365   .     A
C1068  F1180   1.355   .     S
C1069  H1093   1.074   .     S
C1069  C1071   1.404   .     A
C1069  N1097   1.362   .     A
C1070  H1094   1.081   .     S
C1070  N1098   1.360   .     A
C1070  C1072   1.402   .     A
C1071  H1095   1.083   .     S
C1071  C1073   1.407   .     A
C1072  H1096   1.083   .     S
C1072  C1074   1.408   .     A
C1074  C365    1.512   1_556 S
C1075  O1103   1.270   .     A
C1075  C1077   1.395   .     S
C1075  O1105   1.280   .     A
C1076  C1078   1.396   .     S
C1076  O1106   1.277   .     A
C1076  O1104   1.274   .     A
C1077  C1314   1.337   1_455 S
C1077  F1345   1.360   1_455 S
C1078  C1195   1.337   .     S
C1078  F1228   1.366   .     S
C1079  H1091   1.081   .     S
C1079  C1089   1.397   .     A
C1079  C1081   1.369   .     A
C1080  H1092   1.082   .     S
C1080  C1082   1.370   .     A
C1080  C1090   1.395   .     A
C1081  C1083   1.391   .     A
C1081  F1111   1.358   .     S
C1082  F1112   1.359   .     S
C1082  C1084   1.401   .     A
C1083  C1085   1.412   .     A
C1084  C1086   1.417   .     A
C1085  C1113   1.485   .     S
C1085  C1087   1.407   .     A
C1086  C1088   1.407   .     A
C1086  C1124   1.491   .     S
C1087  C1089   1.419   .     A
C1087  C1135   1.492   .     S
C1088  C1146   1.490   .     S
C1088  C1090   1.417   .     A
C1090  C735    1.458   1_565 S
N1097  Zn1108  2.005   .     S
N1098  Zn1107  2.005   .     S
O1099  Zn1107  1.994   .     S
O1100  Zn1108  1.994   .     S
O1101  Zn1108  2.009   .     S
O1102  Zn1107  2.009   .     S
O1103  Zn1107  1.974   .     S
O1104  Zn1108  1.974   .     S
O1105  Zn1108  1.981   .     S
O1106  Zn1107  1.981   .     S
F1109  C1195   1.360   .     S
F1110  C1314   1.366   1_455 S
C1113  C1118   1.403   .     A
C1113  C1114   1.406   .     A
C1114  C1115   1.397   .     A
C1114  H1119   1.083   .     S
C1115  H1120   1.083   .     S
C1115  C1116   1.396   .     A
C1116  C1235   1.397   .     S
C1116  H1239   1.080   .     S
C1117  H1122   1.080   .     S
C1117  C1352   1.397   1_455 S
C1117  C1354   1.399   1_455 S
C1118  H1123   1.083   .     S
C1118  C1235   1.399   .     S
H1121  C1352   1.080   1_455 S
C1124  C1129   1.405   .     A
C1124  C1125   1.408   .     A
C1125  H1130   1.083   .     S
C1125  C1126   1.396   .     A
C1126  C1127   1.395   .     A
C1126  H1367   1.082   1_455 S
C1127  C1128   1.396   .     A
C1127  H1132   1.080   .     S
C1128  H1133   1.078   .     S
C1128  C1129   1.398   .     A
C1129  H1134   1.083   .     S
H1131  C1244   1.082   .     S
C1135  C1136   1.404   .     A
C1135  C1140   1.407   .     A
C1136  H1141   1.081   .     S
C1137  H1142   1.079   .     S
C1137  C1138   1.396   .     A
C1137  C1018   1.399   1_465 S
C1138  H1143   1.083   .     S
C1138  C1375   1.397   1_455 S
C1139  H1144   1.082   .     S
C1139  C1256   1.397   .     S
C1139  C786    1.398   1_565 S
C1140  H1145   1.082   .     S
C1146  C1147   1.404   .     A
C1146  C1151   1.407   .     A
C1147  H1152   1.082   .     S
C1147  C794    1.398   1_565 S
C1148  H1153   1.082   .     S
C1148  C1149   1.397   .     A
C1149  C1150   1.397   .     A
C1149  H1154   1.082   .     S
C1150  H1155   1.082   .     S
C1151  H1156   1.080   .     S
C1151  C796    1.398   1_565 S
C1157  C1162   1.408   .     A
C1158  H1163   1.082   .     S
C1158  C1159   1.400   .     A
C1158  C449    1.408   1_556 S
C1159  C1396   1.396   1_455 S
C1159  H1400   1.081   1_455 S
C1160  H1165   1.082   .     S
C1160  C1161   1.396   .     A
C1160  C1277   1.396   .     S
C1161  C572    1.398   1_556 S
C1161  H458    1.082   1_556 S
C1162  H1167   1.083   .     S
C1162  C689    1.398   1_455 S
H1164  C1277   1.081   .     S
C1168  C1173   1.406   .     A
C1168  C461    1.409   1_556 S
C1169  H1174   1.082   .     S
C1169  C1170   1.398   .     A
C1170  C1171   1.396   .     A
C1170  H1175   1.082   .     S
C1171  H1176   1.082   .     S
C1171  C1172   1.396   .     A
C1173  H1178   1.078   .     S
C1173  C464    1.398   1_556 S
H1177  C464    1.083   1_556 S
C1181  C1201   1.432   .     S
C1181  O1217   1.285   .     A
C1181  O1219   1.281   .     A
C1182  C1202   1.453   .     S
C1182  O1218   1.288   .     A
C1182  O1220   1.290   .     A
C1183  C1185   1.417   .     A
C1183  C1191   1.421   .     A
C1183  C1275   1.491   .     S
C1184  C1192   1.424   .     A
C1184  C1186   1.420   .     A
C1184  C1286   1.493   .     S
C1185  F1297   1.351   .     S
C1185  N1215   1.369   .     A
C1186  N1216   1.365   .     A
C1186  F1298   1.355   .     S
C1187  H1211   1.074   .     S
C1187  C1189   1.404   .     A
C1187  N1215   1.362   .     A
C1188  H1212   1.081   .     S
C1188  N1216   1.360   .     A
C1188  C1190   1.402   .     A
C1189  H1213   1.083   .     S
C1189  C1191   1.407   .     A
C1190  H1214   1.083   .     S
C1190  C1192   1.408   .     A
C1192  C483    1.512   1_556 S
C1193  O1221   1.270   .     A
C1193  C1195   1.395   .     S
C1193  O1223   1.280   .     A
C1194  C1196   1.396   .     S
C1194  O1224   1.277   .     A
C1194  O1222   1.274   .     A
C1196  C1313   1.337   .     S
C1196  F1346   1.366   .     S
C1197  H1209   1.081   .     S
C1197  C1207   1.397   .     A
C1197  C1199   1.369   .     A
C1198  H1210   1.082   .     S
C1198  C1200   1.370   .     A
C1198  C1208   1.395   .     A
C1199  C1201   1.391   .     A
C1199  F1229   1.358   .     S
C1200  F1230   1.359   .     S
C1200  C1202   1.401   .     A
C1201  C1203   1.412   .     A
C1202  C1204   1.417   .     A
C1203  C1231   1.485   .     S
C1203  C1205   1.407   .     A
C1204  C1206   1.407   .     A
C1204  C1242   1.491   .     S
C1205  C1207   1.419   .     A
C1205  C1253   1.492   .     S
C1206  C1264   1.490   .     S
C1206  C1208   1.417   .     A
C1208  C853    1.458   1_565 S
N1215  Zn1226  2.005   .     S
N1216  Zn1225  2.005   .     S
O1217  Zn1225  1.994   .     S
O1218  Zn1226  1.994   .     S
O1219  Zn1226  2.009   .     S
O1220  Zn1225  2.009   .     S
O1221  Zn1225  1.974   .     S
O1222  Zn1226  1.974   .     S
O1223  Zn1226  1.981   .     S
O1224  Zn1225  1.981   .     S
F1227  C1313   1.360   .     S
C1231  C1236   1.403   .     A
C1231  C1232   1.406   .     A
C1232  C1233   1.397   .     A
C1232  H1237   1.083   .     S
C1233  H1238   1.083   .     S
C1233  C1234   1.396   .     A
C1234  C1353   1.397   .     S
C1234  H1357   1.080   .     S
C1235  H1240   1.080   .     S
C1236  H1241   1.083   .     S
C1236  C1353   1.399   .     S
C1242  C1247   1.405   .     A
C1242  C1243   1.408   .     A
C1243  H1248   1.083   .     S
C1243  C1244   1.396   .     A
C1244  C1245   1.395   .     A
C1245  C1246   1.396   .     A
C1245  H1250   1.080   .     S
C1246  H1251   1.078   .     S
C1246  C1247   1.398   .     A
C1247  H1252   1.083   .     S
H1249  C1362   1.082   .     S
C1253  C1254   1.404   .     A
C1253  C1258   1.407   .     A
C1254  H1259   1.081   .     S
C1255  H1260   1.079   .     S
C1255  C1256   1.396   .     A
C1255  C782    1.399   1_565 S
C1256  H1261   1.083   .     S
C1257  H1262   1.082   .     S
C1257  C1374   1.397   .     S
C1257  C904    1.398   1_565 S
C1258  H1263   1.082   .     S
C1264  C1265   1.404   .     A
C1264  C1269   1.407   .     A
C1265  H1270   1.082   .     S
C1265  C912    1.398   1_565 S
C1266  H1271   1.082   .     S
C1266  C1267   1.397   .     A
C1267  C1268   1.397   .     A
C1267  H1272   1.082   .     S
C1268  H1273   1.082   .     S
C1269  H1274   1.080   .     S
C1269  C914    1.398   1_565 S
C1275  C1280   1.408   .     A
C1276  H1281   1.082   .     S
C1276  C1277   1.400   .     A
C1276  C567    1.408   1_556 S
C1278  H1283   1.082   .     S
C1278  C1279   1.396   .     A
C1278  C1395   1.396   .     S
C1279  C690    1.398   1_556 S
C1279  H576    1.082   1_556 S
C1280  H1285   1.083   .     S
H1282  C1395   1.081   .     S
C1286  C1291   1.406   .     A
C1286  C579    1.409   1_556 S
C1287  H1292   1.082   .     S
C1287  C1288   1.398   .     A
C1288  C1289   1.396   .     A
C1288  H1293   1.082   .     S
C1289  H1294   1.082   .     S
C1289  C1290   1.396   .     A
C1291  H1296   1.078   .     S
C1291  C582    1.398   1_556 S
H1295  C582    1.083   1_556 S
C1299  C1319   1.432   .     S
C1299  O1335   1.285   .     A
C1299  O1337   1.281   .     A
C1300  C1320   1.453   .     S
C1300  O1336   1.288   .     A
C1300  O1338   1.290   .     A
C1301  C1303   1.417   .     A
C1301  C1309   1.421   .     A
C1301  C1393   1.491   .     S
C1302  C1310   1.424   .     A
C1302  C1304   1.420   .     A
C1302  C1404   1.493   .     S
C1303  F1415   1.351   .     S
C1303  N1333   1.369   .     A
C1304  N1334   1.365   .     A
C1304  F1416   1.355   .     S
C1305  H1329   1.074   .     S
C1305  C1307   1.404   .     A
C1305  N1333   1.362   .     A
C1306  H1330   1.081   .     S
C1306  N1334   1.360   .     A
C1306  C1308   1.402   .     A
C1307  H1331   1.083   .     S
C1307  C1309   1.407   .     A
C1308  H1332   1.083   .     S
C1308  C1310   1.408   .     A
C1310  C601    1.512   1_556 S
C1311  O1339   1.270   .     A
C1311  C1313   1.395   .     S
C1311  O1341   1.280   .     A
C1312  C1314   1.396   .     S
C1312  O1342   1.277   .     A
C1312  O1340   1.274   .     A
C1314  C1077   1.337   1_655 S
C1314  F1110   1.366   1_655 S
C1315  H1327   1.081   .     S
C1315  C1325   1.397   .     A
C1315  C1317   1.369   .     A
C1316  H1328   1.082   .     S
C1316  C1318   1.370   .     A
C1316  C1326   1.395   .     A
C1317  C1319   1.391   .     A
C1317  F1347   1.358   .     S
C1318  F1348   1.359   .     S
C1318  C1320   1.401   .     A
C1319  C1321   1.412   .     A
C1320  C1322   1.417   .     A
C1321  C1349   1.485   .     S
C1321  C1323   1.407   .     A
C1322  C1324   1.407   .     A
C1322  C1360   1.491   .     S
C1323  C1325   1.419   .     A
C1323  C1371   1.492   .     S
C1324  C1382   1.490   .     S
C1324  C1326   1.417   .     A
C1326  C971    1.458   1_565 S
N1333  Zn1344  2.005   .     S
N1334  Zn1343  2.005   .     S
O1335  Zn1343  1.994   .     S
O1336  Zn1344  1.994   .     S
O1337  Zn1344  2.009   .     S
O1338  Zn1343  2.009   .     S
O1339  Zn1343  1.974   .     S
O1340  Zn1344  1.974   .     S
O1341  Zn1344  1.981   .     S
O1342  Zn1343  1.981   .     S
F1345  C1077   1.360   1_655 S
C1349  C1354   1.403   .     A
C1349  C1350   1.406   .     A
C1350  C1351   1.397   .     A
C1350  H1355   1.083   .     S
C1351  H1356   1.083   .     S
C1351  C1352   1.396   .     A
C1352  C1117   1.397   1_655 S
C1352  H1121   1.080   1_655 S
C1353  H1358   1.080   .     S
C1354  H1359   1.083   .     S
C1354  C1117   1.399   1_655 S
C1360  C1365   1.405   .     A
C1360  C1361   1.408   .     A
C1361  H1366   1.083   .     S
C1361  C1362   1.396   .     A
C1362  C1363   1.395   .     A
C1363  C1364   1.396   .     A
C1363  H1368   1.080   .     S
C1364  H1369   1.078   .     S
C1364  C1365   1.398   .     A
C1365  H1370   1.083   .     S
H1367  C1126   1.082   1_655 S
C1371  C1372   1.404   .     A
C1371  C1376   1.407   .     A
C1372  H1377   1.081   .     S
C1372  C783    1.399   1_655 S
C1373  H1378   1.079   .     S
C1373  C1374   1.396   .     A
C1373  C900    1.399   1_565 S
C1374  H1379   1.083   .     S
C1375  H1380   1.082   .     S
C1375  C1138   1.397   1_655 S
C1375  C1022   1.398   1_565 S
C1376  H1381   1.082   .     S
C1382  C1383   1.404   .     A
C1382  C1387   1.407   .     A
C1383  H1388   1.082   .     S
C1383  C1030   1.398   1_565 S
C1384  H1389   1.082   .     S
C1384  C1385   1.397   .     A
C1385  C1386   1.397   .     A
C1385  H1390   1.082   .     S
C1386  H1391   1.082   .     S
C1387  H1392   1.080   .     S
C1387  C1032   1.398   1_565 S
C1393  C1398   1.408   .     A
C1394  H1399   1.082   .     S
C1394  C1395   1.400   .     A
C1394  C685    1.408   1_556 S
C1396  H1401   1.082   .     S
C1396  C1397   1.396   .     A
C1396  C1159   1.396   1_655 S
C1397  C454    1.398   1_656 S
C1397  H694    1.082   1_556 S
C1398  H1403   1.083   .     S
H1400  C1159   1.081   1_655 S
C1404  C1409   1.406   .     A
C1404  C697    1.409   1_556 S
C1405  H1410   1.082   .     S
C1405  C1406   1.398   .     A
C1406  C1407   1.396   .     A
C1406  H1411   1.082   .     S
C1407  H1412   1.082   .     S
C1407  C1408   1.396   .     A
C1409  H1414   1.078   .     S
C1409  C700    1.398   1_556 S
H1413  C700    1.083   1_556 S
