data_str_m3_o1_o16_pcu_sym.255
_audit_creation_date              2020-01-03
_audit_creation_method            'Materials Studio'
_symmetry_space_group_name_H-M    'P1'
_symmetry_Int_Tables_number       1
_symmetry_cell_setting            triclinic
loop_
_symmetry_equiv_pos_as_xyz
  x,y,z
_cell_length_a                    29.7636
_cell_length_b                    32.0959
_cell_length_c                    26.1924
_cell_angle_alpha                 91.8276
_cell_angle_beta                  71.6045
_cell_angle_gamma                 88.8125
loop_
_atom_site_label
_atom_site_type_symbol
_atom_site_fract_x
_atom_site_fract_y
_atom_site_fract_z
_atom_site_U_iso_or_equiv
_atom_site_adp_type
_atom_site_occupancy
O1     O     0.12846   0.22775   0.25000   0.00000  Uiso   1.00
O2     O     0.20490   0.22774   0.25000   0.00000  Uiso   1.00
C3     C     0.16645   0.24657   0.24987   0.00000  Uiso   1.00
O4     O     0.10947   0.16666   0.32681   0.00000  Uiso   1.00
O5     O     0.18591   0.16665   0.32681   0.00000  Uiso   1.00
C6     C     0.14076   0.17089   0.35190   0.00000  Uiso   1.00
Zn7    Zn    0.11562   0.16667   0.25000   0.00000  Uiso   1.00
Zn8    Zn    0.21771   0.16666   0.25000   0.00000  Uiso   1.00
O9     O     0.12843   0.10559   0.24999   0.00000  Uiso   1.00
O10    O     0.20488   0.10558   0.24999   0.00000  Uiso   1.00
O11    O     0.14742   0.16668   0.17319   0.00000  Uiso   1.00
O12    O     0.22387   0.16667   0.17319   0.00000  Uiso   1.00
C13    C     0.16664   0.08679   0.25166   0.00000  Uiso   1.00
C14    C     0.19263   0.16136   0.14857   0.00000  Uiso   1.00
C15    C     0.26717   0.16022   0.00432   0.00000  Uiso   1.00
H16    H     0.30372   0.16143   0.47908   0.00000  Uiso   1.00
C17    C     0.20823   0.15206   0.09036   0.00000  Uiso   1.00
C18    C     0.07742   0.18137   0.44104   0.00000  Uiso   1.00
C19    C     0.06419   0.18551   0.49697   0.00000  Uiso   1.00
C20    C     0.09821   0.18013   0.02275   0.00000  Uiso   1.00
C21    C     0.14651   0.17503   0.49209   0.00000  Uiso   1.00
C22    C     0.15947   0.18472   0.43767   0.00000  Uiso   1.00
C23    C     0.18278   0.16448   0.01401   0.00000  Uiso   1.00
C24    C     0.23065   0.17119   0.48377   0.00000  Uiso   1.00
C25    C     0.24107   0.19081   0.43496   0.00000  Uiso   1.00
C26    C     0.20477   0.20109   0.41408   0.00000  Uiso   1.00
C27    C     0.17358   0.14738   0.06477   0.00000  Uiso   1.00
C28    C     0.25638   0.14981   0.05826   0.00000  Uiso   1.00
C29    C     0.12555   0.18012   0.41051   0.00000  Uiso   1.00
H30    H     0.05023   0.17967   0.42201   0.00000  Uiso   1.00
C31    C     0.19351   0.31116   0.27815   0.00000  Uiso   1.00
C32    C     0.19319   0.02083   0.28151   0.00000  Uiso   1.00
C33    C     0.16660   0.04260   0.25400   0.00000  Uiso   1.00
C34    C     0.13914   0.02166   0.22730   0.00000  Uiso   1.00
H35    H     0.11830   0.03825   0.20677   0.00000  Uiso   1.00
C36    C     0.13886   0.31235   0.22598   0.00000  Uiso   1.00
H37    H     0.11866   0.29637   0.20389   0.00000  Uiso   1.00
C38    C     0.16602   0.29072   0.25138   0.00000  Uiso   1.00
C39    C     0.31490   0.13190   0.23360   0.00000  Uiso   1.00
H40    H     0.30145   0.10400   0.22020   0.00000  Uiso   1.00
C41    C     0.02942   0.13200   0.23319   0.00000  Uiso   1.00
N42    N     0.04760   0.16668   0.25001   0.00000  Uiso   1.00
C43    C     0.01714   0.20185   0.26678   0.00000  Uiso   1.00
C44    C     0.30356   0.20141   0.26475   0.00000  Uiso   1.00
H45    H     0.28083   0.22906   0.27501   0.00000  Uiso   1.00
N46    N     0.28573   0.16665   0.25000   0.00000  Uiso   1.00
C47    C     0.29558   0.13360   0.07868   0.00000  Uiso   1.00
C48    C     0.28535   0.09040   0.10196   0.00000  Uiso   1.00
H49    H     0.25360   0.09132   0.13827   0.00000  Uiso   1.00
H50    H     0.27969   0.06815   0.07137   0.00000  Uiso   1.00
H51    H     0.31604   0.07882   0.11358   0.00000  Uiso   1.00
H52    H     0.32925   0.12972   0.04498   0.00000  Uiso   1.00
H53    H     0.30198   0.15591   0.10867   0.00000  Uiso   1.00
C54    C     0.21955   0.04145   0.31631   0.00000  Uiso   1.00
C55    C     0.18540   0.06299   0.36705   0.00000  Uiso   1.00
H56    H     0.16349   0.08756   0.35678   0.00000  Uiso   1.00
H57    H     0.16133   0.04004   0.39166   0.00000  Uiso   1.00
H58    H     0.20575   0.07756   0.39153   0.00000  Uiso   1.00
H59    H     0.24109   0.01794   0.32949   0.00000  Uiso   1.00
H60    H     0.24569   0.06352   0.29333   0.00000  Uiso   1.00
H61    H     0.05167   0.10418   0.21948   0.00000  Uiso   1.00
C62    C     0.02968   0.24273   0.28892   0.00000  Uiso   1.00
C63    C     0.03673   0.23908   0.34399   0.00000  Uiso   1.00
H64    H     0.02144   0.21003   0.36280   0.00000  Uiso   1.00
H65    H     0.07456   0.24000   0.34102   0.00000  Uiso   1.00
H66    H     0.01851   0.26576   0.37128   0.00000  Uiso   1.00
H67    H     0.05828   0.25799   0.25892   0.00000  Uiso   1.00
H68    H     0.00029   0.26632   0.29527   0.00000  Uiso   1.00
H69    H     0.27643   0.20163   0.41600   0.00000  Uiso   1.00
C70    C     0.13395   0.11660   0.08559   0.00000  Uiso   1.00
C71    C     0.15274   0.07482   0.09836   0.00000  Uiso   1.00
H72    H     0.18087   0.06144   0.06239   0.00000  Uiso   1.00
H73    H     0.16743   0.07866   0.13216   0.00000  Uiso   1.00
H74    H     0.12344   0.05263   0.11006   0.00000  Uiso   1.00
H75    H     0.10588   0.12970   0.12163   0.00000  Uiso   1.00
H76    H     0.11684   0.10907   0.05460   0.00000  Uiso   1.00
H77    H     0.08669   0.18110   0.06627   0.00000  Uiso   1.00
H78    H     0.02749   0.19125   0.02034   0.00000  Uiso   1.00
C79    C     0.20967   0.24047   0.38300   0.00000  Uiso   1.00
C80    C     0.18906   0.27785   0.42142   0.00000  Uiso   1.00
H81    H     0.15038   0.27469   0.44106   0.00000  Uiso   1.00
H82    H     0.20680   0.28054   0.45283   0.00000  Uiso   1.00
H83    H     0.19475   0.30677   0.39868   0.00000  Uiso   1.00
H84    H     0.24752   0.24619   0.36211   0.00000  Uiso   1.00
H85    H     0.19094   0.23880   0.35282   0.00000  Uiso   1.00
H86    H     0.21471   0.29353   0.29716   0.00000  Uiso   1.00
O87    O     0.46179   0.22775   0.25000   0.00000  Uiso   1.00
O88    O     0.53823   0.22774   0.25000   0.00000  Uiso   1.00
C89    C     0.49978   0.24657   0.24987   0.00000  Uiso   1.00
O90    O     0.44280   0.16666   0.32681   0.00000  Uiso   1.00
O91    O     0.51924   0.16665   0.32681   0.00000  Uiso   1.00
C92    C     0.47410   0.17089   0.35190   0.00000  Uiso   1.00
Zn93   Zn    0.44896   0.16667   0.25000   0.00000  Uiso   1.00
Zn94   Zn    0.55104   0.16666   0.25000   0.00000  Uiso   1.00
O95    O     0.46177   0.10559   0.24999   0.00000  Uiso   1.00
O96    O     0.53821   0.10558   0.24999   0.00000  Uiso   1.00
O97    O     0.48076   0.16668   0.17319   0.00000  Uiso   1.00
O98    O     0.55720   0.16667   0.17319   0.00000  Uiso   1.00
C99    C     0.49997   0.08679   0.25166   0.00000  Uiso   1.00
C100   C     0.52596   0.16136   0.14857   0.00000  Uiso   1.00
C101   C     0.60051   0.16022   0.00432   0.00000  Uiso   1.00
H102   H     0.63706   0.16143   0.47908   0.00000  Uiso   1.00
C103   C     0.54157   0.15206   0.09036   0.00000  Uiso   1.00
C104   C     0.41076   0.18137   0.44104   0.00000  Uiso   1.00
C105   C     0.39752   0.18551   0.49697   0.00000  Uiso   1.00
C106   C     0.43154   0.18013   0.02275   0.00000  Uiso   1.00
C107   C     0.47984   0.17503   0.49209   0.00000  Uiso   1.00
C108   C     0.49280   0.18472   0.43767   0.00000  Uiso   1.00
C109   C     0.51611   0.16448   0.01401   0.00000  Uiso   1.00
C110   C     0.56399   0.17119   0.48377   0.00000  Uiso   1.00
C111   C     0.57441   0.19081   0.43496   0.00000  Uiso   1.00
C112   C     0.53810   0.20109   0.41408   0.00000  Uiso   1.00
C113   C     0.50692   0.14738   0.06477   0.00000  Uiso   1.00
C114   C     0.58971   0.14981   0.05826   0.00000  Uiso   1.00
C115   C     0.45888   0.18012   0.41051   0.00000  Uiso   1.00
H116   H     0.38357   0.17967   0.42201   0.00000  Uiso   1.00
C117   C     0.52685   0.31116   0.27815   0.00000  Uiso   1.00
C118   C     0.52653   0.02083   0.28151   0.00000  Uiso   1.00
C119   C     0.49994   0.04260   0.25400   0.00000  Uiso   1.00
C120   C     0.47248   0.02166   0.22730   0.00000  Uiso   1.00
H121   H     0.45163   0.03825   0.20677   0.00000  Uiso   1.00
C122   C     0.47220   0.31235   0.22598   0.00000  Uiso   1.00
H123   H     0.45199   0.29637   0.20389   0.00000  Uiso   1.00
C124   C     0.49935   0.29072   0.25138   0.00000  Uiso   1.00
C125   C     0.64823   0.13190   0.23360   0.00000  Uiso   1.00
H126   H     0.63478   0.10400   0.22020   0.00000  Uiso   1.00
C127   C     0.36276   0.13200   0.23319   0.00000  Uiso   1.00
N128   N     0.38093   0.16668   0.25001   0.00000  Uiso   1.00
C129   C     0.35047   0.20185   0.26678   0.00000  Uiso   1.00
C130   C     0.63690   0.20141   0.26475   0.00000  Uiso   1.00
H131   H     0.61417   0.22906   0.27501   0.00000  Uiso   1.00
N132   N     0.61906   0.16665   0.25000   0.00000  Uiso   1.00
C133   C     0.62892   0.13360   0.07868   0.00000  Uiso   1.00
C134   C     0.61868   0.09040   0.10196   0.00000  Uiso   1.00
H135   H     0.58694   0.09132   0.13827   0.00000  Uiso   1.00
H136   H     0.61302   0.06815   0.07137   0.00000  Uiso   1.00
H137   H     0.64937   0.07882   0.11358   0.00000  Uiso   1.00
H138   H     0.66258   0.12972   0.04498   0.00000  Uiso   1.00
H139   H     0.63531   0.15591   0.10867   0.00000  Uiso   1.00
C140   C     0.55289   0.04145   0.31631   0.00000  Uiso   1.00
C141   C     0.51874   0.06299   0.36705   0.00000  Uiso   1.00
H142   H     0.49682   0.08756   0.35678   0.00000  Uiso   1.00
H143   H     0.49466   0.04004   0.39166   0.00000  Uiso   1.00
H144   H     0.53908   0.07756   0.39153   0.00000  Uiso   1.00
H145   H     0.57442   0.01794   0.32949   0.00000  Uiso   1.00
H146   H     0.57903   0.06352   0.29333   0.00000  Uiso   1.00
H147   H     0.38500   0.10418   0.21948   0.00000  Uiso   1.00
C148   C     0.36301   0.24273   0.28892   0.00000  Uiso   1.00
C149   C     0.37006   0.23908   0.34399   0.00000  Uiso   1.00
H150   H     0.35478   0.21003   0.36280   0.00000  Uiso   1.00
H151   H     0.40790   0.24000   0.34102   0.00000  Uiso   1.00
H152   H     0.35184   0.26576   0.37128   0.00000  Uiso   1.00
H153   H     0.39161   0.25799   0.25892   0.00000  Uiso   1.00
H154   H     0.33362   0.26632   0.29527   0.00000  Uiso   1.00
H155   H     0.60976   0.20163   0.41600   0.00000  Uiso   1.00
C156   C     0.46729   0.11660   0.08559   0.00000  Uiso   1.00
C157   C     0.48607   0.07482   0.09836   0.00000  Uiso   1.00
H158   H     0.51420   0.06144   0.06239   0.00000  Uiso   1.00
H159   H     0.50076   0.07866   0.13216   0.00000  Uiso   1.00
H160   H     0.45677   0.05263   0.11006   0.00000  Uiso   1.00
H161   H     0.43921   0.12970   0.12163   0.00000  Uiso   1.00
H162   H     0.45017   0.10907   0.05460   0.00000  Uiso   1.00
H163   H     0.42003   0.18110   0.06627   0.00000  Uiso   1.00
H164   H     0.36083   0.19125   0.02034   0.00000  Uiso   1.00
C165   C     0.54301   0.24047   0.38300   0.00000  Uiso   1.00
C166   C     0.52239   0.27785   0.42142   0.00000  Uiso   1.00
H167   H     0.48372   0.27469   0.44106   0.00000  Uiso   1.00
H168   H     0.54013   0.28054   0.45283   0.00000  Uiso   1.00
H169   H     0.52808   0.30677   0.39868   0.00000  Uiso   1.00
H170   H     0.58085   0.24619   0.36211   0.00000  Uiso   1.00
H171   H     0.52427   0.23880   0.35282   0.00000  Uiso   1.00
H172   H     0.54805   0.29353   0.29716   0.00000  Uiso   1.00
O173   O     0.79512   0.22775   0.25000   0.00000  Uiso   1.00
O174   O     0.87157   0.22774   0.25000   0.00000  Uiso   1.00
C175   C     0.83312   0.24657   0.24987   0.00000  Uiso   1.00
O176   O     0.77613   0.16666   0.32681   0.00000  Uiso   1.00
O177   O     0.85258   0.16665   0.32681   0.00000  Uiso   1.00
C178   C     0.80743   0.17089   0.35190   0.00000  Uiso   1.00
Zn179  Zn    0.78229   0.16667   0.25000   0.00000  Uiso   1.00
Zn180  Zn    0.88438   0.16666   0.25000   0.00000  Uiso   1.00
O181   O     0.79510   0.10559   0.24999   0.00000  Uiso   1.00
O182   O     0.87154   0.10558   0.24999   0.00000  Uiso   1.00
O183   O     0.81409   0.16668   0.17319   0.00000  Uiso   1.00
O184   O     0.89053   0.16667   0.17319   0.00000  Uiso   1.00
C185   C     0.83330   0.08679   0.25166   0.00000  Uiso   1.00
C186   C     0.85930   0.16136   0.14857   0.00000  Uiso   1.00
C187   C     0.93384   0.16022   0.00432   0.00000  Uiso   1.00
H188   H     0.97039   0.16143   0.47908   0.00000  Uiso   1.00
C189   C     0.87490   0.15206   0.09036   0.00000  Uiso   1.00
C190   C     0.74409   0.18137   0.44104   0.00000  Uiso   1.00
C191   C     0.73086   0.18551   0.49697   0.00000  Uiso   1.00
C192   C     0.76488   0.18013   0.02275   0.00000  Uiso   1.00
C193   C     0.81318   0.17503   0.49209   0.00000  Uiso   1.00
C194   C     0.82614   0.18472   0.43767   0.00000  Uiso   1.00
C195   C     0.84945   0.16448   0.01401   0.00000  Uiso   1.00
C196   C     0.89732   0.17119   0.48377   0.00000  Uiso   1.00
C197   C     0.90774   0.19081   0.43496   0.00000  Uiso   1.00
C198   C     0.87144   0.20109   0.41408   0.00000  Uiso   1.00
C199   C     0.84025   0.14738   0.06477   0.00000  Uiso   1.00
C200   C     0.92305   0.14981   0.05826   0.00000  Uiso   1.00
C201   C     0.79222   0.18012   0.41051   0.00000  Uiso   1.00
H202   H     0.71690   0.17967   0.42201   0.00000  Uiso   1.00
C203   C     0.86018   0.31116   0.27815   0.00000  Uiso   1.00
C204   C     0.85986   0.02083   0.28151   0.00000  Uiso   1.00
C205   C     0.83327   0.04260   0.25400   0.00000  Uiso   1.00
C206   C     0.80581   0.02166   0.22730   0.00000  Uiso   1.00
H207   H     0.78497   0.03825   0.20677   0.00000  Uiso   1.00
C208   C     0.80553   0.31235   0.22598   0.00000  Uiso   1.00
H209   H     0.78533   0.29637   0.20389   0.00000  Uiso   1.00
C210   C     0.83269   0.29072   0.25138   0.00000  Uiso   1.00
C211   C     0.98156   0.13190   0.23360   0.00000  Uiso   1.00
H212   H     0.96812   0.10400   0.22020   0.00000  Uiso   1.00
C213   C     0.69609   0.13200   0.23319   0.00000  Uiso   1.00
N214   N     0.71426   0.16668   0.25001   0.00000  Uiso   1.00
C215   C     0.68380   0.20185   0.26678   0.00000  Uiso   1.00
C216   C     0.97023   0.20141   0.26475   0.00000  Uiso   1.00
H217   H     0.94750   0.22906   0.27501   0.00000  Uiso   1.00
N218   N     0.95239   0.16665   0.25000   0.00000  Uiso   1.00
C219   C     0.96225   0.13360   0.07868   0.00000  Uiso   1.00
C220   C     0.95202   0.09040   0.10196   0.00000  Uiso   1.00
H221   H     0.92027   0.09132   0.13827   0.00000  Uiso   1.00
H222   H     0.94636   0.06815   0.07137   0.00000  Uiso   1.00
H223   H     0.98271   0.07882   0.11358   0.00000  Uiso   1.00
H224   H     0.99591   0.12972   0.04498   0.00000  Uiso   1.00
H225   H     0.96865   0.15591   0.10867   0.00000  Uiso   1.00
C226   C     0.88622   0.04145   0.31631   0.00000  Uiso   1.00
C227   C     0.85207   0.06299   0.36705   0.00000  Uiso   1.00
H228   H     0.83015   0.08756   0.35678   0.00000  Uiso   1.00
H229   H     0.82800   0.04004   0.39166   0.00000  Uiso   1.00
H230   H     0.87242   0.07756   0.39153   0.00000  Uiso   1.00
H231   H     0.90775   0.01794   0.32949   0.00000  Uiso   1.00
H232   H     0.91236   0.06352   0.29333   0.00000  Uiso   1.00
H233   H     0.71833   0.10418   0.21948   0.00000  Uiso   1.00
C234   C     0.69635   0.24273   0.28892   0.00000  Uiso   1.00
C235   C     0.70340   0.23908   0.34399   0.00000  Uiso   1.00
H236   H     0.68811   0.21003   0.36280   0.00000  Uiso   1.00
H237   H     0.74123   0.24000   0.34102   0.00000  Uiso   1.00
H238   H     0.68518   0.26576   0.37128   0.00000  Uiso   1.00
H239   H     0.72495   0.25799   0.25892   0.00000  Uiso   1.00
H240   H     0.66696   0.26632   0.29527   0.00000  Uiso   1.00
H241   H     0.94310   0.20163   0.41600   0.00000  Uiso   1.00
C242   C     0.80062   0.11660   0.08559   0.00000  Uiso   1.00
C243   C     0.81941   0.07482   0.09836   0.00000  Uiso   1.00
H244   H     0.84753   0.06144   0.06239   0.00000  Uiso   1.00
H245   H     0.83409   0.07866   0.13216   0.00000  Uiso   1.00
H246   H     0.79010   0.05263   0.11006   0.00000  Uiso   1.00
H247   H     0.77254   0.12970   0.12163   0.00000  Uiso   1.00
H248   H     0.78350   0.10907   0.05460   0.00000  Uiso   1.00
H249   H     0.75336   0.18110   0.06627   0.00000  Uiso   1.00
H250   H     0.69416   0.19125   0.02034   0.00000  Uiso   1.00
C251   C     0.87634   0.24047   0.38300   0.00000  Uiso   1.00
C252   C     0.85573   0.27785   0.42142   0.00000  Uiso   1.00
H253   H     0.81705   0.27469   0.44106   0.00000  Uiso   1.00
H254   H     0.87347   0.28054   0.45283   0.00000  Uiso   1.00
H255   H     0.86141   0.30677   0.39868   0.00000  Uiso   1.00
H256   H     0.91419   0.24619   0.36211   0.00000  Uiso   1.00
H257   H     0.85761   0.23880   0.35282   0.00000  Uiso   1.00
H258   H     0.88138   0.29353   0.29716   0.00000  Uiso   1.00
O259   O     0.12846   0.56108   0.25000   0.00000  Uiso   1.00
O260   O     0.20490   0.56107   0.25000   0.00000  Uiso   1.00
C261   C     0.16645   0.57990   0.24987   0.00000  Uiso   1.00
O262   O     0.10947   0.50000   0.32681   0.00000  Uiso   1.00
O263   O     0.18591   0.49999   0.32681   0.00000  Uiso   1.00
C264   C     0.14076   0.50423   0.35190   0.00000  Uiso   1.00
Zn265  Zn    0.11562   0.50001   0.25000   0.00000  Uiso   1.00
Zn266  Zn    0.21771   0.49999   0.25000   0.00000  Uiso   1.00
O267   O     0.12843   0.43893   0.24999   0.00000  Uiso   1.00
O268   O     0.20488   0.43892   0.24999   0.00000  Uiso   1.00
O269   O     0.14742   0.50001   0.17319   0.00000  Uiso   1.00
O270   O     0.22387   0.50000   0.17319   0.00000  Uiso   1.00
C271   C     0.16664   0.42012   0.25166   0.00000  Uiso   1.00
C272   C     0.19263   0.49470   0.14857   0.00000  Uiso   1.00
C273   C     0.26717   0.49355   0.00432   0.00000  Uiso   1.00
H274   H     0.30372   0.49476   0.47908   0.00000  Uiso   1.00
C275   C     0.20823   0.48540   0.09036   0.00000  Uiso   1.00
C276   C     0.07742   0.51470   0.44104   0.00000  Uiso   1.00
C277   C     0.06419   0.51885   0.49697   0.00000  Uiso   1.00
C278   C     0.09821   0.51347   0.02275   0.00000  Uiso   1.00
C279   C     0.14651   0.50837   0.49209   0.00000  Uiso   1.00
C280   C     0.15947   0.51805   0.43767   0.00000  Uiso   1.00
C281   C     0.18278   0.49781   0.01401   0.00000  Uiso   1.00
C282   C     0.23065   0.50453   0.48377   0.00000  Uiso   1.00
C283   C     0.24107   0.52415   0.43496   0.00000  Uiso   1.00
C284   C     0.20477   0.53443   0.41408   0.00000  Uiso   1.00
C285   C     0.17358   0.48071   0.06477   0.00000  Uiso   1.00
C286   C     0.25638   0.48314   0.05826   0.00000  Uiso   1.00
C287   C     0.12555   0.51345   0.41051   0.00000  Uiso   1.00
H288   H     0.05023   0.51300   0.42201   0.00000  Uiso   1.00
C289   C     0.19351   0.64449   0.27815   0.00000  Uiso   1.00
C290   C     0.19319   0.35416   0.28151   0.00000  Uiso   1.00
C291   C     0.16660   0.37593   0.25400   0.00000  Uiso   1.00
C292   C     0.13914   0.35499   0.22730   0.00000  Uiso   1.00
H293   H     0.11830   0.37159   0.20677   0.00000  Uiso   1.00
C294   C     0.13886   0.64568   0.22598   0.00000  Uiso   1.00
H295   H     0.11866   0.62970   0.20389   0.00000  Uiso   1.00
C296   C     0.16602   0.62405   0.25138   0.00000  Uiso   1.00
C297   C     0.31490   0.46523   0.23360   0.00000  Uiso   1.00
H298   H     0.30145   0.43733   0.22020   0.00000  Uiso   1.00
C299   C     0.02942   0.46533   0.23319   0.00000  Uiso   1.00
N300   N     0.04760   0.50001   0.25001   0.00000  Uiso   1.00
C301   C     0.01714   0.53518   0.26678   0.00000  Uiso   1.00
C302   C     0.30356   0.53475   0.26475   0.00000  Uiso   1.00
H303   H     0.28083   0.56239   0.27501   0.00000  Uiso   1.00
N304   N     0.28573   0.49998   0.25000   0.00000  Uiso   1.00
C305   C     0.29558   0.46693   0.07868   0.00000  Uiso   1.00
C306   C     0.28535   0.42374   0.10196   0.00000  Uiso   1.00
H307   H     0.25360   0.42465   0.13827   0.00000  Uiso   1.00
H308   H     0.27969   0.40148   0.07137   0.00000  Uiso   1.00
H309   H     0.31604   0.41216   0.11358   0.00000  Uiso   1.00
H310   H     0.32925   0.46305   0.04498   0.00000  Uiso   1.00
H311   H     0.30198   0.48925   0.10867   0.00000  Uiso   1.00
C312   C     0.21955   0.37478   0.31631   0.00000  Uiso   1.00
C313   C     0.18540   0.39632   0.36705   0.00000  Uiso   1.00
H314   H     0.16349   0.42090   0.35678   0.00000  Uiso   1.00
H315   H     0.16133   0.37337   0.39166   0.00000  Uiso   1.00
H316   H     0.20575   0.41090   0.39153   0.00000  Uiso   1.00
H317   H     0.24109   0.35127   0.32949   0.00000  Uiso   1.00
H318   H     0.24569   0.39685   0.29333   0.00000  Uiso   1.00
H319   H     0.05167   0.43752   0.21948   0.00000  Uiso   1.00
C320   C     0.02968   0.57606   0.28892   0.00000  Uiso   1.00
C321   C     0.03673   0.57242   0.34399   0.00000  Uiso   1.00
H322   H     0.02144   0.54336   0.36280   0.00000  Uiso   1.00
H323   H     0.07456   0.57333   0.34102   0.00000  Uiso   1.00
H324   H     0.01851   0.59909   0.37128   0.00000  Uiso   1.00
H325   H     0.05828   0.59132   0.25892   0.00000  Uiso   1.00
H326   H     0.00029   0.59965   0.29527   0.00000  Uiso   1.00
H327   H     0.27643   0.53496   0.41600   0.00000  Uiso   1.00
C328   C     0.13395   0.44994   0.08559   0.00000  Uiso   1.00
C329   C     0.15274   0.40816   0.09836   0.00000  Uiso   1.00
H330   H     0.18087   0.39478   0.06239   0.00000  Uiso   1.00
H331   H     0.16743   0.41200   0.13216   0.00000  Uiso   1.00
H332   H     0.12344   0.38596   0.11006   0.00000  Uiso   1.00
H333   H     0.10588   0.46304   0.12163   0.00000  Uiso   1.00
H334   H     0.11684   0.44240   0.05460   0.00000  Uiso   1.00
H335   H     0.08669   0.51444   0.06627   0.00000  Uiso   1.00
H336   H     0.02749   0.52458   0.02034   0.00000  Uiso   1.00
C337   C     0.20967   0.57380   0.38300   0.00000  Uiso   1.00
C338   C     0.18906   0.61118   0.42142   0.00000  Uiso   1.00
H339   H     0.15038   0.60803   0.44106   0.00000  Uiso   1.00
H340   H     0.20680   0.61388   0.45283   0.00000  Uiso   1.00
H341   H     0.19475   0.64010   0.39868   0.00000  Uiso   1.00
H342   H     0.24752   0.57953   0.36211   0.00000  Uiso   1.00
H343   H     0.19094   0.57213   0.35282   0.00000  Uiso   1.00
H344   H     0.21471   0.62687   0.29716   0.00000  Uiso   1.00
O345   O     0.46179   0.56108   0.25000   0.00000  Uiso   1.00
O346   O     0.53823   0.56107   0.25000   0.00000  Uiso   1.00
C347   C     0.49978   0.57990   0.24987   0.00000  Uiso   1.00
O348   O     0.44280   0.50000   0.32681   0.00000  Uiso   1.00
O349   O     0.51924   0.49999   0.32681   0.00000  Uiso   1.00
C350   C     0.47410   0.50423   0.35190   0.00000  Uiso   1.00
Zn351  Zn    0.44896   0.50001   0.25000   0.00000  Uiso   1.00
Zn352  Zn    0.55104   0.49999   0.25000   0.00000  Uiso   1.00
O353   O     0.46177   0.43893   0.24999   0.00000  Uiso   1.00
O354   O     0.53821   0.43892   0.24999   0.00000  Uiso   1.00
O355   O     0.48076   0.50001   0.17319   0.00000  Uiso   1.00
O356   O     0.55720   0.50000   0.17319   0.00000  Uiso   1.00
C357   C     0.49997   0.42012   0.25166   0.00000  Uiso   1.00
C358   C     0.52596   0.49470   0.14857   0.00000  Uiso   1.00
C359   C     0.60051   0.49355   0.00432   0.00000  Uiso   1.00
H360   H     0.63706   0.49476   0.47908   0.00000  Uiso   1.00
C361   C     0.54157   0.48540   0.09036   0.00000  Uiso   1.00
C362   C     0.41076   0.51470   0.44104   0.00000  Uiso   1.00
C363   C     0.39752   0.51885   0.49697   0.00000  Uiso   1.00
C364   C     0.43154   0.51347   0.02275   0.00000  Uiso   1.00
C365   C     0.47984   0.50837   0.49209   0.00000  Uiso   1.00
C366   C     0.49280   0.51805   0.43767   0.00000  Uiso   1.00
C367   C     0.51611   0.49781   0.01401   0.00000  Uiso   1.00
C368   C     0.56399   0.50453   0.48377   0.00000  Uiso   1.00
C369   C     0.57441   0.52415   0.43496   0.00000  Uiso   1.00
C370   C     0.53810   0.53443   0.41408   0.00000  Uiso   1.00
C371   C     0.50692   0.48071   0.06477   0.00000  Uiso   1.00
C372   C     0.58971   0.48314   0.05826   0.00000  Uiso   1.00
C373   C     0.45888   0.51345   0.41051   0.00000  Uiso   1.00
H374   H     0.38357   0.51300   0.42201   0.00000  Uiso   1.00
C375   C     0.52685   0.64449   0.27815   0.00000  Uiso   1.00
C376   C     0.52653   0.35416   0.28151   0.00000  Uiso   1.00
C377   C     0.49994   0.37593   0.25400   0.00000  Uiso   1.00
C378   C     0.47248   0.35499   0.22730   0.00000  Uiso   1.00
H379   H     0.45163   0.37159   0.20677   0.00000  Uiso   1.00
C380   C     0.47220   0.64568   0.22598   0.00000  Uiso   1.00
H381   H     0.45199   0.62970   0.20389   0.00000  Uiso   1.00
C382   C     0.49935   0.62405   0.25138   0.00000  Uiso   1.00
C383   C     0.64823   0.46523   0.23360   0.00000  Uiso   1.00
H384   H     0.63478   0.43733   0.22020   0.00000  Uiso   1.00
C385   C     0.36276   0.46533   0.23319   0.00000  Uiso   1.00
N386   N     0.38093   0.50001   0.25001   0.00000  Uiso   1.00
C387   C     0.35047   0.53518   0.26678   0.00000  Uiso   1.00
C388   C     0.63690   0.53475   0.26475   0.00000  Uiso   1.00
H389   H     0.61417   0.56239   0.27501   0.00000  Uiso   1.00
N390   N     0.61906   0.49998   0.25000   0.00000  Uiso   1.00
C391   C     0.62892   0.46693   0.07868   0.00000  Uiso   1.00
C392   C     0.61868   0.42374   0.10196   0.00000  Uiso   1.00
H393   H     0.58694   0.42465   0.13827   0.00000  Uiso   1.00
H394   H     0.61302   0.40148   0.07137   0.00000  Uiso   1.00
H395   H     0.64937   0.41216   0.11358   0.00000  Uiso   1.00
H396   H     0.66258   0.46305   0.04498   0.00000  Uiso   1.00
H397   H     0.63531   0.48925   0.10867   0.00000  Uiso   1.00
C398   C     0.55289   0.37478   0.31631   0.00000  Uiso   1.00
C399   C     0.51874   0.39632   0.36705   0.00000  Uiso   1.00
H400   H     0.49682   0.42090   0.35678   0.00000  Uiso   1.00
H401   H     0.49466   0.37337   0.39166   0.00000  Uiso   1.00
H402   H     0.53908   0.41090   0.39153   0.00000  Uiso   1.00
H403   H     0.57442   0.35127   0.32949   0.00000  Uiso   1.00
H404   H     0.57903   0.39685   0.29333   0.00000  Uiso   1.00
H405   H     0.38500   0.43752   0.21948   0.00000  Uiso   1.00
C406   C     0.36301   0.57606   0.28892   0.00000  Uiso   1.00
C407   C     0.37006   0.57242   0.34399   0.00000  Uiso   1.00
H408   H     0.35478   0.54336   0.36280   0.00000  Uiso   1.00
H409   H     0.40790   0.57333   0.34102   0.00000  Uiso   1.00
H410   H     0.35184   0.59909   0.37128   0.00000  Uiso   1.00
H411   H     0.39161   0.59132   0.25892   0.00000  Uiso   1.00
H412   H     0.33362   0.59965   0.29527   0.00000  Uiso   1.00
H413   H     0.60976   0.53496   0.41600   0.00000  Uiso   1.00
C414   C     0.46729   0.44994   0.08559   0.00000  Uiso   1.00
C415   C     0.48607   0.40816   0.09836   0.00000  Uiso   1.00
H416   H     0.51420   0.39478   0.06239   0.00000  Uiso   1.00
H417   H     0.50076   0.41200   0.13216   0.00000  Uiso   1.00
H418   H     0.45677   0.38596   0.11006   0.00000  Uiso   1.00
H419   H     0.43921   0.46304   0.12163   0.00000  Uiso   1.00
H420   H     0.45017   0.44240   0.05460   0.00000  Uiso   1.00
H421   H     0.42003   0.51444   0.06627   0.00000  Uiso   1.00
H422   H     0.36083   0.52458   0.02034   0.00000  Uiso   1.00
C423   C     0.54301   0.57380   0.38300   0.00000  Uiso   1.00
C424   C     0.52239   0.61118   0.42142   0.00000  Uiso   1.00
H425   H     0.48372   0.60803   0.44106   0.00000  Uiso   1.00
H426   H     0.54013   0.61388   0.45283   0.00000  Uiso   1.00
H427   H     0.52808   0.64010   0.39868   0.00000  Uiso   1.00
H428   H     0.58085   0.57953   0.36211   0.00000  Uiso   1.00
H429   H     0.52427   0.57213   0.35282   0.00000  Uiso   1.00
H430   H     0.54805   0.62687   0.29716   0.00000  Uiso   1.00
O431   O     0.79512   0.56108   0.25000   0.00000  Uiso   1.00
O432   O     0.87157   0.56107   0.25000   0.00000  Uiso   1.00
C433   C     0.83312   0.57990   0.24987   0.00000  Uiso   1.00
O434   O     0.77613   0.50000   0.32681   0.00000  Uiso   1.00
O435   O     0.85258   0.49999   0.32681   0.00000  Uiso   1.00
C436   C     0.80743   0.50423   0.35190   0.00000  Uiso   1.00
Zn437  Zn    0.78229   0.50001   0.25000   0.00000  Uiso   1.00
Zn438  Zn    0.88438   0.49999   0.25000   0.00000  Uiso   1.00
O439   O     0.79510   0.43893   0.24999   0.00000  Uiso   1.00
O440   O     0.87154   0.43892   0.24999   0.00000  Uiso   1.00
O441   O     0.81409   0.50001   0.17319   0.00000  Uiso   1.00
O442   O     0.89053   0.50000   0.17319   0.00000  Uiso   1.00
C443   C     0.83330   0.42012   0.25166   0.00000  Uiso   1.00
C444   C     0.85930   0.49470   0.14857   0.00000  Uiso   1.00
C445   C     0.93384   0.49355   0.00432   0.00000  Uiso   1.00
H446   H     0.97039   0.49476   0.47908   0.00000  Uiso   1.00
C447   C     0.87490   0.48540   0.09036   0.00000  Uiso   1.00
C448   C     0.74409   0.51470   0.44104   0.00000  Uiso   1.00
C449   C     0.73086   0.51885   0.49697   0.00000  Uiso   1.00
C450   C     0.76488   0.51347   0.02275   0.00000  Uiso   1.00
C451   C     0.81318   0.50837   0.49209   0.00000  Uiso   1.00
C452   C     0.82614   0.51805   0.43767   0.00000  Uiso   1.00
C453   C     0.84945   0.49781   0.01401   0.00000  Uiso   1.00
C454   C     0.89732   0.50453   0.48377   0.00000  Uiso   1.00
C455   C     0.90774   0.52415   0.43496   0.00000  Uiso   1.00
C456   C     0.87144   0.53443   0.41408   0.00000  Uiso   1.00
C457   C     0.84025   0.48071   0.06477   0.00000  Uiso   1.00
C458   C     0.92305   0.48314   0.05826   0.00000  Uiso   1.00
C459   C     0.79222   0.51345   0.41051   0.00000  Uiso   1.00
H460   H     0.71690   0.51300   0.42201   0.00000  Uiso   1.00
C461   C     0.86018   0.64449   0.27815   0.00000  Uiso   1.00
C462   C     0.85986   0.35416   0.28151   0.00000  Uiso   1.00
C463   C     0.83327   0.37593   0.25400   0.00000  Uiso   1.00
C464   C     0.80581   0.35499   0.22730   0.00000  Uiso   1.00
H465   H     0.78497   0.37159   0.20677   0.00000  Uiso   1.00
C466   C     0.80553   0.64568   0.22598   0.00000  Uiso   1.00
H467   H     0.78533   0.62970   0.20389   0.00000  Uiso   1.00
C468   C     0.83269   0.62405   0.25138   0.00000  Uiso   1.00
C469   C     0.98156   0.46523   0.23360   0.00000  Uiso   1.00
H470   H     0.96812   0.43733   0.22020   0.00000  Uiso   1.00
C471   C     0.69609   0.46533   0.23319   0.00000  Uiso   1.00
N472   N     0.71426   0.50001   0.25001   0.00000  Uiso   1.00
C473   C     0.68380   0.53518   0.26678   0.00000  Uiso   1.00
C474   C     0.97023   0.53475   0.26475   0.00000  Uiso   1.00
H475   H     0.94750   0.56239   0.27501   0.00000  Uiso   1.00
N476   N     0.95239   0.49998   0.25000   0.00000  Uiso   1.00
C477   C     0.96225   0.46693   0.07868   0.00000  Uiso   1.00
C478   C     0.95202   0.42374   0.10196   0.00000  Uiso   1.00
H479   H     0.92027   0.42465   0.13827   0.00000  Uiso   1.00
H480   H     0.94636   0.40148   0.07137   0.00000  Uiso   1.00
H481   H     0.98271   0.41216   0.11358   0.00000  Uiso   1.00
H482   H     0.99591   0.46305   0.04498   0.00000  Uiso   1.00
H483   H     0.96865   0.48925   0.10867   0.00000  Uiso   1.00
C484   C     0.88622   0.37478   0.31631   0.00000  Uiso   1.00
C485   C     0.85207   0.39632   0.36705   0.00000  Uiso   1.00
H486   H     0.83015   0.42090   0.35678   0.00000  Uiso   1.00
H487   H     0.82800   0.37337   0.39166   0.00000  Uiso   1.00
H488   H     0.87242   0.41090   0.39153   0.00000  Uiso   1.00
H489   H     0.90775   0.35127   0.32949   0.00000  Uiso   1.00
H490   H     0.91236   0.39685   0.29333   0.00000  Uiso   1.00
H491   H     0.71833   0.43752   0.21948   0.00000  Uiso   1.00
C492   C     0.69635   0.57606   0.28892   0.00000  Uiso   1.00
C493   C     0.70340   0.57242   0.34399   0.00000  Uiso   1.00
H494   H     0.68811   0.54336   0.36280   0.00000  Uiso   1.00
H495   H     0.74123   0.57333   0.34102   0.00000  Uiso   1.00
H496   H     0.68518   0.59909   0.37128   0.00000  Uiso   1.00
H497   H     0.72495   0.59132   0.25892   0.00000  Uiso   1.00
H498   H     0.66696   0.59965   0.29527   0.00000  Uiso   1.00
H499   H     0.94310   0.53496   0.41600   0.00000  Uiso   1.00
C500   C     0.80062   0.44994   0.08559   0.00000  Uiso   1.00
C501   C     0.81941   0.40816   0.09836   0.00000  Uiso   1.00
H502   H     0.84753   0.39478   0.06239   0.00000  Uiso   1.00
H503   H     0.83409   0.41200   0.13216   0.00000  Uiso   1.00
H504   H     0.79010   0.38596   0.11006   0.00000  Uiso   1.00
H505   H     0.77254   0.46304   0.12163   0.00000  Uiso   1.00
H506   H     0.78350   0.44240   0.05460   0.00000  Uiso   1.00
H507   H     0.75336   0.51444   0.06627   0.00000  Uiso   1.00
H508   H     0.69416   0.52458   0.02034   0.00000  Uiso   1.00
C509   C     0.87634   0.57380   0.38300   0.00000  Uiso   1.00
C510   C     0.85573   0.61118   0.42142   0.00000  Uiso   1.00
H511   H     0.81705   0.60803   0.44106   0.00000  Uiso   1.00
H512   H     0.87347   0.61388   0.45283   0.00000  Uiso   1.00
H513   H     0.86141   0.64010   0.39868   0.00000  Uiso   1.00
H514   H     0.91419   0.57953   0.36211   0.00000  Uiso   1.00
H515   H     0.85761   0.57213   0.35282   0.00000  Uiso   1.00
H516   H     0.88138   0.62687   0.29716   0.00000  Uiso   1.00
O517   O     0.12846   0.89442   0.25000   0.00000  Uiso   1.00
O518   O     0.20490   0.89441   0.25000   0.00000  Uiso   1.00
C519   C     0.16645   0.91324   0.24987   0.00000  Uiso   1.00
O520   O     0.10947   0.83333   0.32681   0.00000  Uiso   1.00
O521   O     0.18591   0.83332   0.32681   0.00000  Uiso   1.00
C522   C     0.14076   0.83756   0.35190   0.00000  Uiso   1.00
Zn523  Zn    0.11562   0.83334   0.25000   0.00000  Uiso   1.00
Zn524  Zn    0.21771   0.83333   0.25000   0.00000  Uiso   1.00
O525   O     0.12843   0.77226   0.24999   0.00000  Uiso   1.00
O526   O     0.20488   0.77225   0.24999   0.00000  Uiso   1.00
O527   O     0.14742   0.83335   0.17319   0.00000  Uiso   1.00
O528   O     0.22387   0.83334   0.17319   0.00000  Uiso   1.00
C529   C     0.16664   0.75346   0.25166   0.00000  Uiso   1.00
C530   C     0.19263   0.82803   0.14857   0.00000  Uiso   1.00
C531   C     0.26717   0.82688   0.00432   0.00000  Uiso   1.00
H532   H     0.30372   0.82810   0.47908   0.00000  Uiso   1.00
C533   C     0.20823   0.81873   0.09036   0.00000  Uiso   1.00
C534   C     0.07742   0.84804   0.44104   0.00000  Uiso   1.00
C535   C     0.06419   0.85218   0.49697   0.00000  Uiso   1.00
C536   C     0.09821   0.84680   0.02275   0.00000  Uiso   1.00
C537   C     0.14651   0.84170   0.49209   0.00000  Uiso   1.00
C538   C     0.15947   0.85139   0.43767   0.00000  Uiso   1.00
C539   C     0.18278   0.83114   0.01401   0.00000  Uiso   1.00
C540   C     0.23065   0.83786   0.48377   0.00000  Uiso   1.00
C541   C     0.24107   0.85748   0.43496   0.00000  Uiso   1.00
C542   C     0.20477   0.86776   0.41408   0.00000  Uiso   1.00
C543   C     0.17358   0.81405   0.06477   0.00000  Uiso   1.00
C544   C     0.25638   0.81648   0.05826   0.00000  Uiso   1.00
C545   C     0.12555   0.84679   0.41051   0.00000  Uiso   1.00
H546   H     0.05023   0.84633   0.42201   0.00000  Uiso   1.00
C547   C     0.19351   0.97783   0.27815   0.00000  Uiso   1.00
C548   C     0.19319   0.68750   0.28151   0.00000  Uiso   1.00
C549   C     0.16660   0.70926   0.25400   0.00000  Uiso   1.00
C550   C     0.13914   0.68832   0.22730   0.00000  Uiso   1.00
H551   H     0.11830   0.70492   0.20677   0.00000  Uiso   1.00
C552   C     0.13886   0.97902   0.22598   0.00000  Uiso   1.00
H553   H     0.11866   0.96304   0.20389   0.00000  Uiso   1.00
C554   C     0.16602   0.95738   0.25138   0.00000  Uiso   1.00
C555   C     0.31490   0.79857   0.23360   0.00000  Uiso   1.00
H556   H     0.30145   0.77067   0.22020   0.00000  Uiso   1.00
C557   C     0.02942   0.79866   0.23319   0.00000  Uiso   1.00
N558   N     0.04760   0.83334   0.25001   0.00000  Uiso   1.00
C559   C     0.01714   0.86851   0.26678   0.00000  Uiso   1.00
C560   C     0.30356   0.86808   0.26475   0.00000  Uiso   1.00
H561   H     0.28083   0.89573   0.27501   0.00000  Uiso   1.00
N562   N     0.28573   0.83331   0.25000   0.00000  Uiso   1.00
C563   C     0.29558   0.80027   0.07868   0.00000  Uiso   1.00
C564   C     0.28535   0.75707   0.10196   0.00000  Uiso   1.00
H565   H     0.25360   0.75798   0.13827   0.00000  Uiso   1.00
H566   H     0.27969   0.73482   0.07137   0.00000  Uiso   1.00
H567   H     0.31604   0.74549   0.11358   0.00000  Uiso   1.00
H568   H     0.32925   0.79639   0.04498   0.00000  Uiso   1.00
H569   H     0.30198   0.82258   0.10867   0.00000  Uiso   1.00
C570   C     0.21955   0.70811   0.31631   0.00000  Uiso   1.00
C571   C     0.18540   0.72965   0.36705   0.00000  Uiso   1.00
H572   H     0.16349   0.75423   0.35678   0.00000  Uiso   1.00
H573   H     0.16133   0.70670   0.39166   0.00000  Uiso   1.00
H574   H     0.20575   0.74423   0.39153   0.00000  Uiso   1.00
H575   H     0.24109   0.68460   0.32949   0.00000  Uiso   1.00
H576   H     0.24569   0.73019   0.29333   0.00000  Uiso   1.00
H577   H     0.05167   0.77085   0.21948   0.00000  Uiso   1.00
C578   C     0.02968   0.90940   0.28892   0.00000  Uiso   1.00
C579   C     0.03673   0.90575   0.34399   0.00000  Uiso   1.00
H580   H     0.02144   0.87670   0.36280   0.00000  Uiso   1.00
H581   H     0.07456   0.90667   0.34102   0.00000  Uiso   1.00
H582   H     0.01851   0.93242   0.37128   0.00000  Uiso   1.00
H583   H     0.05828   0.92465   0.25892   0.00000  Uiso   1.00
H584   H     0.00029   0.93298   0.29527   0.00000  Uiso   1.00
H585   H     0.27643   0.86829   0.41600   0.00000  Uiso   1.00
C586   C     0.13395   0.78327   0.08559   0.00000  Uiso   1.00
C587   C     0.15274   0.74149   0.09836   0.00000  Uiso   1.00
H588   H     0.18087   0.72811   0.06239   0.00000  Uiso   1.00
H589   H     0.16743   0.74533   0.13216   0.00000  Uiso   1.00
H590   H     0.12344   0.71930   0.11006   0.00000  Uiso   1.00
H591   H     0.10588   0.79637   0.12163   0.00000  Uiso   1.00
H592   H     0.11684   0.77573   0.05460   0.00000  Uiso   1.00
H593   H     0.08669   0.84777   0.06627   0.00000  Uiso   1.00
H594   H     0.02749   0.85792   0.02034   0.00000  Uiso   1.00
C595   C     0.20967   0.90713   0.38300   0.00000  Uiso   1.00
C596   C     0.18906   0.94451   0.42142   0.00000  Uiso   1.00
H597   H     0.15038   0.94136   0.44106   0.00000  Uiso   1.00
H598   H     0.20680   0.94721   0.45283   0.00000  Uiso   1.00
H599   H     0.19475   0.97343   0.39868   0.00000  Uiso   1.00
H600   H     0.24752   0.91286   0.36211   0.00000  Uiso   1.00
H601   H     0.19094   0.90546   0.35282   0.00000  Uiso   1.00
H602   H     0.21471   0.96020   0.29716   0.00000  Uiso   1.00
O603   O     0.46179   0.89442   0.25000   0.00000  Uiso   1.00
O604   O     0.53823   0.89441   0.25000   0.00000  Uiso   1.00
C605   C     0.49978   0.91324   0.24987   0.00000  Uiso   1.00
O606   O     0.44280   0.83333   0.32681   0.00000  Uiso   1.00
O607   O     0.51924   0.83332   0.32681   0.00000  Uiso   1.00
C608   C     0.47410   0.83756   0.35190   0.00000  Uiso   1.00
Zn609  Zn    0.44896   0.83334   0.25000   0.00000  Uiso   1.00
Zn610  Zn    0.55104   0.83333   0.25000   0.00000  Uiso   1.00
O611   O     0.46177   0.77226   0.24999   0.00000  Uiso   1.00
O612   O     0.53821   0.77225   0.24999   0.00000  Uiso   1.00
O613   O     0.48076   0.83335   0.17319   0.00000  Uiso   1.00
O614   O     0.55720   0.83334   0.17319   0.00000  Uiso   1.00
C615   C     0.49997   0.75346   0.25166   0.00000  Uiso   1.00
C616   C     0.52596   0.82803   0.14857   0.00000  Uiso   1.00
C617   C     0.60051   0.82688   0.00432   0.00000  Uiso   1.00
H618   H     0.63706   0.82810   0.47908   0.00000  Uiso   1.00
C619   C     0.54157   0.81873   0.09036   0.00000  Uiso   1.00
C620   C     0.41076   0.84804   0.44104   0.00000  Uiso   1.00
C621   C     0.39752   0.85218   0.49697   0.00000  Uiso   1.00
C622   C     0.43154   0.84680   0.02275   0.00000  Uiso   1.00
C623   C     0.47984   0.84170   0.49209   0.00000  Uiso   1.00
C624   C     0.49280   0.85139   0.43767   0.00000  Uiso   1.00
C625   C     0.51611   0.83114   0.01401   0.00000  Uiso   1.00
C626   C     0.56399   0.83786   0.48377   0.00000  Uiso   1.00
C627   C     0.57441   0.85748   0.43496   0.00000  Uiso   1.00
C628   C     0.53810   0.86776   0.41408   0.00000  Uiso   1.00
C629   C     0.50692   0.81405   0.06477   0.00000  Uiso   1.00
C630   C     0.58971   0.81648   0.05826   0.00000  Uiso   1.00
C631   C     0.45888   0.84679   0.41051   0.00000  Uiso   1.00
H632   H     0.38357   0.84633   0.42201   0.00000  Uiso   1.00
C633   C     0.52685   0.97783   0.27815   0.00000  Uiso   1.00
C634   C     0.52653   0.68750   0.28151   0.00000  Uiso   1.00
C635   C     0.49994   0.70926   0.25400   0.00000  Uiso   1.00
C636   C     0.47248   0.68832   0.22730   0.00000  Uiso   1.00
H637   H     0.45163   0.70492   0.20677   0.00000  Uiso   1.00
C638   C     0.47220   0.97902   0.22598   0.00000  Uiso   1.00
H639   H     0.45199   0.96304   0.20389   0.00000  Uiso   1.00
C640   C     0.49935   0.95738   0.25138   0.00000  Uiso   1.00
C641   C     0.64823   0.79857   0.23360   0.00000  Uiso   1.00
H642   H     0.63478   0.77067   0.22020   0.00000  Uiso   1.00
C643   C     0.36276   0.79866   0.23319   0.00000  Uiso   1.00
N644   N     0.38093   0.83334   0.25001   0.00000  Uiso   1.00
C645   C     0.35047   0.86851   0.26678   0.00000  Uiso   1.00
C646   C     0.63690   0.86808   0.26475   0.00000  Uiso   1.00
H647   H     0.61417   0.89573   0.27501   0.00000  Uiso   1.00
N648   N     0.61906   0.83331   0.25000   0.00000  Uiso   1.00
C649   C     0.62892   0.80027   0.07868   0.00000  Uiso   1.00
C650   C     0.61868   0.75707   0.10196   0.00000  Uiso   1.00
H651   H     0.58694   0.75798   0.13827   0.00000  Uiso   1.00
H652   H     0.61302   0.73482   0.07137   0.00000  Uiso   1.00
H653   H     0.64937   0.74549   0.11358   0.00000  Uiso   1.00
H654   H     0.66258   0.79639   0.04498   0.00000  Uiso   1.00
H655   H     0.63531   0.82258   0.10867   0.00000  Uiso   1.00
C656   C     0.55289   0.70811   0.31631   0.00000  Uiso   1.00
C657   C     0.51874   0.72965   0.36705   0.00000  Uiso   1.00
H658   H     0.49682   0.75423   0.35678   0.00000  Uiso   1.00
H659   H     0.49466   0.70670   0.39166   0.00000  Uiso   1.00
H660   H     0.53908   0.74423   0.39153   0.00000  Uiso   1.00
H661   H     0.57442   0.68460   0.32949   0.00000  Uiso   1.00
H662   H     0.57903   0.73019   0.29333   0.00000  Uiso   1.00
H663   H     0.38500   0.77085   0.21948   0.00000  Uiso   1.00
C664   C     0.36301   0.90940   0.28892   0.00000  Uiso   1.00
C665   C     0.37006   0.90575   0.34399   0.00000  Uiso   1.00
H666   H     0.35478   0.87670   0.36280   0.00000  Uiso   1.00
H667   H     0.40790   0.90667   0.34102   0.00000  Uiso   1.00
H668   H     0.35184   0.93242   0.37128   0.00000  Uiso   1.00
H669   H     0.39161   0.92465   0.25892   0.00000  Uiso   1.00
H670   H     0.33362   0.93298   0.29527   0.00000  Uiso   1.00
H671   H     0.60976   0.86829   0.41600   0.00000  Uiso   1.00
C672   C     0.46729   0.78327   0.08559   0.00000  Uiso   1.00
C673   C     0.48607   0.74149   0.09836   0.00000  Uiso   1.00
H674   H     0.51420   0.72811   0.06239   0.00000  Uiso   1.00
H675   H     0.50076   0.74533   0.13216   0.00000  Uiso   1.00
H676   H     0.45677   0.71930   0.11006   0.00000  Uiso   1.00
H677   H     0.43921   0.79637   0.12163   0.00000  Uiso   1.00
H678   H     0.45017   0.77573   0.05460   0.00000  Uiso   1.00
H679   H     0.42003   0.84777   0.06627   0.00000  Uiso   1.00
H680   H     0.36083   0.85792   0.02034   0.00000  Uiso   1.00
C681   C     0.54301   0.90713   0.38300   0.00000  Uiso   1.00
C682   C     0.52239   0.94451   0.42142   0.00000  Uiso   1.00
H683   H     0.48372   0.94136   0.44106   0.00000  Uiso   1.00
H684   H     0.54013   0.94721   0.45283   0.00000  Uiso   1.00
H685   H     0.52808   0.97343   0.39868   0.00000  Uiso   1.00
H686   H     0.58085   0.91286   0.36211   0.00000  Uiso   1.00
H687   H     0.52427   0.90546   0.35282   0.00000  Uiso   1.00
H688   H     0.54805   0.96020   0.29716   0.00000  Uiso   1.00
O689   O     0.79512   0.89442   0.25000   0.00000  Uiso   1.00
O690   O     0.87157   0.89441   0.25000   0.00000  Uiso   1.00
C691   C     0.83312   0.91324   0.24987   0.00000  Uiso   1.00
O692   O     0.77613   0.83333   0.32681   0.00000  Uiso   1.00
O693   O     0.85258   0.83332   0.32681   0.00000  Uiso   1.00
C694   C     0.80743   0.83756   0.35190   0.00000  Uiso   1.00
Zn695  Zn    0.78229   0.83334   0.25000   0.00000  Uiso   1.00
Zn696  Zn    0.88438   0.83333   0.25000   0.00000  Uiso   1.00
O697   O     0.79510   0.77226   0.24999   0.00000  Uiso   1.00
O698   O     0.87154   0.77225   0.24999   0.00000  Uiso   1.00
O699   O     0.81409   0.83335   0.17319   0.00000  Uiso   1.00
O700   O     0.89053   0.83334   0.17319   0.00000  Uiso   1.00
C701   C     0.83330   0.75346   0.25166   0.00000  Uiso   1.00
C702   C     0.85930   0.82803   0.14857   0.00000  Uiso   1.00
C703   C     0.93384   0.82688   0.00432   0.00000  Uiso   1.00
H704   H     0.97039   0.82810   0.47908   0.00000  Uiso   1.00
C705   C     0.87490   0.81873   0.09036   0.00000  Uiso   1.00
C706   C     0.74409   0.84804   0.44104   0.00000  Uiso   1.00
C707   C     0.73086   0.85218   0.49697   0.00000  Uiso   1.00
C708   C     0.76488   0.84680   0.02275   0.00000  Uiso   1.00
C709   C     0.81318   0.84170   0.49209   0.00000  Uiso   1.00
C710   C     0.82614   0.85139   0.43767   0.00000  Uiso   1.00
C711   C     0.84945   0.83114   0.01401   0.00000  Uiso   1.00
C712   C     0.89732   0.83786   0.48377   0.00000  Uiso   1.00
C713   C     0.90774   0.85748   0.43496   0.00000  Uiso   1.00
C714   C     0.87144   0.86776   0.41408   0.00000  Uiso   1.00
C715   C     0.84025   0.81405   0.06477   0.00000  Uiso   1.00
C716   C     0.92305   0.81648   0.05826   0.00000  Uiso   1.00
C717   C     0.79222   0.84679   0.41051   0.00000  Uiso   1.00
H718   H     0.71690   0.84633   0.42201   0.00000  Uiso   1.00
C719   C     0.86018   0.97783   0.27815   0.00000  Uiso   1.00
C720   C     0.85986   0.68750   0.28151   0.00000  Uiso   1.00
C721   C     0.83327   0.70926   0.25400   0.00000  Uiso   1.00
C722   C     0.80581   0.68832   0.22730   0.00000  Uiso   1.00
H723   H     0.78497   0.70492   0.20677   0.00000  Uiso   1.00
C724   C     0.80553   0.97902   0.22598   0.00000  Uiso   1.00
H725   H     0.78533   0.96304   0.20389   0.00000  Uiso   1.00
C726   C     0.83269   0.95738   0.25138   0.00000  Uiso   1.00
C727   C     0.98156   0.79857   0.23360   0.00000  Uiso   1.00
H728   H     0.96812   0.77067   0.22020   0.00000  Uiso   1.00
C729   C     0.69609   0.79866   0.23319   0.00000  Uiso   1.00
N730   N     0.71426   0.83334   0.25001   0.00000  Uiso   1.00
C731   C     0.68380   0.86851   0.26678   0.00000  Uiso   1.00
C732   C     0.97023   0.86808   0.26475   0.00000  Uiso   1.00
H733   H     0.94750   0.89573   0.27501   0.00000  Uiso   1.00
N734   N     0.95239   0.83331   0.25000   0.00000  Uiso   1.00
C735   C     0.96225   0.80027   0.07868   0.00000  Uiso   1.00
C736   C     0.95202   0.75707   0.10196   0.00000  Uiso   1.00
H737   H     0.92027   0.75798   0.13827   0.00000  Uiso   1.00
H738   H     0.94636   0.73482   0.07137   0.00000  Uiso   1.00
H739   H     0.98271   0.74549   0.11358   0.00000  Uiso   1.00
H740   H     0.99591   0.79639   0.04498   0.00000  Uiso   1.00
H741   H     0.96865   0.82258   0.10867   0.00000  Uiso   1.00
C742   C     0.88622   0.70811   0.31631   0.00000  Uiso   1.00
C743   C     0.85207   0.72965   0.36705   0.00000  Uiso   1.00
H744   H     0.83015   0.75423   0.35678   0.00000  Uiso   1.00
H745   H     0.82800   0.70670   0.39166   0.00000  Uiso   1.00
H746   H     0.87242   0.74423   0.39153   0.00000  Uiso   1.00
H747   H     0.90775   0.68460   0.32949   0.00000  Uiso   1.00
H748   H     0.91236   0.73019   0.29333   0.00000  Uiso   1.00
H749   H     0.71833   0.77085   0.21948   0.00000  Uiso   1.00
C750   C     0.69635   0.90940   0.28892   0.00000  Uiso   1.00
C751   C     0.70340   0.90575   0.34399   0.00000  Uiso   1.00
H752   H     0.68811   0.87670   0.36280   0.00000  Uiso   1.00
H753   H     0.74123   0.90667   0.34102   0.00000  Uiso   1.00
H754   H     0.68518   0.93242   0.37128   0.00000  Uiso   1.00
H755   H     0.72495   0.92465   0.25892   0.00000  Uiso   1.00
H756   H     0.66696   0.93298   0.29527   0.00000  Uiso   1.00
H757   H     0.94310   0.86829   0.41600   0.00000  Uiso   1.00
C758   C     0.80062   0.78327   0.08559   0.00000  Uiso   1.00
C759   C     0.81941   0.74149   0.09836   0.00000  Uiso   1.00
H760   H     0.84753   0.72811   0.06239   0.00000  Uiso   1.00
H761   H     0.83409   0.74533   0.13216   0.00000  Uiso   1.00
H762   H     0.79010   0.71930   0.11006   0.00000  Uiso   1.00
H763   H     0.77254   0.79637   0.12163   0.00000  Uiso   1.00
H764   H     0.78350   0.77573   0.05460   0.00000  Uiso   1.00
H765   H     0.75336   0.84777   0.06627   0.00000  Uiso   1.00
H766   H     0.69416   0.85792   0.02034   0.00000  Uiso   1.00
C767   C     0.87634   0.90713   0.38300   0.00000  Uiso   1.00
C768   C     0.85573   0.94451   0.42142   0.00000  Uiso   1.00
H769   H     0.81705   0.94136   0.44106   0.00000  Uiso   1.00
H770   H     0.87347   0.94721   0.45283   0.00000  Uiso   1.00
H771   H     0.86141   0.97343   0.39868   0.00000  Uiso   1.00
H772   H     0.91419   0.91286   0.36211   0.00000  Uiso   1.00
H773   H     0.85761   0.90546   0.35282   0.00000  Uiso   1.00
H774   H     0.88138   0.96020   0.29716   0.00000  Uiso   1.00
O775   O     0.12846   0.22775   0.75000   0.00000  Uiso   1.00
O776   O     0.20490   0.22774   0.75000   0.00000  Uiso   1.00
C777   C     0.16645   0.24657   0.74987   0.00000  Uiso   1.00
O778   O     0.10947   0.16666   0.82681   0.00000  Uiso   1.00
O779   O     0.18591   0.16665   0.82681   0.00000  Uiso   1.00
C780   C     0.14076   0.17089   0.85190   0.00000  Uiso   1.00
Zn781  Zn    0.11562   0.16667   0.75000   0.00000  Uiso   1.00
Zn782  Zn    0.21771   0.16666   0.75000   0.00000  Uiso   1.00
O783   O     0.12843   0.10559   0.74999   0.00000  Uiso   1.00
O784   O     0.20488   0.10558   0.74999   0.00000  Uiso   1.00
O785   O     0.14742   0.16668   0.67319   0.00000  Uiso   1.00
O786   O     0.22387   0.16667   0.67319   0.00000  Uiso   1.00
C787   C     0.16664   0.08679   0.75166   0.00000  Uiso   1.00
C788   C     0.19263   0.16136   0.64857   0.00000  Uiso   1.00
C789   C     0.26717   0.16022   0.50432   0.00000  Uiso   1.00
H790   H     0.30372   0.16143   0.97908   0.00000  Uiso   1.00
C791   C     0.20823   0.15206   0.59036   0.00000  Uiso   1.00
C792   C     0.07742   0.18137   0.94104   0.00000  Uiso   1.00
C793   C     0.06419   0.18551   0.99697   0.00000  Uiso   1.00
C794   C     0.09821   0.18013   0.52275   0.00000  Uiso   1.00
C795   C     0.14651   0.17503   0.99209   0.00000  Uiso   1.00
C796   C     0.15947   0.18472   0.93767   0.00000  Uiso   1.00
C797   C     0.18278   0.16448   0.51401   0.00000  Uiso   1.00
C798   C     0.23065   0.17119   0.98377   0.00000  Uiso   1.00
C799   C     0.24107   0.19081   0.93496   0.00000  Uiso   1.00
C800   C     0.20477   0.20109   0.91408   0.00000  Uiso   1.00
C801   C     0.17358   0.14738   0.56477   0.00000  Uiso   1.00
C802   C     0.25638   0.14981   0.55826   0.00000  Uiso   1.00
C803   C     0.12555   0.18012   0.91051   0.00000  Uiso   1.00
H804   H     0.05023   0.17967   0.92201   0.00000  Uiso   1.00
C805   C     0.19351   0.31116   0.77815   0.00000  Uiso   1.00
C806   C     0.19319   0.02083   0.78151   0.00000  Uiso   1.00
C807   C     0.16660   0.04260   0.75400   0.00000  Uiso   1.00
C808   C     0.13914   0.02166   0.72730   0.00000  Uiso   1.00
H809   H     0.11830   0.03825   0.70677   0.00000  Uiso   1.00
C810   C     0.13886   0.31235   0.72598   0.00000  Uiso   1.00
H811   H     0.11866   0.29637   0.70389   0.00000  Uiso   1.00
C812   C     0.16602   0.29072   0.75138   0.00000  Uiso   1.00
C813   C     0.31490   0.13190   0.73360   0.00000  Uiso   1.00
H814   H     0.30145   0.10400   0.72020   0.00000  Uiso   1.00
C815   C     0.02942   0.13200   0.73319   0.00000  Uiso   1.00
N816   N     0.04760   0.16668   0.75001   0.00000  Uiso   1.00
C817   C     0.01714   0.20185   0.76678   0.00000  Uiso   1.00
C818   C     0.30356   0.20141   0.76475   0.00000  Uiso   1.00
H819   H     0.28083   0.22906   0.77501   0.00000  Uiso   1.00
N820   N     0.28573   0.16665   0.75000   0.00000  Uiso   1.00
C821   C     0.29558   0.13360   0.57868   0.00000  Uiso   1.00
C822   C     0.28535   0.09040   0.60196   0.00000  Uiso   1.00
H823   H     0.25360   0.09132   0.63827   0.00000  Uiso   1.00
H824   H     0.27969   0.06815   0.57137   0.00000  Uiso   1.00
H825   H     0.31604   0.07882   0.61358   0.00000  Uiso   1.00
H826   H     0.32925   0.12972   0.54498   0.00000  Uiso   1.00
H827   H     0.30198   0.15591   0.60867   0.00000  Uiso   1.00
C828   C     0.21955   0.04145   0.81631   0.00000  Uiso   1.00
C829   C     0.18540   0.06299   0.86705   0.00000  Uiso   1.00
H830   H     0.16349   0.08756   0.85678   0.00000  Uiso   1.00
H831   H     0.16133   0.04004   0.89166   0.00000  Uiso   1.00
H832   H     0.20575   0.07756   0.89153   0.00000  Uiso   1.00
H833   H     0.24109   0.01794   0.82949   0.00000  Uiso   1.00
H834   H     0.24569   0.06352   0.79333   0.00000  Uiso   1.00
H835   H     0.05167   0.10418   0.71948   0.00000  Uiso   1.00
C836   C     0.02968   0.24273   0.78892   0.00000  Uiso   1.00
C837   C     0.03673   0.23908   0.84399   0.00000  Uiso   1.00
H838   H     0.02144   0.21003   0.86280   0.00000  Uiso   1.00
H839   H     0.07456   0.24000   0.84102   0.00000  Uiso   1.00
H840   H     0.01851   0.26576   0.87128   0.00000  Uiso   1.00
H841   H     0.05828   0.25799   0.75892   0.00000  Uiso   1.00
H842   H     0.00029   0.26632   0.79527   0.00000  Uiso   1.00
H843   H     0.27643   0.20163   0.91600   0.00000  Uiso   1.00
C844   C     0.13395   0.11660   0.58559   0.00000  Uiso   1.00
C845   C     0.15274   0.07482   0.59836   0.00000  Uiso   1.00
H846   H     0.18087   0.06144   0.56239   0.00000  Uiso   1.00
H847   H     0.16743   0.07866   0.63216   0.00000  Uiso   1.00
H848   H     0.12344   0.05263   0.61006   0.00000  Uiso   1.00
H849   H     0.10588   0.12970   0.62163   0.00000  Uiso   1.00
H850   H     0.11684   0.10907   0.55460   0.00000  Uiso   1.00
H851   H     0.08669   0.18110   0.56627   0.00000  Uiso   1.00
H852   H     0.02749   0.19125   0.52034   0.00000  Uiso   1.00
C853   C     0.20967   0.24047   0.88300   0.00000  Uiso   1.00
C854   C     0.18906   0.27785   0.92142   0.00000  Uiso   1.00
H855   H     0.15038   0.27469   0.94106   0.00000  Uiso   1.00
H856   H     0.20680   0.28054   0.95283   0.00000  Uiso   1.00
H857   H     0.19475   0.30677   0.89868   0.00000  Uiso   1.00
H858   H     0.24752   0.24619   0.86211   0.00000  Uiso   1.00
H859   H     0.19094   0.23880   0.85282   0.00000  Uiso   1.00
H860   H     0.21471   0.29353   0.79716   0.00000  Uiso   1.00
O861   O     0.46179   0.22775   0.75000   0.00000  Uiso   1.00
O862   O     0.53823   0.22774   0.75000   0.00000  Uiso   1.00
C863   C     0.49978   0.24657   0.74987   0.00000  Uiso   1.00
O864   O     0.44280   0.16666   0.82681   0.00000  Uiso   1.00
O865   O     0.51924   0.16665   0.82681   0.00000  Uiso   1.00
C866   C     0.47410   0.17089   0.85190   0.00000  Uiso   1.00
Zn867  Zn    0.44896   0.16667   0.75000   0.00000  Uiso   1.00
Zn868  Zn    0.55104   0.16666   0.75000   0.00000  Uiso   1.00
O869   O     0.46177   0.10559   0.74999   0.00000  Uiso   1.00
O870   O     0.53821   0.10558   0.74999   0.00000  Uiso   1.00
O871   O     0.48076   0.16668   0.67319   0.00000  Uiso   1.00
O872   O     0.55720   0.16667   0.67319   0.00000  Uiso   1.00
C873   C     0.49997   0.08679   0.75166   0.00000  Uiso   1.00
C874   C     0.52596   0.16136   0.64857   0.00000  Uiso   1.00
C875   C     0.60051   0.16022   0.50432   0.00000  Uiso   1.00
H876   H     0.63706   0.16143   0.97908   0.00000  Uiso   1.00
C877   C     0.54157   0.15206   0.59036   0.00000  Uiso   1.00
C878   C     0.41076   0.18137   0.94104   0.00000  Uiso   1.00
C879   C     0.39752   0.18551   0.99697   0.00000  Uiso   1.00
C880   C     0.43154   0.18013   0.52275   0.00000  Uiso   1.00
C881   C     0.47984   0.17503   0.99209   0.00000  Uiso   1.00
C882   C     0.49280   0.18472   0.93767   0.00000  Uiso   1.00
C883   C     0.51611   0.16448   0.51401   0.00000  Uiso   1.00
C884   C     0.56399   0.17119   0.98377   0.00000  Uiso   1.00
C885   C     0.57441   0.19081   0.93496   0.00000  Uiso   1.00
C886   C     0.53810   0.20109   0.91408   0.00000  Uiso   1.00
C887   C     0.50692   0.14738   0.56477   0.00000  Uiso   1.00
C888   C     0.58971   0.14981   0.55826   0.00000  Uiso   1.00
C889   C     0.45888   0.18012   0.91051   0.00000  Uiso   1.00
H890   H     0.38357   0.17967   0.92201   0.00000  Uiso   1.00
C891   C     0.52685   0.31116   0.77815   0.00000  Uiso   1.00
C892   C     0.52653   0.02083   0.78151   0.00000  Uiso   1.00
C893   C     0.49994   0.04260   0.75400   0.00000  Uiso   1.00
C894   C     0.47248   0.02166   0.72730   0.00000  Uiso   1.00
H895   H     0.45163   0.03825   0.70677   0.00000  Uiso   1.00
C896   C     0.47220   0.31235   0.72598   0.00000  Uiso   1.00
H897   H     0.45199   0.29637   0.70389   0.00000  Uiso   1.00
C898   C     0.49935   0.29072   0.75138   0.00000  Uiso   1.00
C899   C     0.64823   0.13190   0.73360   0.00000  Uiso   1.00
H900   H     0.63478   0.10400   0.72020   0.00000  Uiso   1.00
C901   C     0.36276   0.13200   0.73319   0.00000  Uiso   1.00
N902   N     0.38093   0.16668   0.75001   0.00000  Uiso   1.00
C903   C     0.35047   0.20185   0.76678   0.00000  Uiso   1.00
C904   C     0.63690   0.20141   0.76475   0.00000  Uiso   1.00
H905   H     0.61417   0.22906   0.77501   0.00000  Uiso   1.00
N906   N     0.61906   0.16665   0.75000   0.00000  Uiso   1.00
C907   C     0.62892   0.13360   0.57868   0.00000  Uiso   1.00
C908   C     0.61868   0.09040   0.60196   0.00000  Uiso   1.00
H909   H     0.58694   0.09132   0.63827   0.00000  Uiso   1.00
H910   H     0.61302   0.06815   0.57137   0.00000  Uiso   1.00
H911   H     0.64937   0.07882   0.61358   0.00000  Uiso   1.00
H912   H     0.66258   0.12972   0.54498   0.00000  Uiso   1.00
H913   H     0.63531   0.15591   0.60867   0.00000  Uiso   1.00
C914   C     0.55289   0.04145   0.81631   0.00000  Uiso   1.00
C915   C     0.51874   0.06299   0.86705   0.00000  Uiso   1.00
H916   H     0.49682   0.08756   0.85678   0.00000  Uiso   1.00
H917   H     0.49466   0.04004   0.89166   0.00000  Uiso   1.00
H918   H     0.53908   0.07756   0.89153   0.00000  Uiso   1.00
H919   H     0.57442   0.01794   0.82949   0.00000  Uiso   1.00
H920   H     0.57903   0.06352   0.79333   0.00000  Uiso   1.00
H921   H     0.38500   0.10418   0.71948   0.00000  Uiso   1.00
C922   C     0.36301   0.24273   0.78892   0.00000  Uiso   1.00
C923   C     0.37006   0.23908   0.84399   0.00000  Uiso   1.00
H924   H     0.35478   0.21003   0.86280   0.00000  Uiso   1.00
H925   H     0.40790   0.24000   0.84102   0.00000  Uiso   1.00
H926   H     0.35184   0.26576   0.87128   0.00000  Uiso   1.00
H927   H     0.39161   0.25799   0.75892   0.00000  Uiso   1.00
H928   H     0.33362   0.26632   0.79527   0.00000  Uiso   1.00
H929   H     0.60976   0.20163   0.91600   0.00000  Uiso   1.00
C930   C     0.46729   0.11660   0.58559   0.00000  Uiso   1.00
C931   C     0.48607   0.07482   0.59836   0.00000  Uiso   1.00
H932   H     0.51420   0.06144   0.56239   0.00000  Uiso   1.00
H933   H     0.50076   0.07866   0.63216   0.00000  Uiso   1.00
H934   H     0.45677   0.05263   0.61006   0.00000  Uiso   1.00
H935   H     0.43921   0.12970   0.62163   0.00000  Uiso   1.00
H936   H     0.45017   0.10907   0.55460   0.00000  Uiso   1.00
H937   H     0.42003   0.18110   0.56627   0.00000  Uiso   1.00
H938   H     0.36083   0.19125   0.52034   0.00000  Uiso   1.00
C939   C     0.54301   0.24047   0.88300   0.00000  Uiso   1.00
C940   C     0.52239   0.27785   0.92142   0.00000  Uiso   1.00
H941   H     0.48372   0.27469   0.94106   0.00000  Uiso   1.00
H942   H     0.54013   0.28054   0.95283   0.00000  Uiso   1.00
H943   H     0.52808   0.30677   0.89868   0.00000  Uiso   1.00
H944   H     0.58085   0.24619   0.86211   0.00000  Uiso   1.00
H945   H     0.52427   0.23880   0.85282   0.00000  Uiso   1.00
H946   H     0.54805   0.29353   0.79716   0.00000  Uiso   1.00
O947   O     0.79512   0.22775   0.75000   0.00000  Uiso   1.00
O948   O     0.87157   0.22774   0.75000   0.00000  Uiso   1.00
C949   C     0.83312   0.24657   0.74987   0.00000  Uiso   1.00
O950   O     0.77613   0.16666   0.82681   0.00000  Uiso   1.00
O951   O     0.85258   0.16665   0.82681   0.00000  Uiso   1.00
C952   C     0.80743   0.17089   0.85190   0.00000  Uiso   1.00
Zn953  Zn    0.78229   0.16667   0.75000   0.00000  Uiso   1.00
Zn954  Zn    0.88438   0.16666   0.75000   0.00000  Uiso   1.00
O955   O     0.79510   0.10559   0.74999   0.00000  Uiso   1.00
O956   O     0.87154   0.10558   0.74999   0.00000  Uiso   1.00
O957   O     0.81409   0.16668   0.67319   0.00000  Uiso   1.00
O958   O     0.89053   0.16667   0.67319   0.00000  Uiso   1.00
C959   C     0.83330   0.08679   0.75166   0.00000  Uiso   1.00
C960   C     0.85930   0.16136   0.64857   0.00000  Uiso   1.00
C961   C     0.93384   0.16022   0.50432   0.00000  Uiso   1.00
H962   H     0.97039   0.16143   0.97908   0.00000  Uiso   1.00
C963   C     0.87490   0.15206   0.59036   0.00000  Uiso   1.00
C964   C     0.74409   0.18137   0.94104   0.00000  Uiso   1.00
C965   C     0.73086   0.18551   0.99697   0.00000  Uiso   1.00
C966   C     0.76488   0.18013   0.52275   0.00000  Uiso   1.00
C967   C     0.81318   0.17503   0.99209   0.00000  Uiso   1.00
C968   C     0.82614   0.18472   0.93767   0.00000  Uiso   1.00
C969   C     0.84945   0.16448   0.51401   0.00000  Uiso   1.00
C970   C     0.89732   0.17119   0.98377   0.00000  Uiso   1.00
C971   C     0.90774   0.19081   0.93496   0.00000  Uiso   1.00
C972   C     0.87144   0.20109   0.91408   0.00000  Uiso   1.00
C973   C     0.84025   0.14738   0.56477   0.00000  Uiso   1.00
C974   C     0.92305   0.14981   0.55826   0.00000  Uiso   1.00
C975   C     0.79222   0.18012   0.91051   0.00000  Uiso   1.00
H976   H     0.71690   0.17967   0.92201   0.00000  Uiso   1.00
C977   C     0.86018   0.31116   0.77815   0.00000  Uiso   1.00
C978   C     0.85986   0.02083   0.78151   0.00000  Uiso   1.00
C979   C     0.83327   0.04260   0.75400   0.00000  Uiso   1.00
C980   C     0.80581   0.02166   0.72730   0.00000  Uiso   1.00
H981   H     0.78497   0.03825   0.70677   0.00000  Uiso   1.00
C982   C     0.80553   0.31235   0.72598   0.00000  Uiso   1.00
H983   H     0.78533   0.29637   0.70389   0.00000  Uiso   1.00
C984   C     0.83269   0.29072   0.75138   0.00000  Uiso   1.00
C985   C     0.98156   0.13190   0.73360   0.00000  Uiso   1.00
H986   H     0.96812   0.10400   0.72020   0.00000  Uiso   1.00
C987   C     0.69609   0.13200   0.73319   0.00000  Uiso   1.00
N988   N     0.71426   0.16668   0.75001   0.00000  Uiso   1.00
C989   C     0.68380   0.20185   0.76678   0.00000  Uiso   1.00
C990   C     0.97023   0.20141   0.76475   0.00000  Uiso   1.00
H991   H     0.94750   0.22906   0.77501   0.00000  Uiso   1.00
N992   N     0.95239   0.16665   0.75000   0.00000  Uiso   1.00
C993   C     0.96225   0.13360   0.57868   0.00000  Uiso   1.00
C994   C     0.95202   0.09040   0.60196   0.00000  Uiso   1.00
H995   H     0.92027   0.09132   0.63827   0.00000  Uiso   1.00
H996   H     0.94636   0.06815   0.57137   0.00000  Uiso   1.00
H997   H     0.98271   0.07882   0.61358   0.00000  Uiso   1.00
H998   H     0.99591   0.12972   0.54498   0.00000  Uiso   1.00
H999   H     0.96865   0.15591   0.60867   0.00000  Uiso   1.00
C1000  C     0.88622   0.04145   0.81631   0.00000  Uiso   1.00
C1001  C     0.85207   0.06299   0.86705   0.00000  Uiso   1.00
H1002  H     0.83015   0.08756   0.85678   0.00000  Uiso   1.00
H1003  H     0.82800   0.04004   0.89166   0.00000  Uiso   1.00
H1004  H     0.87242   0.07756   0.89153   0.00000  Uiso   1.00
H1005  H     0.90775   0.01794   0.82949   0.00000  Uiso   1.00
H1006  H     0.91236   0.06352   0.79333   0.00000  Uiso   1.00
H1007  H     0.71833   0.10418   0.71948   0.00000  Uiso   1.00
C1008  C     0.69635   0.24273   0.78892   0.00000  Uiso   1.00
C1009  C     0.70340   0.23908   0.84399   0.00000  Uiso   1.00
H1010  H     0.68811   0.21003   0.86280   0.00000  Uiso   1.00
H1011  H     0.74123   0.24000   0.84102   0.00000  Uiso   1.00
H1012  H     0.68518   0.26576   0.87128   0.00000  Uiso   1.00
H1013  H     0.72495   0.25799   0.75892   0.00000  Uiso   1.00
H1014  H     0.66696   0.26632   0.79527   0.00000  Uiso   1.00
H1015  H     0.94310   0.20163   0.91600   0.00000  Uiso   1.00
C1016  C     0.80062   0.11660   0.58559   0.00000  Uiso   1.00
C1017  C     0.81941   0.07482   0.59836   0.00000  Uiso   1.00
H1018  H     0.84753   0.06144   0.56239   0.00000  Uiso   1.00
H1019  H     0.83409   0.07866   0.63216   0.00000  Uiso   1.00
H1020  H     0.79010   0.05263   0.61006   0.00000  Uiso   1.00
H1021  H     0.77254   0.12970   0.62163   0.00000  Uiso   1.00
H1022  H     0.78350   0.10907   0.55460   0.00000  Uiso   1.00
H1023  H     0.75336   0.18110   0.56627   0.00000  Uiso   1.00
H1024  H     0.69416   0.19125   0.52034   0.00000  Uiso   1.00
C1025  C     0.87634   0.24047   0.88300   0.00000  Uiso   1.00
C1026  C     0.85573   0.27785   0.92142   0.00000  Uiso   1.00
H1027  H     0.81705   0.27469   0.94106   0.00000  Uiso   1.00
H1028  H     0.87347   0.28054   0.95283   0.00000  Uiso   1.00
H1029  H     0.86141   0.30677   0.89868   0.00000  Uiso   1.00
H1030  H     0.91419   0.24619   0.86211   0.00000  Uiso   1.00
H1031  H     0.85761   0.23880   0.85282   0.00000  Uiso   1.00
H1032  H     0.88138   0.29353   0.79716   0.00000  Uiso   1.00
O1033  O     0.12846   0.56108   0.75000   0.00000  Uiso   1.00
O1034  O     0.20490   0.56107   0.75000   0.00000  Uiso   1.00
C1035  C     0.16645   0.57990   0.74987   0.00000  Uiso   1.00
O1036  O     0.10947   0.50000   0.82681   0.00000  Uiso   1.00
O1037  O     0.18591   0.49999   0.82681   0.00000  Uiso   1.00
C1038  C     0.14076   0.50423   0.85190   0.00000  Uiso   1.00
Zn1039 Zn    0.11562   0.50001   0.75000   0.00000  Uiso   1.00
Zn1040 Zn    0.21771   0.49999   0.75000   0.00000  Uiso   1.00
O1041  O     0.12843   0.43893   0.74999   0.00000  Uiso   1.00
O1042  O     0.20488   0.43892   0.74999   0.00000  Uiso   1.00
O1043  O     0.14742   0.50001   0.67319   0.00000  Uiso   1.00
O1044  O     0.22387   0.50000   0.67319   0.00000  Uiso   1.00
C1045  C     0.16664   0.42012   0.75166   0.00000  Uiso   1.00
C1046  C     0.19263   0.49470   0.64857   0.00000  Uiso   1.00
C1047  C     0.26717   0.49355   0.50432   0.00000  Uiso   1.00
H1048  H     0.30372   0.49476   0.97908   0.00000  Uiso   1.00
C1049  C     0.20823   0.48540   0.59036   0.00000  Uiso   1.00
C1050  C     0.07742   0.51470   0.94104   0.00000  Uiso   1.00
C1051  C     0.06419   0.51885   0.99697   0.00000  Uiso   1.00
C1052  C     0.09821   0.51347   0.52275   0.00000  Uiso   1.00
C1053  C     0.14651   0.50837   0.99209   0.00000  Uiso   1.00
C1054  C     0.15947   0.51805   0.93767   0.00000  Uiso   1.00
C1055  C     0.18278   0.49781   0.51401   0.00000  Uiso   1.00
C1056  C     0.23065   0.50453   0.98377   0.00000  Uiso   1.00
C1057  C     0.24107   0.52415   0.93496   0.00000  Uiso   1.00
C1058  C     0.20477   0.53443   0.91408   0.00000  Uiso   1.00
C1059  C     0.17358   0.48071   0.56477   0.00000  Uiso   1.00
C1060  C     0.25638   0.48314   0.55826   0.00000  Uiso   1.00
C1061  C     0.12555   0.51345   0.91051   0.00000  Uiso   1.00
H1062  H     0.05023   0.51300   0.92201   0.00000  Uiso   1.00
C1063  C     0.19351   0.64449   0.77815   0.00000  Uiso   1.00
C1064  C     0.19319   0.35416   0.78151   0.00000  Uiso   1.00
C1065  C     0.16660   0.37593   0.75400   0.00000  Uiso   1.00
C1066  C     0.13914   0.35499   0.72730   0.00000  Uiso   1.00
H1067  H     0.11830   0.37159   0.70677   0.00000  Uiso   1.00
C1068  C     0.13886   0.64568   0.72598   0.00000  Uiso   1.00
H1069  H     0.11866   0.62970   0.70389   0.00000  Uiso   1.00
C1070  C     0.16602   0.62405   0.75138   0.00000  Uiso   1.00
C1071  C     0.31490   0.46523   0.73360   0.00000  Uiso   1.00
H1072  H     0.30145   0.43733   0.72020   0.00000  Uiso   1.00
C1073  C     0.02942   0.46533   0.73319   0.00000  Uiso   1.00
N1074  N     0.04760   0.50001   0.75001   0.00000  Uiso   1.00
C1075  C     0.01714   0.53518   0.76678   0.00000  Uiso   1.00
C1076  C     0.30356   0.53475   0.76475   0.00000  Uiso   1.00
H1077  H     0.28083   0.56239   0.77501   0.00000  Uiso   1.00
N1078  N     0.28573   0.49998   0.75000   0.00000  Uiso   1.00
C1079  C     0.29558   0.46693   0.57868   0.00000  Uiso   1.00
C1080  C     0.28535   0.42374   0.60196   0.00000  Uiso   1.00
H1081  H     0.25360   0.42465   0.63827   0.00000  Uiso   1.00
H1082  H     0.27969   0.40148   0.57137   0.00000  Uiso   1.00
H1083  H     0.31604   0.41216   0.61358   0.00000  Uiso   1.00
H1084  H     0.32925   0.46305   0.54498   0.00000  Uiso   1.00
H1085  H     0.30198   0.48925   0.60867   0.00000  Uiso   1.00
C1086  C     0.21955   0.37478   0.81631   0.00000  Uiso   1.00
C1087  C     0.18540   0.39632   0.86705   0.00000  Uiso   1.00
H1088  H     0.16349   0.42090   0.85678   0.00000  Uiso   1.00
H1089  H     0.16133   0.37337   0.89166   0.00000  Uiso   1.00
H1090  H     0.20575   0.41090   0.89153   0.00000  Uiso   1.00
H1091  H     0.24109   0.35127   0.82949   0.00000  Uiso   1.00
H1092  H     0.24569   0.39685   0.79333   0.00000  Uiso   1.00
H1093  H     0.05167   0.43752   0.71948   0.00000  Uiso   1.00
C1094  C     0.02968   0.57606   0.78892   0.00000  Uiso   1.00
C1095  C     0.03673   0.57242   0.84399   0.00000  Uiso   1.00
H1096  H     0.02144   0.54336   0.86280   0.00000  Uiso   1.00
H1097  H     0.07456   0.57333   0.84102   0.00000  Uiso   1.00
H1098  H     0.01851   0.59909   0.87128   0.00000  Uiso   1.00
H1099  H     0.05828   0.59132   0.75892   0.00000  Uiso   1.00
H1100  H     0.00029   0.59965   0.79527   0.00000  Uiso   1.00
H1101  H     0.27643   0.53496   0.91600   0.00000  Uiso   1.00
C1102  C     0.13395   0.44994   0.58559   0.00000  Uiso   1.00
C1103  C     0.15274   0.40816   0.59836   0.00000  Uiso   1.00
H1104  H     0.18087   0.39478   0.56239   0.00000  Uiso   1.00
H1105  H     0.16743   0.41200   0.63216   0.00000  Uiso   1.00
H1106  H     0.12344   0.38596   0.61006   0.00000  Uiso   1.00
H1107  H     0.10588   0.46304   0.62163   0.00000  Uiso   1.00
H1108  H     0.11684   0.44240   0.55460   0.00000  Uiso   1.00
H1109  H     0.08669   0.51444   0.56627   0.00000  Uiso   1.00
H1110  H     0.02749   0.52458   0.52034   0.00000  Uiso   1.00
C1111  C     0.20967   0.57380   0.88300   0.00000  Uiso   1.00
C1112  C     0.18906   0.61118   0.92142   0.00000  Uiso   1.00
H1113  H     0.15038   0.60803   0.94106   0.00000  Uiso   1.00
H1114  H     0.20680   0.61388   0.95283   0.00000  Uiso   1.00
H1115  H     0.19475   0.64010   0.89868   0.00000  Uiso   1.00
H1116  H     0.24752   0.57953   0.86211   0.00000  Uiso   1.00
H1117  H     0.19094   0.57213   0.85282   0.00000  Uiso   1.00
H1118  H     0.21471   0.62687   0.79716   0.00000  Uiso   1.00
O1119  O     0.46179   0.56108   0.75000   0.00000  Uiso   1.00
O1120  O     0.53823   0.56107   0.75000   0.00000  Uiso   1.00
C1121  C     0.49978   0.57990   0.74987   0.00000  Uiso   1.00
O1122  O     0.44280   0.50000   0.82681   0.00000  Uiso   1.00
O1123  O     0.51924   0.49999   0.82681   0.00000  Uiso   1.00
C1124  C     0.47410   0.50423   0.85190   0.00000  Uiso   1.00
Zn1125 Zn    0.44896   0.50001   0.75000   0.00000  Uiso   1.00
Zn1126 Zn    0.55104   0.49999   0.75000   0.00000  Uiso   1.00
O1127  O     0.46177   0.43893   0.74999   0.00000  Uiso   1.00
O1128  O     0.53821   0.43892   0.74999   0.00000  Uiso   1.00
O1129  O     0.48076   0.50001   0.67319   0.00000  Uiso   1.00
O1130  O     0.55720   0.50000   0.67319   0.00000  Uiso   1.00
C1131  C     0.49997   0.42012   0.75166   0.00000  Uiso   1.00
C1132  C     0.52596   0.49470   0.64857   0.00000  Uiso   1.00
C1133  C     0.60051   0.49355   0.50432   0.00000  Uiso   1.00
H1134  H     0.63706   0.49476   0.97908   0.00000  Uiso   1.00
C1135  C     0.54157   0.48540   0.59036   0.00000  Uiso   1.00
C1136  C     0.41076   0.51470   0.94104   0.00000  Uiso   1.00
C1137  C     0.39752   0.51885   0.99697   0.00000  Uiso   1.00
C1138  C     0.43154   0.51347   0.52275   0.00000  Uiso   1.00
C1139  C     0.47984   0.50837   0.99209   0.00000  Uiso   1.00
C1140  C     0.49280   0.51805   0.93767   0.00000  Uiso   1.00
C1141  C     0.51611   0.49781   0.51401   0.00000  Uiso   1.00
C1142  C     0.56399   0.50453   0.98377   0.00000  Uiso   1.00
C1143  C     0.57441   0.52415   0.93496   0.00000  Uiso   1.00
C1144  C     0.53810   0.53443   0.91408   0.00000  Uiso   1.00
C1145  C     0.50692   0.48071   0.56477   0.00000  Uiso   1.00
C1146  C     0.58971   0.48314   0.55826   0.00000  Uiso   1.00
C1147  C     0.45888   0.51345   0.91051   0.00000  Uiso   1.00
H1148  H     0.38357   0.51300   0.92201   0.00000  Uiso   1.00
C1149  C     0.52685   0.64449   0.77815   0.00000  Uiso   1.00
C1150  C     0.52653   0.35416   0.78151   0.00000  Uiso   1.00
C1151  C     0.49994   0.37593   0.75400   0.00000  Uiso   1.00
C1152  C     0.47248   0.35499   0.72730   0.00000  Uiso   1.00
H1153  H     0.45163   0.37159   0.70677   0.00000  Uiso   1.00
C1154  C     0.47220   0.64568   0.72598   0.00000  Uiso   1.00
H1155  H     0.45199   0.62970   0.70389   0.00000  Uiso   1.00
C1156  C     0.49935   0.62405   0.75138   0.00000  Uiso   1.00
C1157  C     0.64823   0.46523   0.73360   0.00000  Uiso   1.00
H1158  H     0.63478   0.43733   0.72020   0.00000  Uiso   1.00
C1159  C     0.36276   0.46533   0.73319   0.00000  Uiso   1.00
N1160  N     0.38093   0.50001   0.75001   0.00000  Uiso   1.00
C1161  C     0.35047   0.53518   0.76678   0.00000  Uiso   1.00
C1162  C     0.63690   0.53475   0.76475   0.00000  Uiso   1.00
H1163  H     0.61417   0.56239   0.77501   0.00000  Uiso   1.00
N1164  N     0.61906   0.49998   0.75000   0.00000  Uiso   1.00
C1165  C     0.62892   0.46693   0.57868   0.00000  Uiso   1.00
C1166  C     0.61868   0.42374   0.60196   0.00000  Uiso   1.00
H1167  H     0.58694   0.42465   0.63827   0.00000  Uiso   1.00
H1168  H     0.61302   0.40148   0.57137   0.00000  Uiso   1.00
H1169  H     0.64937   0.41216   0.61358   0.00000  Uiso   1.00
H1170  H     0.66258   0.46305   0.54498   0.00000  Uiso   1.00
H1171  H     0.63531   0.48925   0.60867   0.00000  Uiso   1.00
C1172  C     0.55289   0.37478   0.81631   0.00000  Uiso   1.00
C1173  C     0.51874   0.39632   0.86705   0.00000  Uiso   1.00
H1174  H     0.49682   0.42090   0.85678   0.00000  Uiso   1.00
H1175  H     0.49466   0.37337   0.89166   0.00000  Uiso   1.00
H1176  H     0.53908   0.41090   0.89153   0.00000  Uiso   1.00
H1177  H     0.57442   0.35127   0.82949   0.00000  Uiso   1.00
H1178  H     0.57903   0.39685   0.79333   0.00000  Uiso   1.00
H1179  H     0.38500   0.43752   0.71948   0.00000  Uiso   1.00
C1180  C     0.36301   0.57606   0.78892   0.00000  Uiso   1.00
C1181  C     0.37006   0.57242   0.84399   0.00000  Uiso   1.00
H1182  H     0.35478   0.54336   0.86280   0.00000  Uiso   1.00
H1183  H     0.40790   0.57333   0.84102   0.00000  Uiso   1.00
H1184  H     0.35184   0.59909   0.87128   0.00000  Uiso   1.00
H1185  H     0.39161   0.59132   0.75892   0.00000  Uiso   1.00
H1186  H     0.33362   0.59965   0.79527   0.00000  Uiso   1.00
H1187  H     0.60976   0.53496   0.91600   0.00000  Uiso   1.00
C1188  C     0.46729   0.44994   0.58559   0.00000  Uiso   1.00
C1189  C     0.48607   0.40816   0.59836   0.00000  Uiso   1.00
H1190  H     0.51420   0.39478   0.56239   0.00000  Uiso   1.00
H1191  H     0.50076   0.41200   0.63216   0.00000  Uiso   1.00
H1192  H     0.45677   0.38596   0.61006   0.00000  Uiso   1.00
H1193  H     0.43921   0.46304   0.62163   0.00000  Uiso   1.00
H1194  H     0.45017   0.44240   0.55460   0.00000  Uiso   1.00
H1195  H     0.42003   0.51444   0.56627   0.00000  Uiso   1.00
H1196  H     0.36083   0.52458   0.52034   0.00000  Uiso   1.00
C1197  C     0.54301   0.57380   0.88300   0.00000  Uiso   1.00
C1198  C     0.52239   0.61118   0.92142   0.00000  Uiso   1.00
H1199  H     0.48372   0.60803   0.94106   0.00000  Uiso   1.00
H1200  H     0.54013   0.61388   0.95283   0.00000  Uiso   1.00
H1201  H     0.52808   0.64010   0.89868   0.00000  Uiso   1.00
H1202  H     0.58085   0.57953   0.86211   0.00000  Uiso   1.00
H1203  H     0.52427   0.57213   0.85282   0.00000  Uiso   1.00
H1204  H     0.54805   0.62687   0.79716   0.00000  Uiso   1.00
O1205  O     0.79512   0.56108   0.75000   0.00000  Uiso   1.00
O1206  O     0.87157   0.56107   0.75000   0.00000  Uiso   1.00
C1207  C     0.83312   0.57990   0.74987   0.00000  Uiso   1.00
O1208  O     0.77613   0.50000   0.82681   0.00000  Uiso   1.00
O1209  O     0.85258   0.49999   0.82681   0.00000  Uiso   1.00
C1210  C     0.80743   0.50423   0.85190   0.00000  Uiso   1.00
Zn1211 Zn    0.78229   0.50001   0.75000   0.00000  Uiso   1.00
Zn1212 Zn    0.88438   0.49999   0.75000   0.00000  Uiso   1.00
O1213  O     0.79510   0.43893   0.74999   0.00000  Uiso   1.00
O1214  O     0.87154   0.43892   0.74999   0.00000  Uiso   1.00
O1215  O     0.81409   0.50001   0.67319   0.00000  Uiso   1.00
O1216  O     0.89053   0.50000   0.67319   0.00000  Uiso   1.00
C1217  C     0.83330   0.42012   0.75166   0.00000  Uiso   1.00
C1218  C     0.85930   0.49470   0.64857   0.00000  Uiso   1.00
C1219  C     0.93384   0.49355   0.50432   0.00000  Uiso   1.00
H1220  H     0.97039   0.49476   0.97908   0.00000  Uiso   1.00
C1221  C     0.87490   0.48540   0.59036   0.00000  Uiso   1.00
C1222  C     0.74409   0.51470   0.94104   0.00000  Uiso   1.00
C1223  C     0.73086   0.51885   0.99697   0.00000  Uiso   1.00
C1224  C     0.76488   0.51347   0.52275   0.00000  Uiso   1.00
C1225  C     0.81318   0.50837   0.99209   0.00000  Uiso   1.00
C1226  C     0.82614   0.51805   0.93767   0.00000  Uiso   1.00
C1227  C     0.84945   0.49781   0.51401   0.00000  Uiso   1.00
C1228  C     0.89732   0.50453   0.98377   0.00000  Uiso   1.00
C1229  C     0.90774   0.52415   0.93496   0.00000  Uiso   1.00
C1230  C     0.87144   0.53443   0.91408   0.00000  Uiso   1.00
C1231  C     0.84025   0.48071   0.56477   0.00000  Uiso   1.00
C1232  C     0.92305   0.48314   0.55826   0.00000  Uiso   1.00
C1233  C     0.79222   0.51345   0.91051   0.00000  Uiso   1.00
H1234  H     0.71690   0.51300   0.92201   0.00000  Uiso   1.00
C1235  C     0.86018   0.64449   0.77815   0.00000  Uiso   1.00
C1236  C     0.85986   0.35416   0.78151   0.00000  Uiso   1.00
C1237  C     0.83327   0.37593   0.75400   0.00000  Uiso   1.00
C1238  C     0.80581   0.35499   0.72730   0.00000  Uiso   1.00
H1239  H     0.78497   0.37159   0.70677   0.00000  Uiso   1.00
C1240  C     0.80553   0.64568   0.72598   0.00000  Uiso   1.00
H1241  H     0.78533   0.62970   0.70389   0.00000  Uiso   1.00
C1242  C     0.83269   0.62405   0.75138   0.00000  Uiso   1.00
C1243  C     0.98156   0.46523   0.73360   0.00000  Uiso   1.00
H1244  H     0.96812   0.43733   0.72020   0.00000  Uiso   1.00
C1245  C     0.69609   0.46533   0.73319   0.00000  Uiso   1.00
N1246  N     0.71426   0.50001   0.75001   0.00000  Uiso   1.00
C1247  C     0.68380   0.53518   0.76678   0.00000  Uiso   1.00
C1248  C     0.97023   0.53475   0.76475   0.00000  Uiso   1.00
H1249  H     0.94750   0.56239   0.77501   0.00000  Uiso   1.00
N1250  N     0.95239   0.49998   0.75000   0.00000  Uiso   1.00
C1251  C     0.96225   0.46693   0.57868   0.00000  Uiso   1.00
C1252  C     0.95202   0.42374   0.60196   0.00000  Uiso   1.00
H1253  H     0.92027   0.42465   0.63827   0.00000  Uiso   1.00
H1254  H     0.94636   0.40148   0.57137   0.00000  Uiso   1.00
H1255  H     0.98271   0.41216   0.61358   0.00000  Uiso   1.00
H1256  H     0.99591   0.46305   0.54498   0.00000  Uiso   1.00
H1257  H     0.96865   0.48925   0.60867   0.00000  Uiso   1.00
C1258  C     0.88622   0.37478   0.81631   0.00000  Uiso   1.00
C1259  C     0.85207   0.39632   0.86705   0.00000  Uiso   1.00
H1260  H     0.83015   0.42090   0.85678   0.00000  Uiso   1.00
H1261  H     0.82800   0.37337   0.89166   0.00000  Uiso   1.00
H1262  H     0.87242   0.41090   0.89153   0.00000  Uiso   1.00
H1263  H     0.90775   0.35127   0.82949   0.00000  Uiso   1.00
H1264  H     0.91236   0.39685   0.79333   0.00000  Uiso   1.00
H1265  H     0.71833   0.43752   0.71948   0.00000  Uiso   1.00
C1266  C     0.69635   0.57606   0.78892   0.00000  Uiso   1.00
C1267  C     0.70340   0.57242   0.84399   0.00000  Uiso   1.00
H1268  H     0.68811   0.54336   0.86280   0.00000  Uiso   1.00
H1269  H     0.74123   0.57333   0.84102   0.00000  Uiso   1.00
H1270  H     0.68518   0.59909   0.87128   0.00000  Uiso   1.00
H1271  H     0.72495   0.59132   0.75892   0.00000  Uiso   1.00
H1272  H     0.66696   0.59965   0.79527   0.00000  Uiso   1.00
H1273  H     0.94310   0.53496   0.91600   0.00000  Uiso   1.00
C1274  C     0.80062   0.44994   0.58559   0.00000  Uiso   1.00
C1275  C     0.81941   0.40816   0.59836   0.00000  Uiso   1.00
H1276  H     0.84753   0.39478   0.56239   0.00000  Uiso   1.00
H1277  H     0.83409   0.41200   0.63216   0.00000  Uiso   1.00
H1278  H     0.79010   0.38596   0.61006   0.00000  Uiso   1.00
H1279  H     0.77254   0.46304   0.62163   0.00000  Uiso   1.00
H1280  H     0.78350   0.44240   0.55460   0.00000  Uiso   1.00
H1281  H     0.75336   0.51444   0.56627   0.00000  Uiso   1.00
H1282  H     0.69416   0.52458   0.52034   0.00000  Uiso   1.00
C1283  C     0.87634   0.57380   0.88300   0.00000  Uiso   1.00
C1284  C     0.85573   0.61118   0.92142   0.00000  Uiso   1.00
H1285  H     0.81705   0.60803   0.94106   0.00000  Uiso   1.00
H1286  H     0.87347   0.61388   0.95283   0.00000  Uiso   1.00
H1287  H     0.86141   0.64010   0.89868   0.00000  Uiso   1.00
H1288  H     0.91419   0.57953   0.86211   0.00000  Uiso   1.00
H1289  H     0.85761   0.57213   0.85282   0.00000  Uiso   1.00
H1290  H     0.88138   0.62687   0.79716   0.00000  Uiso   1.00
O1291  O     0.12846   0.89442   0.75000   0.00000  Uiso   1.00
O1292  O     0.20490   0.89441   0.75000   0.00000  Uiso   1.00
C1293  C     0.16645   0.91324   0.74987   0.00000  Uiso   1.00
O1294  O     0.10947   0.83333   0.82681   0.00000  Uiso   1.00
O1295  O     0.18591   0.83332   0.82681   0.00000  Uiso   1.00
C1296  C     0.14076   0.83756   0.85190   0.00000  Uiso   1.00
Zn1297 Zn    0.11562   0.83334   0.75000   0.00000  Uiso   1.00
Zn1298 Zn    0.21771   0.83333   0.75000   0.00000  Uiso   1.00
O1299  O     0.12843   0.77226   0.74999   0.00000  Uiso   1.00
O1300  O     0.20488   0.77225   0.74999   0.00000  Uiso   1.00
O1301  O     0.14742   0.83335   0.67319   0.00000  Uiso   1.00
O1302  O     0.22387   0.83334   0.67319   0.00000  Uiso   1.00
C1303  C     0.16664   0.75346   0.75166   0.00000  Uiso   1.00
C1304  C     0.19263   0.82803   0.64857   0.00000  Uiso   1.00
C1305  C     0.26717   0.82688   0.50432   0.00000  Uiso   1.00
H1306  H     0.30372   0.82810   0.97908   0.00000  Uiso   1.00
C1307  C     0.20823   0.81873   0.59036   0.00000  Uiso   1.00
C1308  C     0.07742   0.84804   0.94104   0.00000  Uiso   1.00
C1309  C     0.06419   0.85218   0.99697   0.00000  Uiso   1.00
C1310  C     0.09821   0.84680   0.52275   0.00000  Uiso   1.00
C1311  C     0.14651   0.84170   0.99209   0.00000  Uiso   1.00
C1312  C     0.15947   0.85139   0.93767   0.00000  Uiso   1.00
C1313  C     0.18278   0.83114   0.51401   0.00000  Uiso   1.00
C1314  C     0.23065   0.83786   0.98377   0.00000  Uiso   1.00
C1315  C     0.24107   0.85748   0.93496   0.00000  Uiso   1.00
C1316  C     0.20477   0.86776   0.91408   0.00000  Uiso   1.00
C1317  C     0.17358   0.81405   0.56477   0.00000  Uiso   1.00
C1318  C     0.25638   0.81648   0.55826   0.00000  Uiso   1.00
C1319  C     0.12555   0.84679   0.91051   0.00000  Uiso   1.00
H1320  H     0.05023   0.84633   0.92201   0.00000  Uiso   1.00
C1321  C     0.19351   0.97783   0.77815   0.00000  Uiso   1.00
C1322  C     0.19319   0.68750   0.78151   0.00000  Uiso   1.00
C1323  C     0.16660   0.70926   0.75400   0.00000  Uiso   1.00
C1324  C     0.13914   0.68832   0.72730   0.00000  Uiso   1.00
H1325  H     0.11830   0.70492   0.70677   0.00000  Uiso   1.00
C1326  C     0.13886   0.97902   0.72598   0.00000  Uiso   1.00
H1327  H     0.11866   0.96304   0.70389   0.00000  Uiso   1.00
C1328  C     0.16602   0.95738   0.75138   0.00000  Uiso   1.00
C1329  C     0.31490   0.79857   0.73360   0.00000  Uiso   1.00
H1330  H     0.30145   0.77067   0.72020   0.00000  Uiso   1.00
C1331  C     0.02942   0.79866   0.73319   0.00000  Uiso   1.00
N1332  N     0.04760   0.83334   0.75001   0.00000  Uiso   1.00
C1333  C     0.01714   0.86851   0.76678   0.00000  Uiso   1.00
C1334  C     0.30356   0.86808   0.76475   0.00000  Uiso   1.00
H1335  H     0.28083   0.89573   0.77501   0.00000  Uiso   1.00
N1336  N     0.28573   0.83331   0.75000   0.00000  Uiso   1.00
C1337  C     0.29558   0.80027   0.57868   0.00000  Uiso   1.00
C1338  C     0.28535   0.75707   0.60196   0.00000  Uiso   1.00
H1339  H     0.25360   0.75798   0.63827   0.00000  Uiso   1.00
H1340  H     0.27969   0.73482   0.57137   0.00000  Uiso   1.00
H1341  H     0.31604   0.74549   0.61358   0.00000  Uiso   1.00
H1342  H     0.32925   0.79639   0.54498   0.00000  Uiso   1.00
H1343  H     0.30198   0.82258   0.60867   0.00000  Uiso   1.00
C1344  C     0.21955   0.70811   0.81631   0.00000  Uiso   1.00
C1345  C     0.18540   0.72965   0.86705   0.00000  Uiso   1.00
H1346  H     0.16349   0.75423   0.85678   0.00000  Uiso   1.00
H1347  H     0.16133   0.70670   0.89166   0.00000  Uiso   1.00
H1348  H     0.20575   0.74423   0.89153   0.00000  Uiso   1.00
H1349  H     0.24109   0.68460   0.82949   0.00000  Uiso   1.00
H1350  H     0.24569   0.73019   0.79333   0.00000  Uiso   1.00
H1351  H     0.05167   0.77085   0.71948   0.00000  Uiso   1.00
C1352  C     0.02968   0.90940   0.78892   0.00000  Uiso   1.00
C1353  C     0.03673   0.90575   0.84399   0.00000  Uiso   1.00
H1354  H     0.02144   0.87670   0.86280   0.00000  Uiso   1.00
H1355  H     0.07456   0.90667   0.84102   0.00000  Uiso   1.00
H1356  H     0.01851   0.93242   0.87128   0.00000  Uiso   1.00
H1357  H     0.05828   0.92465   0.75892   0.00000  Uiso   1.00
H1358  H     0.00029   0.93298   0.79527   0.00000  Uiso   1.00
H1359  H     0.27643   0.86829   0.91600   0.00000  Uiso   1.00
C1360  C     0.13395   0.78327   0.58559   0.00000  Uiso   1.00
C1361  C     0.15274   0.74149   0.59836   0.00000  Uiso   1.00
H1362  H     0.18087   0.72811   0.56239   0.00000  Uiso   1.00
H1363  H     0.16743   0.74533   0.63216   0.00000  Uiso   1.00
H1364  H     0.12344   0.71930   0.61006   0.00000  Uiso   1.00
H1365  H     0.10588   0.79637   0.62163   0.00000  Uiso   1.00
H1366  H     0.11684   0.77573   0.55460   0.00000  Uiso   1.00
H1367  H     0.08669   0.84777   0.56627   0.00000  Uiso   1.00
H1368  H     0.02749   0.85792   0.52034   0.00000  Uiso   1.00
C1369  C     0.20967   0.90713   0.88300   0.00000  Uiso   1.00
C1370  C     0.18906   0.94451   0.92142   0.00000  Uiso   1.00
H1371  H     0.15038   0.94136   0.94106   0.00000  Uiso   1.00
H1372  H     0.20680   0.94721   0.95283   0.00000  Uiso   1.00
H1373  H     0.19475   0.97343   0.89868   0.00000  Uiso   1.00
H1374  H     0.24752   0.91286   0.86211   0.00000  Uiso   1.00
H1375  H     0.19094   0.90546   0.85282   0.00000  Uiso   1.00
H1376  H     0.21471   0.96020   0.79716   0.00000  Uiso   1.00
O1377  O     0.46179   0.89442   0.75000   0.00000  Uiso   1.00
O1378  O     0.53823   0.89441   0.75000   0.00000  Uiso   1.00
C1379  C     0.49978   0.91324   0.74987   0.00000  Uiso   1.00
O1380  O     0.44280   0.83333   0.82681   0.00000  Uiso   1.00
O1381  O     0.51924   0.83332   0.82681   0.00000  Uiso   1.00
C1382  C     0.47410   0.83756   0.85190   0.00000  Uiso   1.00
Zn1383 Zn    0.44896   0.83334   0.75000   0.00000  Uiso   1.00
Zn1384 Zn    0.55104   0.83333   0.75000   0.00000  Uiso   1.00
O1385  O     0.46177   0.77226   0.74999   0.00000  Uiso   1.00
O1386  O     0.53821   0.77225   0.74999   0.00000  Uiso   1.00
O1387  O     0.48076   0.83335   0.67319   0.00000  Uiso   1.00
O1388  O     0.55720   0.83334   0.67319   0.00000  Uiso   1.00
C1389  C     0.49997   0.75346   0.75166   0.00000  Uiso   1.00
C1390  C     0.52596   0.82803   0.64857   0.00000  Uiso   1.00
C1391  C     0.60051   0.82688   0.50432   0.00000  Uiso   1.00
H1392  H     0.63706   0.82810   0.97908   0.00000  Uiso   1.00
C1393  C     0.54157   0.81873   0.59036   0.00000  Uiso   1.00
C1394  C     0.41076   0.84804   0.94104   0.00000  Uiso   1.00
C1395  C     0.39752   0.85218   0.99697   0.00000  Uiso   1.00
C1396  C     0.43154   0.84680   0.52275   0.00000  Uiso   1.00
C1397  C     0.47984   0.84170   0.99209   0.00000  Uiso   1.00
C1398  C     0.49280   0.85139   0.93767   0.00000  Uiso   1.00
C1399  C     0.51611   0.83114   0.51401   0.00000  Uiso   1.00
C1400  C     0.56399   0.83786   0.98377   0.00000  Uiso   1.00
C1401  C     0.57441   0.85748   0.93496   0.00000  Uiso   1.00
C1402  C     0.53810   0.86776   0.91408   0.00000  Uiso   1.00
C1403  C     0.50692   0.81405   0.56477   0.00000  Uiso   1.00
C1404  C     0.58971   0.81648   0.55826   0.00000  Uiso   1.00
C1405  C     0.45888   0.84679   0.91051   0.00000  Uiso   1.00
H1406  H     0.38357   0.84633   0.92201   0.00000  Uiso   1.00
C1407  C     0.52685   0.97783   0.77815   0.00000  Uiso   1.00
C1408  C     0.52653   0.68750   0.78151   0.00000  Uiso   1.00
C1409  C     0.49994   0.70926   0.75400   0.00000  Uiso   1.00
C1410  C     0.47248   0.68832   0.72730   0.00000  Uiso   1.00
H1411  H     0.45163   0.70492   0.70677   0.00000  Uiso   1.00
C1412  C     0.47220   0.97902   0.72598   0.00000  Uiso   1.00
H1413  H     0.45199   0.96304   0.70389   0.00000  Uiso   1.00
C1414  C     0.49935   0.95738   0.75138   0.00000  Uiso   1.00
C1415  C     0.64823   0.79857   0.73360   0.00000  Uiso   1.00
H1416  H     0.63478   0.77067   0.72020   0.00000  Uiso   1.00
C1417  C     0.36276   0.79866   0.73319   0.00000  Uiso   1.00
N1418  N     0.38093   0.83334   0.75001   0.00000  Uiso   1.00
C1419  C     0.35047   0.86851   0.76678   0.00000  Uiso   1.00
C1420  C     0.63690   0.86808   0.76475   0.00000  Uiso   1.00
H1421  H     0.61417   0.89573   0.77501   0.00000  Uiso   1.00
N1422  N     0.61906   0.83331   0.75000   0.00000  Uiso   1.00
C1423  C     0.62892   0.80027   0.57868   0.00000  Uiso   1.00
C1424  C     0.61868   0.75707   0.60196   0.00000  Uiso   1.00
H1425  H     0.58694   0.75798   0.63827   0.00000  Uiso   1.00
H1426  H     0.61302   0.73482   0.57137   0.00000  Uiso   1.00
H1427  H     0.64937   0.74549   0.61358   0.00000  Uiso   1.00
H1428  H     0.66258   0.79639   0.54498   0.00000  Uiso   1.00
H1429  H     0.63531   0.82258   0.60867   0.00000  Uiso   1.00
C1430  C     0.55289   0.70811   0.81631   0.00000  Uiso   1.00
C1431  C     0.51874   0.72965   0.86705   0.00000  Uiso   1.00
H1432  H     0.49682   0.75423   0.85678   0.00000  Uiso   1.00
H1433  H     0.49466   0.70670   0.89166   0.00000  Uiso   1.00
H1434  H     0.53908   0.74423   0.89153   0.00000  Uiso   1.00
H1435  H     0.57442   0.68460   0.82949   0.00000  Uiso   1.00
H1436  H     0.57903   0.73019   0.79333   0.00000  Uiso   1.00
H1437  H     0.38500   0.77085   0.71948   0.00000  Uiso   1.00
C1438  C     0.36301   0.90940   0.78892   0.00000  Uiso   1.00
C1439  C     0.37006   0.90575   0.84399   0.00000  Uiso   1.00
H1440  H     0.35478   0.87670   0.86280   0.00000  Uiso   1.00
H1441  H     0.40790   0.90667   0.84102   0.00000  Uiso   1.00
H1442  H     0.35184   0.93242   0.87128   0.00000  Uiso   1.00
H1443  H     0.39161   0.92465   0.75892   0.00000  Uiso   1.00
H1444  H     0.33362   0.93298   0.79527   0.00000  Uiso   1.00
H1445  H     0.60976   0.86829   0.91600   0.00000  Uiso   1.00
C1446  C     0.46729   0.78327   0.58559   0.00000  Uiso   1.00
C1447  C     0.48607   0.74149   0.59836   0.00000  Uiso   1.00
H1448  H     0.51420   0.72811   0.56239   0.00000  Uiso   1.00
H1449  H     0.50076   0.74533   0.63216   0.00000  Uiso   1.00
H1450  H     0.45677   0.71930   0.61006   0.00000  Uiso   1.00
H1451  H     0.43921   0.79637   0.62163   0.00000  Uiso   1.00
H1452  H     0.45017   0.77573   0.55460   0.00000  Uiso   1.00
H1453  H     0.42003   0.84777   0.56627   0.00000  Uiso   1.00
H1454  H     0.36083   0.85792   0.52034   0.00000  Uiso   1.00
C1455  C     0.54301   0.90713   0.88300   0.00000  Uiso   1.00
C1456  C     0.52239   0.94451   0.92142   0.00000  Uiso   1.00
H1457  H     0.48372   0.94136   0.94106   0.00000  Uiso   1.00
H1458  H     0.54013   0.94721   0.95283   0.00000  Uiso   1.00
H1459  H     0.52808   0.97343   0.89868   0.00000  Uiso   1.00
H1460  H     0.58085   0.91286   0.86211   0.00000  Uiso   1.00
H1461  H     0.52427   0.90546   0.85282   0.00000  Uiso   1.00
H1462  H     0.54805   0.96020   0.79716   0.00000  Uiso   1.00
O1463  O     0.79512   0.89442   0.75000   0.00000  Uiso   1.00
O1464  O     0.87157   0.89441   0.75000   0.00000  Uiso   1.00
C1465  C     0.83312   0.91324   0.74987   0.00000  Uiso   1.00
O1466  O     0.77613   0.83333   0.82681   0.00000  Uiso   1.00
O1467  O     0.85258   0.83332   0.82681   0.00000  Uiso   1.00
C1468  C     0.80743   0.83756   0.85190   0.00000  Uiso   1.00
Zn1469 Zn    0.78229   0.83334   0.75000   0.00000  Uiso   1.00
Zn1470 Zn    0.88438   0.83333   0.75000   0.00000  Uiso   1.00
O1471  O     0.79510   0.77226   0.74999   0.00000  Uiso   1.00
O1472  O     0.87154   0.77225   0.74999   0.00000  Uiso   1.00
O1473  O     0.81409   0.83335   0.67319   0.00000  Uiso   1.00
O1474  O     0.89053   0.83334   0.67319   0.00000  Uiso   1.00
C1475  C     0.83330   0.75346   0.75166   0.00000  Uiso   1.00
C1476  C     0.85930   0.82803   0.64857   0.00000  Uiso   1.00
C1477  C     0.93384   0.82688   0.50432   0.00000  Uiso   1.00
H1478  H     0.97039   0.82810   0.97908   0.00000  Uiso   1.00
C1479  C     0.87490   0.81873   0.59036   0.00000  Uiso   1.00
C1480  C     0.74409   0.84804   0.94104   0.00000  Uiso   1.00
C1481  C     0.73086   0.85218   0.99697   0.00000  Uiso   1.00
C1482  C     0.76488   0.84680   0.52275   0.00000  Uiso   1.00
C1483  C     0.81318   0.84170   0.99209   0.00000  Uiso   1.00
C1484  C     0.82614   0.85139   0.93767   0.00000  Uiso   1.00
C1485  C     0.84945   0.83114   0.51401   0.00000  Uiso   1.00
C1486  C     0.89732   0.83786   0.98377   0.00000  Uiso   1.00
C1487  C     0.90774   0.85748   0.93496   0.00000  Uiso   1.00
C1488  C     0.87144   0.86776   0.91408   0.00000  Uiso   1.00
C1489  C     0.84025   0.81405   0.56477   0.00000  Uiso   1.00
C1490  C     0.92305   0.81648   0.55826   0.00000  Uiso   1.00
C1491  C     0.79222   0.84679   0.91051   0.00000  Uiso   1.00
H1492  H     0.71690   0.84633   0.92201   0.00000  Uiso   1.00
C1493  C     0.86018   0.97783   0.77815   0.00000  Uiso   1.00
C1494  C     0.85986   0.68750   0.78151   0.00000  Uiso   1.00
C1495  C     0.83327   0.70926   0.75400   0.00000  Uiso   1.00
C1496  C     0.80581   0.68832   0.72730   0.00000  Uiso   1.00
H1497  H     0.78497   0.70492   0.70677   0.00000  Uiso   1.00
C1498  C     0.80553   0.97902   0.72598   0.00000  Uiso   1.00
H1499  H     0.78533   0.96304   0.70389   0.00000  Uiso   1.00
C1500  C     0.83269   0.95738   0.75138   0.00000  Uiso   1.00
C1501  C     0.98156   0.79857   0.73360   0.00000  Uiso   1.00
H1502  H     0.96812   0.77067   0.72020   0.00000  Uiso   1.00
C1503  C     0.69609   0.79866   0.73319   0.00000  Uiso   1.00
N1504  N     0.71426   0.83334   0.75001   0.00000  Uiso   1.00
C1505  C     0.68380   0.86851   0.76678   0.00000  Uiso   1.00
C1506  C     0.97023   0.86808   0.76475   0.00000  Uiso   1.00
H1507  H     0.94750   0.89573   0.77501   0.00000  Uiso   1.00
N1508  N     0.95239   0.83331   0.75000   0.00000  Uiso   1.00
C1509  C     0.96225   0.80027   0.57868   0.00000  Uiso   1.00
C1510  C     0.95202   0.75707   0.60196   0.00000  Uiso   1.00
H1511  H     0.92027   0.75798   0.63827   0.00000  Uiso   1.00
H1512  H     0.94636   0.73482   0.57137   0.00000  Uiso   1.00
H1513  H     0.98271   0.74549   0.61358   0.00000  Uiso   1.00
H1514  H     0.99591   0.79639   0.54498   0.00000  Uiso   1.00
H1515  H     0.96865   0.82258   0.60867   0.00000  Uiso   1.00
C1516  C     0.88622   0.70811   0.81631   0.00000  Uiso   1.00
C1517  C     0.85207   0.72965   0.86705   0.00000  Uiso   1.00
H1518  H     0.83015   0.75423   0.85678   0.00000  Uiso   1.00
H1519  H     0.82800   0.70670   0.89166   0.00000  Uiso   1.00
H1520  H     0.87242   0.74423   0.89153   0.00000  Uiso   1.00
H1521  H     0.90775   0.68460   0.82949   0.00000  Uiso   1.00
H1522  H     0.91236   0.73019   0.79333   0.00000  Uiso   1.00
H1523  H     0.71833   0.77085   0.71948   0.00000  Uiso   1.00
C1524  C     0.69635   0.90940   0.78892   0.00000  Uiso   1.00
C1525  C     0.70340   0.90575   0.84399   0.00000  Uiso   1.00
H1526  H     0.68811   0.87670   0.86280   0.00000  Uiso   1.00
H1527  H     0.74123   0.90667   0.84102   0.00000  Uiso   1.00
H1528  H     0.68518   0.93242   0.87128   0.00000  Uiso   1.00
H1529  H     0.72495   0.92465   0.75892   0.00000  Uiso   1.00
H1530  H     0.66696   0.93298   0.79527   0.00000  Uiso   1.00
H1531  H     0.94310   0.86829   0.91600   0.00000  Uiso   1.00
C1532  C     0.80062   0.78327   0.58559   0.00000  Uiso   1.00
C1533  C     0.81941   0.74149   0.59836   0.00000  Uiso   1.00
H1534  H     0.84753   0.72811   0.56239   0.00000  Uiso   1.00
H1535  H     0.83409   0.74533   0.63216   0.00000  Uiso   1.00
H1536  H     0.79010   0.71930   0.61006   0.00000  Uiso   1.00
H1537  H     0.77254   0.79637   0.62163   0.00000  Uiso   1.00
H1538  H     0.78350   0.77573   0.55460   0.00000  Uiso   1.00
H1539  H     0.75336   0.84777   0.56627   0.00000  Uiso   1.00
H1540  H     0.69416   0.85792   0.52034   0.00000  Uiso   1.00
C1541  C     0.87634   0.90713   0.88300   0.00000  Uiso   1.00
C1542  C     0.85573   0.94451   0.92142   0.00000  Uiso   1.00
H1543  H     0.81705   0.94136   0.94106   0.00000  Uiso   1.00
H1544  H     0.87347   0.94721   0.95283   0.00000  Uiso   1.00
H1545  H     0.86141   0.97343   0.89868   0.00000  Uiso   1.00
H1546  H     0.91419   0.91286   0.86211   0.00000  Uiso   1.00
H1547  H     0.85761   0.90546   0.85282   0.00000  Uiso   1.00
H1548  H     0.88138   0.96020   0.79716   0.00000  Uiso   1.00
loop_
_geom_bond_atom_site_label_1
_geom_bond_atom_site_label_2
_geom_bond_distance
_geom_bond_site_symmetry_2
_ccdc_geom_bond_type
O1     C3      1.292   .     A
O1     Zn7     2.005   .     S
O2     Zn8     1.989   .     S
O2     C3      1.284   .     A
C3     C38     1.416   .     S
O4     Zn7     1.962   .     S
O4     C6      1.305   .     A
O5     Zn8     1.934   .     S
O5     C6      1.298   .     A
C6     C29     1.475   .     S
Zn7    O11     1.934   .     S
Zn7    N42     2.025   .     S
Zn7    O9      1.989   .     S
Zn8    O12     1.962   .     S
Zn8    N46     2.024   .     S
Zn8    O10     2.005   .     S
O9     C13     1.290   .     A
O10    C13     1.288   .     A
O11    C14     1.301   .     A
O12    C14     1.299   .     A
C13    C33     1.422   .     S
C14    C17     1.465   .     S
C15    C28     1.399   .     A
C15    H790    1.082   1_554 S
C15    C798    1.400   1_554 S
H16    C789    1.082   .     S
C17    C27     1.404   .     A
C17    C28     1.413   .     A
C18    C19     1.393   .     A
C18    H30     1.078   .     S
C18    C29     1.402   .     A
C19    C794    1.394   .     S
C19    H852    1.079   .     S
C20    H77     1.081   .     S
C20    C793    1.394   1_554 S
C20    C795    1.411   1_554 S
C21    C22     1.401   .     A
C21    C794    1.411   .     S
C21    C797    1.414   .     S
C22    C29     1.414   .     A
C22    C26     1.414   .     A
C23    C27     1.402   .     A
C23    C795    1.414   1_554 S
C23    C798    1.420   1_554 S
C24    C25     1.392   .     A
C24    C789    1.400   .     S
C24    C797    1.420   .     S
C25    C26     1.395   .     A
C25    H69     1.082   .     S
C26    C79     1.510   .     S
C27    C70     1.530   .     S
C28    C47     1.518   .     S
C31    H86     1.081   .     S
C31    C38     1.395   .     A
C31    C290    1.380   .     S
C32    C54     1.523   .     S
C32    C33     1.415   .     A
C32    C547    1.380   1_545 S
C33    C34     1.401   .     A
C34    H35     1.083   .     S
C34    C552    1.368   1_545 S
C36    H37     1.083   .     S
C36    C38     1.387   .     A
C36    C292    1.368   .     S
C39    H40     1.081   .     S
C39    N46     1.370   .     A
C39    C127    1.421   .     S
C41    N42     1.367   .     A
C41    H61     1.081   .     S
C41    C211    1.421   1_455 S
N42    C43     1.401   .     A
C43    C62     1.518   .     S
C43    C216    1.414   1_455 S
C44    N46     1.343   .     A
C44    H45     1.078   .     S
C44    C129    1.414   .     S
C47    C48     1.530   .     S
C47    H53     1.109   .     S
C47    H52     1.108   .     S
C48    H51     1.111   .     S
C48    H50     1.111   .     S
C48    H49     1.108   .     S
C54    H60     1.106   .     S
C54    H59     1.112   .     S
C54    C55     1.529   .     S
C55    H56     1.106   .     S
C55    H57     1.110   .     S
C55    H58     1.111   .     S
C62    H67     1.096   .     S
C62    C63     1.529   .     S
C62    H68     1.113   .     S
C63    H65     1.105   .     S
C63    H66     1.111   .     S
C63    H64     1.107   .     S
C70    C71     1.529   .     S
C70    H76     1.110   .     S
C70    H75     1.108   .     S
C71    H73     1.109   .     S
C71    H74     1.110   .     S
C71    H72     1.111   .     S
H78    C793    1.079   1_554 S
C79    H84     1.108   .     S
C79    C80     1.527   .     S
C79    H85     1.102   .     S
C80    H83     1.106   .     S
C80    H82     1.111   .     S
C80    H81     1.111   .     S
O87    C89     1.292   .     A
O87    Zn93    2.005   .     S
O88    Zn94    1.989   .     S
O88    C89     1.284   .     A
C89    C124    1.416   .     S
O90    Zn93    1.962   .     S
O90    C92     1.305   .     A
O91    Zn94    1.934   .     S
O91    C92     1.298   .     A
C92    C115    1.475   .     S
Zn93   O97     1.934   .     S
Zn93   N128    2.025   .     S
Zn93   O95     1.989   .     S
Zn94   O98     1.962   .     S
Zn94   N132    2.024   .     S
Zn94   O96     2.005   .     S
O95    C99     1.290   .     A
O96    C99     1.288   .     A
O97    C100    1.301   .     A
O98    C100    1.299   .     A
C99    C119    1.422   .     S
C100   C103    1.465   .     S
C101   C114    1.399   .     A
C101   H876    1.082   1_554 S
C101   C884    1.400   1_554 S
H102   C875    1.082   .     S
C103   C113    1.404   .     A
C103   C114    1.413   .     A
C104   C105    1.393   .     A
C104   H116    1.078   .     S
C104   C115    1.402   .     A
C105   C880    1.394   .     S
C105   H938    1.079   .     S
C106   H163    1.081   .     S
C106   C879    1.394   1_554 S
C106   C881    1.411   1_554 S
C107   C108    1.401   .     A
C107   C880    1.411   .     S
C107   C883    1.414   .     S
C108   C115    1.414   .     A
C108   C112    1.414   .     A
C109   C113    1.402   .     A
C109   C881    1.414   1_554 S
C109   C884    1.420   1_554 S
C110   C111    1.392   .     A
C110   C875    1.400   .     S
C110   C883    1.420   .     S
C111   C112    1.395   .     A
C111   H155    1.082   .     S
C112   C165    1.510   .     S
C113   C156    1.530   .     S
C114   C133    1.518   .     S
C117   H172    1.081   .     S
C117   C124    1.395   .     A
C117   C376    1.380   .     S
C118   C140    1.523   .     S
C118   C119    1.415   .     A
C118   C633    1.380   1_545 S
C119   C120    1.401   .     A
C120   H121    1.083   .     S
C120   C638    1.368   1_545 S
C122   H123    1.083   .     S
C122   C124    1.387   .     A
C122   C378    1.368   .     S
C125   H126    1.081   .     S
C125   N132    1.370   .     A
C125   C213    1.421   .     S
C127   N128    1.367   .     A
C127   H147    1.081   .     S
N128   C129    1.401   .     A
C129   C148    1.518   .     S
C130   N132    1.343   .     A
C130   H131    1.078   .     S
C130   C215    1.414   .     S
C133   C134    1.530   .     S
C133   H139    1.109   .     S
C133   H138    1.108   .     S
C134   H137    1.111   .     S
C134   H136    1.111   .     S
C134   H135    1.108   .     S
C140   H146    1.106   .     S
C140   H145    1.112   .     S
C140   C141    1.529   .     S
C141   H142    1.106   .     S
C141   H143    1.110   .     S
C141   H144    1.111   .     S
C148   H153    1.096   .     S
C148   C149    1.529   .     S
C148   H154    1.113   .     S
C149   H151    1.105   .     S
C149   H152    1.111   .     S
C149   H150    1.107   .     S
C156   C157    1.529   .     S
C156   H162    1.110   .     S
C156   H161    1.108   .     S
C157   H159    1.109   .     S
C157   H160    1.110   .     S
C157   H158    1.111   .     S
H164   C879    1.079   1_554 S
C165   H170    1.108   .     S
C165   C166    1.527   .     S
C165   H171    1.102   .     S
C166   H169    1.106   .     S
C166   H168    1.111   .     S
C166   H167    1.111   .     S
O173   C175    1.292   .     A
O173   Zn179   2.005   .     S
O174   Zn180   1.989   .     S
O174   C175    1.284   .     A
C175   C210    1.416   .     S
O176   Zn179   1.962   .     S
O176   C178    1.305   .     A
O177   Zn180   1.934   .     S
O177   C178    1.298   .     A
C178   C201    1.475   .     S
Zn179  O183    1.934   .     S
Zn179  N214    2.025   .     S
Zn179  O181    1.989   .     S
Zn180  O184    1.962   .     S
Zn180  N218    2.024   .     S
Zn180  O182    2.005   .     S
O181   C185    1.290   .     A
O182   C185    1.288   .     A
O183   C186    1.301   .     A
O184   C186    1.299   .     A
C185   C205    1.422   .     S
C186   C189    1.465   .     S
C187   C200    1.399   .     A
C187   H962    1.082   1_554 S
C187   C970    1.400   1_554 S
H188   C961    1.082   .     S
C189   C199    1.404   .     A
C189   C200    1.413   .     A
C190   C191    1.393   .     A
C190   H202    1.078   .     S
C190   C201    1.402   .     A
C191   C966    1.394   .     S
C191   H1024   1.079   .     S
C192   H249    1.081   .     S
C192   C965    1.394   1_554 S
C192   C967    1.411   1_554 S
C193   C194    1.401   .     A
C193   C966    1.411   .     S
C193   C969    1.414   .     S
C194   C201    1.414   .     A
C194   C198    1.414   .     A
C195   C199    1.402   .     A
C195   C967    1.414   1_554 S
C195   C970    1.420   1_554 S
C196   C197    1.392   .     A
C196   C961    1.400   .     S
C196   C969    1.420   .     S
C197   C198    1.395   .     A
C197   H241    1.082   .     S
C198   C251    1.510   .     S
C199   C242    1.530   .     S
C200   C219    1.518   .     S
C203   H258    1.081   .     S
C203   C210    1.395   .     A
C203   C462    1.380   .     S
C204   C226    1.523   .     S
C204   C205    1.415   .     A
C204   C719    1.380   1_545 S
C205   C206    1.401   .     A
C206   H207    1.083   .     S
C206   C724    1.368   1_545 S
C208   H209    1.083   .     S
C208   C210    1.387   .     A
C208   C464    1.368   .     S
C211   H212    1.081   .     S
C211   N218    1.370   .     A
C211   C41     1.421   1_655 S
C213   N214    1.367   .     A
C213   H233    1.081   .     S
N214   C215    1.401   .     A
C215   C234    1.518   .     S
C216   N218    1.343   .     A
C216   H217    1.078   .     S
C216   C43     1.414   1_655 S
C219   C220    1.530   .     S
C219   H225    1.109   .     S
C219   H224    1.108   .     S
C220   H223    1.111   .     S
C220   H222    1.111   .     S
C220   H221    1.108   .     S
C226   H232    1.106   .     S
C226   H231    1.112   .     S
C226   C227    1.529   .     S
C227   H228    1.106   .     S
C227   H229    1.110   .     S
C227   H230    1.111   .     S
C234   H239    1.096   .     S
C234   C235    1.529   .     S
C234   H240    1.113   .     S
C235   H237    1.105   .     S
C235   H238    1.111   .     S
C235   H236    1.107   .     S
C242   C243    1.529   .     S
C242   H248    1.110   .     S
C242   H247    1.108   .     S
C243   H245    1.109   .     S
C243   H246    1.110   .     S
C243   H244    1.111   .     S
H250   C965    1.079   1_554 S
C251   H256    1.108   .     S
C251   C252    1.527   .     S
C251   H257    1.102   .     S
C252   H255    1.106   .     S
C252   H254    1.111   .     S
C252   H253    1.111   .     S
O259   C261    1.292   .     A
O259   Zn265   2.005   .     S
O260   Zn266   1.989   .     S
O260   C261    1.284   .     A
C261   C296    1.416   .     S
O262   Zn265   1.962   .     S
O262   C264    1.305   .     A
O263   Zn266   1.934   .     S
O263   C264    1.298   .     A
C264   C287    1.475   .     S
Zn265  O269    1.934   .     S
Zn265  N300    2.025   .     S
Zn265  O267    1.989   .     S
Zn266  O270    1.962   .     S
Zn266  N304    2.024   .     S
Zn266  O268    2.005   .     S
O267   C271    1.290   .     A
O268   C271    1.288   .     A
O269   C272    1.301   .     A
O270   C272    1.299   .     A
C271   C291    1.422   .     S
C272   C275    1.465   .     S
C273   C286    1.399   .     A
C273   H1048   1.082   1_554 S
C273   C1056   1.400   1_554 S
H274   C1047   1.082   .     S
C275   C285    1.404   .     A
C275   C286    1.413   .     A
C276   C277    1.393   .     A
C276   H288    1.078   .     S
C276   C287    1.402   .     A
C277   C1052   1.394   .     S
C277   H1110   1.079   .     S
C278   H335    1.081   .     S
C278   C1051   1.394   1_554 S
C278   C1053   1.411   1_554 S
C279   C280    1.401   .     A
C279   C1052   1.411   .     S
C279   C1055   1.414   .     S
C280   C287    1.414   .     A
C280   C284    1.414   .     A
C281   C285    1.402   .     A
C281   C1053   1.414   1_554 S
C281   C1056   1.420   1_554 S
C282   C283    1.392   .     A
C282   C1047   1.400   .     S
C282   C1055   1.420   .     S
C283   C284    1.395   .     A
C283   H327    1.082   .     S
C284   C337    1.510   .     S
C285   C328    1.530   .     S
C286   C305    1.518   .     S
C289   H344    1.081   .     S
C289   C296    1.395   .     A
C289   C548    1.380   .     S
C290   C312    1.523   .     S
C290   C291    1.415   .     A
C291   C292    1.401   .     A
C292   H293    1.083   .     S
C294   H295    1.083   .     S
C294   C296    1.387   .     A
C294   C550    1.368   .     S
C297   H298    1.081   .     S
C297   N304    1.370   .     A
C297   C385    1.421   .     S
C299   N300    1.367   .     A
C299   H319    1.081   .     S
C299   C469    1.421   1_455 S
N300   C301    1.401   .     A
C301   C320    1.518   .     S
C301   C474    1.414   1_455 S
C302   N304    1.343   .     A
C302   H303    1.078   .     S
C302   C387    1.414   .     S
C305   C306    1.530   .     S
C305   H311    1.109   .     S
C305   H310    1.108   .     S
C306   H309    1.111   .     S
C306   H308    1.111   .     S
C306   H307    1.108   .     S
C312   H318    1.106   .     S
C312   H317    1.112   .     S
C312   C313    1.529   .     S
C313   H314    1.106   .     S
C313   H315    1.110   .     S
C313   H316    1.111   .     S
C320   H325    1.096   .     S
C320   C321    1.529   .     S
C320   H326    1.113   .     S
C321   H323    1.105   .     S
C321   H324    1.111   .     S
C321   H322    1.107   .     S
C328   C329    1.529   .     S
C328   H334    1.110   .     S
C328   H333    1.108   .     S
C329   H331    1.109   .     S
C329   H332    1.110   .     S
C329   H330    1.111   .     S
H336   C1051   1.079   1_554 S
C337   H342    1.108   .     S
C337   C338    1.527   .     S
C337   H343    1.102   .     S
C338   H341    1.106   .     S
C338   H340    1.111   .     S
C338   H339    1.111   .     S
O345   C347    1.292   .     A
O345   Zn351   2.005   .     S
O346   Zn352   1.989   .     S
O346   C347    1.284   .     A
C347   C382    1.416   .     S
O348   Zn351   1.962   .     S
O348   C350    1.305   .     A
O349   Zn352   1.934   .     S
O349   C350    1.298   .     A
C350   C373    1.475   .     S
Zn351  O355    1.934   .     S
Zn351  N386    2.025   .     S
Zn351  O353    1.989   .     S
Zn352  O356    1.962   .     S
Zn352  N390    2.024   .     S
Zn352  O354    2.005   .     S
O353   C357    1.290   .     A
O354   C357    1.288   .     A
O355   C358    1.301   .     A
O356   C358    1.299   .     A
C357   C377    1.422   .     S
C358   C361    1.465   .     S
C359   C372    1.399   .     A
C359   H1134   1.082   1_554 S
C359   C1142   1.400   1_554 S
H360   C1133   1.082   .     S
C361   C371    1.404   .     A
C361   C372    1.413   .     A
C362   C363    1.393   .     A
C362   H374    1.078   .     S
C362   C373    1.402   .     A
C363   C1138   1.394   .     S
C363   H1196   1.079   .     S
C364   H421    1.081   .     S
C364   C1137   1.394   1_554 S
C364   C1139   1.411   1_554 S
C365   C366    1.401   .     A
C365   C1138   1.411   .     S
C365   C1141   1.414   .     S
C366   C373    1.414   .     A
C366   C370    1.414   .     A
C367   C371    1.402   .     A
C367   C1139   1.414   1_554 S
C367   C1142   1.420   1_554 S
C368   C369    1.392   .     A
C368   C1133   1.400   .     S
C368   C1141   1.420   .     S
C369   C370    1.395   .     A
C369   H413    1.082   .     S
C370   C423    1.510   .     S
C371   C414    1.530   .     S
C372   C391    1.518   .     S
C375   H430    1.081   .     S
C375   C382    1.395   .     A
C375   C634    1.380   .     S
C376   C398    1.523   .     S
C376   C377    1.415   .     A
C377   C378    1.401   .     A
C378   H379    1.083   .     S
C380   H381    1.083   .     S
C380   C382    1.387   .     A
C380   C636    1.368   .     S
C383   H384    1.081   .     S
C383   N390    1.370   .     A
C383   C471    1.421   .     S
C385   N386    1.367   .     A
C385   H405    1.081   .     S
N386   C387    1.401   .     A
C387   C406    1.518   .     S
C388   N390    1.343   .     A
C388   H389    1.078   .     S
C388   C473    1.414   .     S
C391   C392    1.530   .     S
C391   H397    1.109   .     S
C391   H396    1.108   .     S
C392   H395    1.111   .     S
C392   H394    1.111   .     S
C392   H393    1.108   .     S
C398   H404    1.106   .     S
C398   H403    1.112   .     S
C398   C399    1.529   .     S
C399   H400    1.106   .     S
C399   H401    1.110   .     S
C399   H402    1.111   .     S
C406   H411    1.096   .     S
C406   C407    1.529   .     S
C406   H412    1.113   .     S
C407   H409    1.105   .     S
C407   H410    1.111   .     S
C407   H408    1.107   .     S
C414   C415    1.529   .     S
C414   H420    1.110   .     S
C414   H419    1.108   .     S
C415   H417    1.109   .     S
C415   H418    1.110   .     S
C415   H416    1.111   .     S
H422   C1137   1.079   1_554 S
C423   H428    1.108   .     S
C423   C424    1.527   .     S
C423   H429    1.102   .     S
C424   H427    1.106   .     S
C424   H426    1.111   .     S
C424   H425    1.111   .     S
O431   C433    1.292   .     A
O431   Zn437   2.005   .     S
O432   Zn438   1.989   .     S
O432   C433    1.284   .     A
C433   C468    1.416   .     S
O434   Zn437   1.962   .     S
O434   C436    1.305   .     A
O435   Zn438   1.934   .     S
O435   C436    1.298   .     A
C436   C459    1.475   .     S
Zn437  O441    1.934   .     S
Zn437  N472    2.025   .     S
Zn437  O439    1.989   .     S
Zn438  O442    1.962   .     S
Zn438  N476    2.024   .     S
Zn438  O440    2.005   .     S
O439   C443    1.290   .     A
O440   C443    1.288   .     A
O441   C444    1.301   .     A
O442   C444    1.299   .     A
C443   C463    1.422   .     S
C444   C447    1.465   .     S
C445   C458    1.399   .     A
C445   H1220   1.082   1_554 S
C445   C1228   1.400   1_554 S
H446   C1219   1.082   .     S
C447   C457    1.404   .     A
C447   C458    1.413   .     A
C448   C449    1.393   .     A
C448   H460    1.078   .     S
C448   C459    1.402   .     A
C449   C1224   1.394   .     S
C449   H1282   1.079   .     S
C450   H507    1.081   .     S
C450   C1223   1.394   1_554 S
C450   C1225   1.411   1_554 S
C451   C452    1.401   .     A
C451   C1224   1.411   .     S
C451   C1227   1.414   .     S
C452   C459    1.414   .     A
C452   C456    1.414   .     A
C453   C457    1.402   .     A
C453   C1225   1.414   1_554 S
C453   C1228   1.420   1_554 S
C454   C455    1.392   .     A
C454   C1219   1.400   .     S
C454   C1227   1.420   .     S
C455   C456    1.395   .     A
C455   H499    1.082   .     S
C456   C509    1.510   .     S
C457   C500    1.530   .     S
C458   C477    1.518   .     S
C461   H516    1.081   .     S
C461   C468    1.395   .     A
C461   C720    1.380   .     S
C462   C484    1.523   .     S
C462   C463    1.415   .     A
C463   C464    1.401   .     A
C464   H465    1.083   .     S
C466   H467    1.083   .     S
C466   C468    1.387   .     A
C466   C722    1.368   .     S
C469   H470    1.081   .     S
C469   N476    1.370   .     A
C469   C299    1.421   1_655 S
C471   N472    1.367   .     A
C471   H491    1.081   .     S
N472   C473    1.401   .     A
C473   C492    1.518   .     S
C474   N476    1.343   .     A
C474   H475    1.078   .     S
C474   C301    1.414   1_655 S
C477   C478    1.530   .     S
C477   H483    1.109   .     S
C477   H482    1.108   .     S
C478   H481    1.111   .     S
C478   H480    1.111   .     S
C478   H479    1.108   .     S
C484   H490    1.106   .     S
C484   H489    1.112   .     S
C484   C485    1.529   .     S
C485   H486    1.106   .     S
C485   H487    1.110   .     S
C485   H488    1.111   .     S
C492   H497    1.096   .     S
C492   C493    1.529   .     S
C492   H498    1.113   .     S
C493   H495    1.105   .     S
C493   H496    1.111   .     S
C493   H494    1.107   .     S
C500   C501    1.529   .     S
C500   H506    1.110   .     S
C500   H505    1.108   .     S
C501   H503    1.109   .     S
C501   H504    1.110   .     S
C501   H502    1.111   .     S
H508   C1223   1.079   1_554 S
C509   H514    1.108   .     S
C509   C510    1.527   .     S
C509   H515    1.102   .     S
C510   H513    1.106   .     S
C510   H512    1.111   .     S
C510   H511    1.111   .     S
O517   C519    1.292   .     A
O517   Zn523   2.005   .     S
O518   Zn524   1.989   .     S
O518   C519    1.284   .     A
C519   C554    1.416   .     S
O520   Zn523   1.962   .     S
O520   C522    1.305   .     A
O521   Zn524   1.934   .     S
O521   C522    1.298   .     A
C522   C545    1.475   .     S
Zn523  O527    1.934   .     S
Zn523  N558    2.025   .     S
Zn523  O525    1.989   .     S
Zn524  O528    1.962   .     S
Zn524  N562    2.024   .     S
Zn524  O526    2.005   .     S
O525   C529    1.290   .     A
O526   C529    1.288   .     A
O527   C530    1.301   .     A
O528   C530    1.299   .     A
C529   C549    1.422   .     S
C530   C533    1.465   .     S
C531   C544    1.399   .     A
C531   H1306   1.082   1_554 S
C531   C1314   1.400   1_554 S
H532   C1305   1.082   .     S
C533   C543    1.404   .     A
C533   C544    1.413   .     A
C534   C535    1.393   .     A
C534   H546    1.078   .     S
C534   C545    1.402   .     A
C535   C1310   1.394   .     S
C535   H1368   1.079   .     S
C536   H593    1.081   .     S
C536   C1309   1.394   1_554 S
C536   C1311   1.411   1_554 S
C537   C538    1.401   .     A
C537   C1310   1.411   .     S
C537   C1313   1.414   .     S
C538   C545    1.414   .     A
C538   C542    1.414   .     A
C539   C543    1.402   .     A
C539   C1311   1.414   1_554 S
C539   C1314   1.420   1_554 S
C540   C541    1.392   .     A
C540   C1305   1.400   .     S
C540   C1313   1.420   .     S
C541   C542    1.395   .     A
C541   H585    1.082   .     S
C542   C595    1.510   .     S
C543   C586    1.530   .     S
C544   C563    1.518   .     S
C547   H602    1.081   .     S
C547   C554    1.395   .     A
C547   C32     1.380   1_565 S
C548   C570    1.523   .     S
C548   C549    1.415   .     A
C549   C550    1.401   .     A
C550   H551    1.083   .     S
C552   H553    1.083   .     S
C552   C554    1.387   .     A
C552   C34     1.368   1_565 S
C555   H556    1.081   .     S
C555   N562    1.370   .     A
C555   C643    1.421   .     S
C557   N558    1.367   .     A
C557   H577    1.081   .     S
C557   C727    1.421   1_455 S
N558   C559    1.401   .     A
C559   C578    1.518   .     S
C559   C732    1.414   1_455 S
C560   N562    1.343   .     A
C560   H561    1.078   .     S
C560   C645    1.414   .     S
C563   C564    1.530   .     S
C563   H569    1.109   .     S
C563   H568    1.108   .     S
C564   H567    1.111   .     S
C564   H566    1.111   .     S
C564   H565    1.108   .     S
C570   H576    1.106   .     S
C570   H575    1.112   .     S
C570   C571    1.529   .     S
C571   H572    1.106   .     S
C571   H573    1.110   .     S
C571   H574    1.111   .     S
C578   H583    1.096   .     S
C578   C579    1.529   .     S
C578   H584    1.113   .     S
C579   H581    1.105   .     S
C579   H582    1.111   .     S
C579   H580    1.107   .     S
C586   C587    1.529   .     S
C586   H592    1.110   .     S
C586   H591    1.108   .     S
C587   H589    1.109   .     S
C587   H590    1.110   .     S
C587   H588    1.111   .     S
H594   C1309   1.079   1_554 S
C595   H600    1.108   .     S
C595   C596    1.527   .     S
C595   H601    1.102   .     S
C596   H599    1.106   .     S
C596   H598    1.111   .     S
C596   H597    1.111   .     S
O603   C605    1.292   .     A
O603   Zn609   2.005   .     S
O604   Zn610   1.989   .     S
O604   C605    1.284   .     A
C605   C640    1.416   .     S
O606   Zn609   1.962   .     S
O606   C608    1.305   .     A
O607   Zn610   1.934   .     S
O607   C608    1.298   .     A
C608   C631    1.475   .     S
Zn609  O613    1.934   .     S
Zn609  N644    2.025   .     S
Zn609  O611    1.989   .     S
Zn610  O614    1.962   .     S
Zn610  N648    2.024   .     S
Zn610  O612    2.005   .     S
O611   C615    1.290   .     A
O612   C615    1.288   .     A
O613   C616    1.301   .     A
O614   C616    1.299   .     A
C615   C635    1.422   .     S
C616   C619    1.465   .     S
C617   C630    1.399   .     A
C617   H1392   1.082   1_554 S
C617   C1400   1.400   1_554 S
H618   C1391   1.082   .     S
C619   C629    1.404   .     A
C619   C630    1.413   .     A
C620   C621    1.393   .     A
C620   H632    1.078   .     S
C620   C631    1.402   .     A
C621   C1396   1.394   .     S
C621   H1454   1.079   .     S
C622   H679    1.081   .     S
C622   C1395   1.394   1_554 S
C622   C1397   1.411   1_554 S
C623   C624    1.401   .     A
C623   C1396   1.411   .     S
C623   C1399   1.414   .     S
C624   C631    1.414   .     A
C624   C628    1.414   .     A
C625   C629    1.402   .     A
C625   C1397   1.414   1_554 S
C625   C1400   1.420   1_554 S
C626   C627    1.392   .     A
C626   C1391   1.400   .     S
C626   C1399   1.420   .     S
C627   C628    1.395   .     A
C627   H671    1.082   .     S
C628   C681    1.510   .     S
C629   C672    1.530   .     S
C630   C649    1.518   .     S
C633   H688    1.081   .     S
C633   C640    1.395   .     A
C633   C118    1.380   1_565 S
C634   C656    1.523   .     S
C634   C635    1.415   .     A
C635   C636    1.401   .     A
C636   H637    1.083   .     S
C638   H639    1.083   .     S
C638   C640    1.387   .     A
C638   C120    1.368   1_565 S
C641   H642    1.081   .     S
C641   N648    1.370   .     A
C641   C729    1.421   .     S
C643   N644    1.367   .     A
C643   H663    1.081   .     S
N644   C645    1.401   .     A
C645   C664    1.518   .     S
C646   N648    1.343   .     A
C646   H647    1.078   .     S
C646   C731    1.414   .     S
C649   C650    1.530   .     S
C649   H655    1.109   .     S
C649   H654    1.108   .     S
C650   H653    1.111   .     S
C650   H652    1.111   .     S
C650   H651    1.108   .     S
C656   H662    1.106   .     S
C656   H661    1.112   .     S
C656   C657    1.529   .     S
C657   H658    1.106   .     S
C657   H659    1.110   .     S
C657   H660    1.111   .     S
C664   H669    1.096   .     S
C664   C665    1.529   .     S
C664   H670    1.113   .     S
C665   H667    1.105   .     S
C665   H668    1.111   .     S
C665   H666    1.107   .     S
C672   C673    1.529   .     S
C672   H678    1.110   .     S
C672   H677    1.108   .     S
C673   H675    1.109   .     S
C673   H676    1.110   .     S
C673   H674    1.111   .     S
H680   C1395   1.079   1_554 S
C681   H686    1.108   .     S
C681   C682    1.527   .     S
C681   H687    1.102   .     S
C682   H685    1.106   .     S
C682   H684    1.111   .     S
C682   H683    1.111   .     S
O689   C691    1.292   .     A
O689   Zn695   2.005   .     S
O690   Zn696   1.989   .     S
O690   C691    1.284   .     A
C691   C726    1.416   .     S
O692   Zn695   1.962   .     S
O692   C694    1.305   .     A
O693   Zn696   1.934   .     S
O693   C694    1.298   .     A
C694   C717    1.475   .     S
Zn695  O699    1.934   .     S
Zn695  N730    2.025   .     S
Zn695  O697    1.989   .     S
Zn696  O700    1.962   .     S
Zn696  N734    2.024   .     S
Zn696  O698    2.005   .     S
O697   C701    1.290   .     A
O698   C701    1.288   .     A
O699   C702    1.301   .     A
O700   C702    1.299   .     A
C701   C721    1.422   .     S
C702   C705    1.465   .     S
C703   C716    1.399   .     A
C703   H1478   1.082   1_554 S
C703   C1486   1.400   1_554 S
H704   C1477   1.082   .     S
C705   C715    1.404   .     A
C705   C716    1.413   .     A
C706   C707    1.393   .     A
C706   H718    1.078   .     S
C706   C717    1.402   .     A
C707   C1482   1.394   .     S
C707   H1540   1.079   .     S
C708   H765    1.081   .     S
C708   C1481   1.394   1_554 S
C708   C1483   1.411   1_554 S
C709   C710    1.401   .     A
C709   C1482   1.411   .     S
C709   C1485   1.414   .     S
C710   C717    1.414   .     A
C710   C714    1.414   .     A
C711   C715    1.402   .     A
C711   C1483   1.414   1_554 S
C711   C1486   1.420   1_554 S
C712   C713    1.392   .     A
C712   C1477   1.400   .     S
C712   C1485   1.420   .     S
C713   C714    1.395   .     A
C713   H757    1.082   .     S
C714   C767    1.510   .     S
C715   C758    1.530   .     S
C716   C735    1.518   .     S
C719   H774    1.081   .     S
C719   C726    1.395   .     A
C719   C204    1.380   1_565 S
C720   C742    1.523   .     S
C720   C721    1.415   .     A
C721   C722    1.401   .     A
C722   H723    1.083   .     S
C724   H725    1.083   .     S
C724   C726    1.387   .     A
C724   C206    1.368   1_565 S
C727   H728    1.081   .     S
C727   N734    1.370   .     A
C727   C557    1.421   1_655 S
C729   N730    1.367   .     A
C729   H749    1.081   .     S
N730   C731    1.401   .     A
C731   C750    1.518   .     S
C732   N734    1.343   .     A
C732   H733    1.078   .     S
C732   C559    1.414   1_655 S
C735   C736    1.530   .     S
C735   H741    1.109   .     S
C735   H740    1.108   .     S
C736   H739    1.111   .     S
C736   H738    1.111   .     S
C736   H737    1.108   .     S
C742   H748    1.106   .     S
C742   H747    1.112   .     S
C742   C743    1.529   .     S
C743   H744    1.106   .     S
C743   H745    1.110   .     S
C743   H746    1.111   .     S
C750   H755    1.096   .     S
C750   C751    1.529   .     S
C750   H756    1.113   .     S
C751   H753    1.105   .     S
C751   H754    1.111   .     S
C751   H752    1.107   .     S
C758   C759    1.529   .     S
C758   H764    1.110   .     S
C758   H763    1.108   .     S
C759   H761    1.109   .     S
C759   H762    1.110   .     S
C759   H760    1.111   .     S
H766   C1481   1.079   1_554 S
C767   H772    1.108   .     S
C767   C768    1.527   .     S
C767   H773    1.102   .     S
C768   H771    1.106   .     S
C768   H770    1.111   .     S
C768   H769    1.111   .     S
O775   C777    1.292   .     A
O775   Zn781   2.005   .     S
O776   Zn782   1.989   .     S
O776   C777    1.284   .     A
C777   C812    1.416   .     S
O778   Zn781   1.962   .     S
O778   C780    1.305   .     A
O779   Zn782   1.934   .     S
O779   C780    1.298   .     A
C780   C803    1.475   .     S
Zn781  O785    1.934   .     S
Zn781  N816    2.025   .     S
Zn781  O783    1.989   .     S
Zn782  O786    1.962   .     S
Zn782  N820    2.024   .     S
Zn782  O784    2.005   .     S
O783   C787    1.290   .     A
O784   C787    1.288   .     A
O785   C788    1.301   .     A
O786   C788    1.299   .     A
C787   C807    1.422   .     S
C788   C791    1.465   .     S
C789   C802    1.399   .     A
H790   C15     1.082   1_556 S
C791   C801    1.404   .     A
C791   C802    1.413   .     A
C792   C793    1.393   .     A
C792   H804    1.078   .     S
C792   C803    1.402   .     A
C793   C20     1.394   1_556 S
C793   H78     1.079   1_556 S
C794   H851    1.081   .     S
C795   C796    1.401   .     A
C795   C20     1.411   1_556 S
C795   C23     1.414   1_556 S
C796   C803    1.414   .     A
C796   C800    1.414   .     A
C797   C801    1.402   .     A
C798   C799    1.392   .     A
C798   C15     1.400   1_556 S
C798   C23     1.420   1_556 S
C799   C800    1.395   .     A
C799   H843    1.082   .     S
C800   C853    1.510   .     S
C801   C844    1.530   .     S
C802   C821    1.518   .     S
C805   H860    1.081   .     S
C805   C812    1.395   .     A
C805   C1064   1.380   .     S
C806   C828    1.523   .     S
C806   C807    1.415   .     A
C806   C1321   1.380   1_545 S
C807   C808    1.401   .     A
C808   H809    1.083   .     S
C808   C1326   1.368   1_545 S
C810   H811    1.083   .     S
C810   C812    1.387   .     A
C810   C1066   1.368   .     S
C813   H814    1.081   .     S
C813   N820    1.370   .     A
C813   C901    1.421   .     S
C815   N816    1.367   .     A
C815   H835    1.081   .     S
C815   C985    1.421   1_455 S
N816   C817    1.401   .     A
C817   C836    1.518   .     S
C817   C990    1.414   1_455 S
C818   N820    1.343   .     A
C818   H819    1.078   .     S
C818   C903    1.414   .     S
C821   C822    1.530   .     S
C821   H827    1.109   .     S
C821   H826    1.108   .     S
C822   H825    1.111   .     S
C822   H824    1.111   .     S
C822   H823    1.108   .     S
C828   H834    1.106   .     S
C828   H833    1.112   .     S
C828   C829    1.529   .     S
C829   H830    1.106   .     S
C829   H831    1.110   .     S
C829   H832    1.111   .     S
C836   H841    1.096   .     S
C836   C837    1.529   .     S
C836   H842    1.113   .     S
C837   H839    1.105   .     S
C837   H840    1.111   .     S
C837   H838    1.107   .     S
C844   C845    1.529   .     S
C844   H850    1.110   .     S
C844   H849    1.108   .     S
C845   H847    1.109   .     S
C845   H848    1.110   .     S
C845   H846    1.111   .     S
C853   H858    1.108   .     S
C853   C854    1.527   .     S
C853   H859    1.102   .     S
C854   H857    1.106   .     S
C854   H856    1.111   .     S
C854   H855    1.111   .     S
O861   C863    1.292   .     A
O861   Zn867   2.005   .     S
O862   Zn868   1.989   .     S
O862   C863    1.284   .     A
C863   C898    1.416   .     S
O864   Zn867   1.962   .     S
O864   C866    1.305   .     A
O865   Zn868   1.934   .     S
O865   C866    1.298   .     A
C866   C889    1.475   .     S
Zn867  O871    1.934   .     S
Zn867  N902    2.025   .     S
Zn867  O869    1.989   .     S
Zn868  O872    1.962   .     S
Zn868  N906    2.024   .     S
Zn868  O870    2.005   .     S
O869   C873    1.290   .     A
O870   C873    1.288   .     A
O871   C874    1.301   .     A
O872   C874    1.299   .     A
C873   C893    1.422   .     S
C874   C877    1.465   .     S
C875   C888    1.399   .     A
H876   C101    1.082   1_556 S
C877   C887    1.404   .     A
C877   C888    1.413   .     A
C878   C879    1.393   .     A
C878   H890    1.078   .     S
C878   C889    1.402   .     A
C879   C106    1.394   1_556 S
C879   H164    1.079   1_556 S
C880   H937    1.081   .     S
C881   C882    1.401   .     A
C881   C106    1.411   1_556 S
C881   C109    1.414   1_556 S
C882   C889    1.414   .     A
C882   C886    1.414   .     A
C883   C887    1.402   .     A
C884   C885    1.392   .     A
C884   C101    1.400   1_556 S
C884   C109    1.420   1_556 S
C885   C886    1.395   .     A
C885   H929    1.082   .     S
C886   C939    1.510   .     S
C887   C930    1.530   .     S
C888   C907    1.518   .     S
C891   H946    1.081   .     S
C891   C898    1.395   .     A
C891   C1150   1.380   .     S
C892   C914    1.523   .     S
C892   C893    1.415   .     A
C892   C1407   1.380   1_545 S
C893   C894    1.401   .     A
C894   H895    1.083   .     S
C894   C1412   1.368   1_545 S
C896   H897    1.083   .     S
C896   C898    1.387   .     A
C896   C1152   1.368   .     S
C899   H900    1.081   .     S
C899   N906    1.370   .     A
C899   C987    1.421   .     S
C901   N902    1.367   .     A
C901   H921    1.081   .     S
N902   C903    1.401   .     A
C903   C922    1.518   .     S
C904   N906    1.343   .     A
C904   H905    1.078   .     S
C904   C989    1.414   .     S
C907   C908    1.530   .     S
C907   H913    1.109   .     S
C907   H912    1.108   .     S
C908   H911    1.111   .     S
C908   H910    1.111   .     S
C908   H909    1.108   .     S
C914   H920    1.106   .     S
C914   H919    1.112   .     S
C914   C915    1.529   .     S
C915   H916    1.106   .     S
C915   H917    1.110   .     S
C915   H918    1.111   .     S
C922   H927    1.096   .     S
C922   C923    1.529   .     S
C922   H928    1.113   .     S
C923   H925    1.105   .     S
C923   H926    1.111   .     S
C923   H924    1.107   .     S
C930   C931    1.529   .     S
C930   H936    1.110   .     S
C930   H935    1.108   .     S
C931   H933    1.109   .     S
C931   H934    1.110   .     S
C931   H932    1.111   .     S
C939   H944    1.108   .     S
C939   C940    1.527   .     S
C939   H945    1.102   .     S
C940   H943    1.106   .     S
C940   H942    1.111   .     S
C940   H941    1.111   .     S
O947   C949    1.292   .     A
O947   Zn953   2.005   .     S
O948   Zn954   1.989   .     S
O948   C949    1.284   .     A
C949   C984    1.416   .     S
O950   Zn953   1.962   .     S
O950   C952    1.305   .     A
O951   Zn954   1.934   .     S
O951   C952    1.298   .     A
C952   C975    1.475   .     S
Zn953  O957    1.934   .     S
Zn953  N988    2.025   .     S
Zn953  O955    1.989   .     S
Zn954  O958    1.962   .     S
Zn954  N992    2.024   .     S
Zn954  O956    2.005   .     S
O955   C959    1.290   .     A
O956   C959    1.288   .     A
O957   C960    1.301   .     A
O958   C960    1.299   .     A
C959   C979    1.422   .     S
C960   C963    1.465   .     S
C961   C974    1.399   .     A
H962   C187    1.082   1_556 S
C963   C973    1.404   .     A
C963   C974    1.413   .     A
C964   C965    1.393   .     A
C964   H976    1.078   .     S
C964   C975    1.402   .     A
C965   C192    1.394   1_556 S
C965   H250    1.079   1_556 S
C966   H1023   1.081   .     S
C967   C968    1.401   .     A
C967   C192    1.411   1_556 S
C967   C195    1.414   1_556 S
C968   C975    1.414   .     A
C968   C972    1.414   .     A
C969   C973    1.402   .     A
C970   C971    1.392   .     A
C970   C187    1.400   1_556 S
C970   C195    1.420   1_556 S
C971   C972    1.395   .     A
C971   H1015   1.082   .     S
C972   C1025   1.510   .     S
C973   C1016   1.530   .     S
C974   C993    1.518   .     S
C977   H1032   1.081   .     S
C977   C984    1.395   .     A
C977   C1236   1.380   .     S
C978   C1000   1.523   .     S
C978   C979    1.415   .     A
C978   C1493   1.380   1_545 S
C979   C980    1.401   .     A
C980   H981    1.083   .     S
C980   C1498   1.368   1_545 S
C982   H983    1.083   .     S
C982   C984    1.387   .     A
C982   C1238   1.368   .     S
C985   H986    1.081   .     S
C985   N992    1.370   .     A
C985   C815    1.421   1_655 S
C987   N988    1.367   .     A
C987   H1007   1.081   .     S
N988   C989    1.401   .     A
C989   C1008   1.518   .     S
C990   N992    1.343   .     A
C990   H991    1.078   .     S
C990   C817    1.414   1_655 S
C993   C994    1.530   .     S
C993   H999    1.109   .     S
C993   H998    1.108   .     S
C994   H997    1.111   .     S
C994   H996    1.111   .     S
C994   H995    1.108   .     S
C1000  H1006   1.106   .     S
C1000  H1005   1.112   .     S
C1000  C1001   1.529   .     S
C1001  H1002   1.106   .     S
C1001  H1003   1.110   .     S
C1001  H1004   1.111   .     S
C1008  H1013   1.096   .     S
C1008  C1009   1.529   .     S
C1008  H1014   1.113   .     S
C1009  H1011   1.105   .     S
C1009  H1012   1.111   .     S
C1009  H1010   1.107   .     S
C1016  C1017   1.529   .     S
C1016  H1022   1.110   .     S
C1016  H1021   1.108   .     S
C1017  H1019   1.109   .     S
C1017  H1020   1.110   .     S
C1017  H1018   1.111   .     S
C1025  H1030   1.108   .     S
C1025  C1026   1.527   .     S
C1025  H1031   1.102   .     S
C1026  H1029   1.106   .     S
C1026  H1028   1.111   .     S
C1026  H1027   1.111   .     S
O1033  C1035   1.292   .     A
O1033  Zn1039  2.005   .     S
O1034  Zn1040  1.989   .     S
O1034  C1035   1.284   .     A
C1035  C1070   1.416   .     S
O1036  Zn1039  1.962   .     S
O1036  C1038   1.305   .     A
O1037  Zn1040  1.934   .     S
O1037  C1038   1.298   .     A
C1038  C1061   1.475   .     S
Zn1039 O1043   1.934   .     S
Zn1039 N1074   2.025   .     S
Zn1039 O1041   1.989   .     S
Zn1040 O1044   1.962   .     S
Zn1040 N1078   2.024   .     S
Zn1040 O1042   2.005   .     S
O1041  C1045   1.290   .     A
O1042  C1045   1.288   .     A
O1043  C1046   1.301   .     A
O1044  C1046   1.299   .     A
C1045  C1065   1.422   .     S
C1046  C1049   1.465   .     S
C1047  C1060   1.399   .     A
H1048  C273    1.082   1_556 S
C1049  C1059   1.404   .     A
C1049  C1060   1.413   .     A
C1050  C1051   1.393   .     A
C1050  H1062   1.078   .     S
C1050  C1061   1.402   .     A
C1051  C278    1.394   1_556 S
C1051  H336    1.079   1_556 S
C1052  H1109   1.081   .     S
C1053  C1054   1.401   .     A
C1053  C278    1.411   1_556 S
C1053  C281    1.414   1_556 S
C1054  C1061   1.414   .     A
C1054  C1058   1.414   .     A
C1055  C1059   1.402   .     A
C1056  C1057   1.392   .     A
C1056  C273    1.400   1_556 S
C1056  C281    1.420   1_556 S
C1057  C1058   1.395   .     A
C1057  H1101   1.082   .     S
C1058  C1111   1.510   .     S
C1059  C1102   1.530   .     S
C1060  C1079   1.518   .     S
C1063  H1118   1.081   .     S
C1063  C1070   1.395   .     A
C1063  C1322   1.380   .     S
C1064  C1086   1.523   .     S
C1064  C1065   1.415   .     A
C1065  C1066   1.401   .     A
C1066  H1067   1.083   .     S
C1068  H1069   1.083   .     S
C1068  C1070   1.387   .     A
C1068  C1324   1.368   .     S
C1071  H1072   1.081   .     S
C1071  N1078   1.370   .     A
C1071  C1159   1.421   .     S
C1073  N1074   1.367   .     A
C1073  H1093   1.081   .     S
C1073  C1243   1.421   1_455 S
N1074  C1075   1.401   .     A
C1075  C1094   1.518   .     S
C1075  C1248   1.414   1_455 S
C1076  N1078   1.343   .     A
C1076  H1077   1.078   .     S
C1076  C1161   1.414   .     S
C1079  C1080   1.530   .     S
C1079  H1085   1.109   .     S
C1079  H1084   1.108   .     S
C1080  H1083   1.111   .     S
C1080  H1082   1.111   .     S
C1080  H1081   1.108   .     S
C1086  H1092   1.106   .     S
C1086  H1091   1.112   .     S
C1086  C1087   1.529   .     S
C1087  H1088   1.106   .     S
C1087  H1089   1.110   .     S
C1087  H1090   1.111   .     S
C1094  H1099   1.096   .     S
C1094  C1095   1.529   .     S
C1094  H1100   1.113   .     S
C1095  H1097   1.105   .     S
C1095  H1098   1.111   .     S
C1095  H1096   1.107   .     S
C1102  C1103   1.529   .     S
C1102  H1108   1.110   .     S
C1102  H1107   1.108   .     S
C1103  H1105   1.109   .     S
C1103  H1106   1.110   .     S
C1103  H1104   1.111   .     S
C1111  H1116   1.108   .     S
C1111  C1112   1.527   .     S
C1111  H1117   1.102   .     S
C1112  H1115   1.106   .     S
C1112  H1114   1.111   .     S
C1112  H1113   1.111   .     S
O1119  C1121   1.292   .     A
O1119  Zn1125  2.005   .     S
O1120  Zn1126  1.989   .     S
O1120  C1121   1.284   .     A
C1121  C1156   1.416   .     S
O1122  Zn1125  1.962   .     S
O1122  C1124   1.305   .     A
O1123  Zn1126  1.934   .     S
O1123  C1124   1.298   .     A
C1124  C1147   1.475   .     S
Zn1125 O1129   1.934   .     S
Zn1125 N1160   2.025   .     S
Zn1125 O1127   1.989   .     S
Zn1126 O1130   1.962   .     S
Zn1126 N1164   2.024   .     S
Zn1126 O1128   2.005   .     S
O1127  C1131   1.290   .     A
O1128  C1131   1.288   .     A
O1129  C1132   1.301   .     A
O1130  C1132   1.299   .     A
C1131  C1151   1.422   .     S
C1132  C1135   1.465   .     S
C1133  C1146   1.399   .     A
H1134  C359    1.082   1_556 S
C1135  C1145   1.404   .     A
C1135  C1146   1.413   .     A
C1136  C1137   1.393   .     A
C1136  H1148   1.078   .     S
C1136  C1147   1.402   .     A
C1137  C364    1.394   1_556 S
C1137  H422    1.079   1_556 S
C1138  H1195   1.081   .     S
C1139  C1140   1.401   .     A
C1139  C364    1.411   1_556 S
C1139  C367    1.414   1_556 S
C1140  C1147   1.414   .     A
C1140  C1144   1.414   .     A
C1141  C1145   1.402   .     A
C1142  C1143   1.392   .     A
C1142  C359    1.400   1_556 S
C1142  C367    1.420   1_556 S
C1143  C1144   1.395   .     A
C1143  H1187   1.082   .     S
C1144  C1197   1.510   .     S
C1145  C1188   1.530   .     S
C1146  C1165   1.518   .     S
C1149  H1204   1.081   .     S
C1149  C1156   1.395   .     A
C1149  C1408   1.380   .     S
C1150  C1172   1.523   .     S
C1150  C1151   1.415   .     A
C1151  C1152   1.401   .     A
C1152  H1153   1.083   .     S
C1154  H1155   1.083   .     S
C1154  C1156   1.387   .     A
C1154  C1410   1.368   .     S
C1157  H1158   1.081   .     S
C1157  N1164   1.370   .     A
C1157  C1245   1.421   .     S
C1159  N1160   1.367   .     A
C1159  H1179   1.081   .     S
N1160  C1161   1.401   .     A
C1161  C1180   1.518   .     S
C1162  N1164   1.343   .     A
C1162  H1163   1.078   .     S
C1162  C1247   1.414   .     S
C1165  C1166   1.530   .     S
C1165  H1171   1.109   .     S
C1165  H1170   1.108   .     S
C1166  H1169   1.111   .     S
C1166  H1168   1.111   .     S
C1166  H1167   1.108   .     S
C1172  H1178   1.106   .     S
C1172  H1177   1.112   .     S
C1172  C1173   1.529   .     S
C1173  H1174   1.106   .     S
C1173  H1175   1.110   .     S
C1173  H1176   1.111   .     S
C1180  H1185   1.096   .     S
C1180  C1181   1.529   .     S
C1180  H1186   1.113   .     S
C1181  H1183   1.105   .     S
C1181  H1184   1.111   .     S
C1181  H1182   1.107   .     S
C1188  C1189   1.529   .     S
C1188  H1194   1.110   .     S
C1188  H1193   1.108   .     S
C1189  H1191   1.109   .     S
C1189  H1192   1.110   .     S
C1189  H1190   1.111   .     S
C1197  H1202   1.108   .     S
C1197  C1198   1.527   .     S
C1197  H1203   1.102   .     S
C1198  H1201   1.106   .     S
C1198  H1200   1.111   .     S
C1198  H1199   1.111   .     S
O1205  C1207   1.292   .     A
O1205  Zn1211  2.005   .     S
O1206  Zn1212  1.989   .     S
O1206  C1207   1.284   .     A
C1207  C1242   1.416   .     S
O1208  Zn1211  1.962   .     S
O1208  C1210   1.305   .     A
O1209  Zn1212  1.934   .     S
O1209  C1210   1.298   .     A
C1210  C1233   1.475   .     S
Zn1211 O1215   1.934   .     S
Zn1211 N1246   2.025   .     S
Zn1211 O1213   1.989   .     S
Zn1212 O1216   1.962   .     S
Zn1212 N1250   2.024   .     S
Zn1212 O1214   2.005   .     S
O1213  C1217   1.290   .     A
O1214  C1217   1.288   .     A
O1215  C1218   1.301   .     A
O1216  C1218   1.299   .     A
C1217  C1237   1.422   .     S
C1218  C1221   1.465   .     S
C1219  C1232   1.399   .     A
H1220  C445    1.082   1_556 S
C1221  C1231   1.404   .     A
C1221  C1232   1.413   .     A
C1222  C1223   1.393   .     A
C1222  H1234   1.078   .     S
C1222  C1233   1.402   .     A
C1223  C450    1.394   1_556 S
C1223  H508    1.079   1_556 S
C1224  H1281   1.081   .     S
C1225  C1226   1.401   .     A
C1225  C450    1.411   1_556 S
C1225  C453    1.414   1_556 S
C1226  C1233   1.414   .     A
C1226  C1230   1.414   .     A
C1227  C1231   1.402   .     A
C1228  C1229   1.392   .     A
C1228  C445    1.400   1_556 S
C1228  C453    1.420   1_556 S
C1229  C1230   1.395   .     A
C1229  H1273   1.082   .     S
C1230  C1283   1.510   .     S
C1231  C1274   1.530   .     S
C1232  C1251   1.518   .     S
C1235  H1290   1.081   .     S
C1235  C1242   1.395   .     A
C1235  C1494   1.380   .     S
C1236  C1258   1.523   .     S
C1236  C1237   1.415   .     A
C1237  C1238   1.401   .     A
C1238  H1239   1.083   .     S
C1240  H1241   1.083   .     S
C1240  C1242   1.387   .     A
C1240  C1496   1.368   .     S
C1243  H1244   1.081   .     S
C1243  N1250   1.370   .     A
C1243  C1073   1.421   1_655 S
C1245  N1246   1.367   .     A
C1245  H1265   1.081   .     S
N1246  C1247   1.401   .     A
C1247  C1266   1.518   .     S
C1248  N1250   1.343   .     A
C1248  H1249   1.078   .     S
C1248  C1075   1.414   1_655 S
C1251  C1252   1.530   .     S
C1251  H1257   1.109   .     S
C1251  H1256   1.108   .     S
C1252  H1255   1.111   .     S
C1252  H1254   1.111   .     S
C1252  H1253   1.108   .     S
C1258  H1264   1.106   .     S
C1258  H1263   1.112   .     S
C1258  C1259   1.529   .     S
C1259  H1260   1.106   .     S
C1259  H1261   1.110   .     S
C1259  H1262   1.111   .     S
C1266  H1271   1.096   .     S
C1266  C1267   1.529   .     S
C1266  H1272   1.113   .     S
C1267  H1269   1.105   .     S
C1267  H1270   1.111   .     S
C1267  H1268   1.107   .     S
C1274  C1275   1.529   .     S
C1274  H1280   1.110   .     S
C1274  H1279   1.108   .     S
C1275  H1277   1.109   .     S
C1275  H1278   1.110   .     S
C1275  H1276   1.111   .     S
C1283  H1288   1.108   .     S
C1283  C1284   1.527   .     S
C1283  H1289   1.102   .     S
C1284  H1287   1.106   .     S
C1284  H1286   1.111   .     S
C1284  H1285   1.111   .     S
O1291  C1293   1.292   .     A
O1291  Zn1297  2.005   .     S
O1292  Zn1298  1.989   .     S
O1292  C1293   1.284   .     A
C1293  C1328   1.416   .     S
O1294  Zn1297  1.962   .     S
O1294  C1296   1.305   .     A
O1295  Zn1298  1.934   .     S
O1295  C1296   1.298   .     A
C1296  C1319   1.475   .     S
Zn1297 O1301   1.934   .     S
Zn1297 N1332   2.025   .     S
Zn1297 O1299   1.989   .     S
Zn1298 O1302   1.962   .     S
Zn1298 N1336   2.024   .     S
Zn1298 O1300   2.005   .     S
O1299  C1303   1.290   .     A
O1300  C1303   1.288   .     A
O1301  C1304   1.301   .     A
O1302  C1304   1.299   .     A
C1303  C1323   1.422   .     S
C1304  C1307   1.465   .     S
C1305  C1318   1.399   .     A
H1306  C531    1.082   1_556 S
C1307  C1317   1.404   .     A
C1307  C1318   1.413   .     A
C1308  C1309   1.393   .     A
C1308  H1320   1.078   .     S
C1308  C1319   1.402   .     A
C1309  C536    1.394   1_556 S
C1309  H594    1.079   1_556 S
C1310  H1367   1.081   .     S
C1311  C1312   1.401   .     A
C1311  C536    1.411   1_556 S
C1311  C539    1.414   1_556 S
C1312  C1319   1.414   .     A
C1312  C1316   1.414   .     A
C1313  C1317   1.402   .     A
C1314  C1315   1.392   .     A
C1314  C531    1.400   1_556 S
C1314  C539    1.420   1_556 S
C1315  C1316   1.395   .     A
C1315  H1359   1.082   .     S
C1316  C1369   1.510   .     S
C1317  C1360   1.530   .     S
C1318  C1337   1.518   .     S
C1321  H1376   1.081   .     S
C1321  C1328   1.395   .     A
C1321  C806    1.380   1_565 S
C1322  C1344   1.523   .     S
C1322  C1323   1.415   .     A
C1323  C1324   1.401   .     A
C1324  H1325   1.083   .     S
C1326  H1327   1.083   .     S
C1326  C1328   1.387   .     A
C1326  C808    1.368   1_565 S
C1329  H1330   1.081   .     S
C1329  N1336   1.370   .     A
C1329  C1417   1.421   .     S
C1331  N1332   1.367   .     A
C1331  H1351   1.081   .     S
C1331  C1501   1.421   1_455 S
N1332  C1333   1.401   .     A
C1333  C1352   1.518   .     S
C1333  C1506   1.414   1_455 S
C1334  N1336   1.343   .     A
C1334  H1335   1.078   .     S
C1334  C1419   1.414   .     S
C1337  C1338   1.530   .     S
C1337  H1343   1.109   .     S
C1337  H1342   1.108   .     S
C1338  H1341   1.111   .     S
C1338  H1340   1.111   .     S
C1338  H1339   1.108   .     S
C1344  H1350   1.106   .     S
C1344  H1349   1.112   .     S
C1344  C1345   1.529   .     S
C1345  H1346   1.106   .     S
C1345  H1347   1.110   .     S
C1345  H1348   1.111   .     S
C1352  H1357   1.096   .     S
C1352  C1353   1.529   .     S
C1352  H1358   1.113   .     S
C1353  H1355   1.105   .     S
C1353  H1356   1.111   .     S
C1353  H1354   1.107   .     S
C1360  C1361   1.529   .     S
C1360  H1366   1.110   .     S
C1360  H1365   1.108   .     S
C1361  H1363   1.109   .     S
C1361  H1364   1.110   .     S
C1361  H1362   1.111   .     S
C1369  H1374   1.108   .     S
C1369  C1370   1.527   .     S
C1369  H1375   1.102   .     S
C1370  H1373   1.106   .     S
C1370  H1372   1.111   .     S
C1370  H1371   1.111   .     S
O1377  C1379   1.292   .     A
O1377  Zn1383  2.005   .     S
O1378  Zn1384  1.989   .     S
O1378  C1379   1.284   .     A
C1379  C1414   1.416   .     S
O1380  Zn1383  1.962   .     S
O1380  C1382   1.305   .     A
O1381  Zn1384  1.934   .     S
O1381  C1382   1.298   .     A
C1382  C1405   1.475   .     S
Zn1383 O1387   1.934   .     S
Zn1383 N1418   2.025   .     S
Zn1383 O1385   1.989   .     S
Zn1384 O1388   1.962   .     S
Zn1384 N1422   2.024   .     S
Zn1384 O1386   2.005   .     S
O1385  C1389   1.290   .     A
O1386  C1389   1.288   .     A
O1387  C1390   1.301   .     A
O1388  C1390   1.299   .     A
C1389  C1409   1.422   .     S
C1390  C1393   1.465   .     S
C1391  C1404   1.399   .     A
H1392  C617    1.082   1_556 S
C1393  C1403   1.404   .     A
C1393  C1404   1.413   .     A
C1394  C1395   1.393   .     A
C1394  H1406   1.078   .     S
C1394  C1405   1.402   .     A
C1395  C622    1.394   1_556 S
C1395  H680    1.079   1_556 S
C1396  H1453   1.081   .     S
C1397  C1398   1.401   .     A
C1397  C622    1.411   1_556 S
C1397  C625    1.414   1_556 S
C1398  C1405   1.414   .     A
C1398  C1402   1.414   .     A
C1399  C1403   1.402   .     A
C1400  C1401   1.392   .     A
C1400  C617    1.400   1_556 S
C1400  C625    1.420   1_556 S
C1401  C1402   1.395   .     A
C1401  H1445   1.082   .     S
C1402  C1455   1.510   .     S
C1403  C1446   1.530   .     S
C1404  C1423   1.518   .     S
C1407  H1462   1.081   .     S
C1407  C1414   1.395   .     A
C1407  C892    1.380   1_565 S
C1408  C1430   1.523   .     S
C1408  C1409   1.415   .     A
C1409  C1410   1.401   .     A
C1410  H1411   1.083   .     S
C1412  H1413   1.083   .     S
C1412  C1414   1.387   .     A
C1412  C894    1.368   1_565 S
C1415  H1416   1.081   .     S
C1415  N1422   1.370   .     A
C1415  C1503   1.421   .     S
C1417  N1418   1.367   .     A
C1417  H1437   1.081   .     S
N1418  C1419   1.401   .     A
C1419  C1438   1.518   .     S
C1420  N1422   1.343   .     A
C1420  H1421   1.078   .     S
C1420  C1505   1.414   .     S
C1423  C1424   1.530   .     S
C1423  H1429   1.109   .     S
C1423  H1428   1.108   .     S
C1424  H1427   1.111   .     S
C1424  H1426   1.111   .     S
C1424  H1425   1.108   .     S
C1430  H1436   1.106   .     S
C1430  H1435   1.112   .     S
C1430  C1431   1.529   .     S
C1431  H1432   1.106   .     S
C1431  H1433   1.110   .     S
C1431  H1434   1.111   .     S
C1438  H1443   1.096   .     S
C1438  C1439   1.529   .     S
C1438  H1444   1.113   .     S
C1439  H1441   1.105   .     S
C1439  H1442   1.111   .     S
C1439  H1440   1.107   .     S
C1446  C1447   1.529   .     S
C1446  H1452   1.110   .     S
C1446  H1451   1.108   .     S
C1447  H1449   1.109   .     S
C1447  H1450   1.110   .     S
C1447  H1448   1.111   .     S
C1455  H1460   1.108   .     S
C1455  C1456   1.527   .     S
C1455  H1461   1.102   .     S
C1456  H1459   1.106   .     S
C1456  H1458   1.111   .     S
C1456  H1457   1.111   .     S
O1463  C1465   1.292   .     A
O1463  Zn1469  2.005   .     S
O1464  Zn1470  1.989   .     S
O1464  C1465   1.284   .     A
C1465  C1500   1.416   .     S
O1466  Zn1469  1.962   .     S
O1466  C1468   1.305   .     A
O1467  Zn1470  1.934   .     S
O1467  C1468   1.298   .     A
C1468  C1491   1.475   .     S
Zn1469 O1473   1.934   .     S
Zn1469 N1504   2.025   .     S
Zn1469 O1471   1.989   .     S
Zn1470 O1474   1.962   .     S
Zn1470 N1508   2.024   .     S
Zn1470 O1472   2.005   .     S
O1471  C1475   1.290   .     A
O1472  C1475   1.288   .     A
O1473  C1476   1.301   .     A
O1474  C1476   1.299   .     A
C1475  C1495   1.422   .     S
C1476  C1479   1.465   .     S
C1477  C1490   1.399   .     A
H1478  C703    1.082   1_556 S
C1479  C1489   1.404   .     A
C1479  C1490   1.413   .     A
C1480  C1481   1.393   .     A
C1480  H1492   1.078   .     S
C1480  C1491   1.402   .     A
C1481  C708    1.394   1_556 S
C1481  H766    1.079   1_556 S
C1482  H1539   1.081   .     S
C1483  C1484   1.401   .     A
C1483  C708    1.411   1_556 S
C1483  C711    1.414   1_556 S
C1484  C1491   1.414   .     A
C1484  C1488   1.414   .     A
C1485  C1489   1.402   .     A
C1486  C1487   1.392   .     A
C1486  C703    1.400   1_556 S
C1486  C711    1.420   1_556 S
C1487  C1488   1.395   .     A
C1487  H1531   1.082   .     S
C1488  C1541   1.510   .     S
C1489  C1532   1.530   .     S
C1490  C1509   1.518   .     S
C1493  H1548   1.081   .     S
C1493  C1500   1.395   .     A
C1493  C978    1.380   1_565 S
C1494  C1516   1.523   .     S
C1494  C1495   1.415   .     A
C1495  C1496   1.401   .     A
C1496  H1497   1.083   .     S
C1498  H1499   1.083   .     S
C1498  C1500   1.387   .     A
C1498  C980    1.368   1_565 S
C1501  H1502   1.081   .     S
C1501  N1508   1.370   .     A
C1501  C1331   1.421   1_655 S
C1503  N1504   1.367   .     A
C1503  H1523   1.081   .     S
N1504  C1505   1.401   .     A
C1505  C1524   1.518   .     S
C1506  N1508   1.343   .     A
C1506  H1507   1.078   .     S
C1506  C1333   1.414   1_655 S
C1509  C1510   1.530   .     S
C1509  H1515   1.109   .     S
C1509  H1514   1.108   .     S
C1510  H1513   1.111   .     S
C1510  H1512   1.111   .     S
C1510  H1511   1.108   .     S
C1516  H1522   1.106   .     S
C1516  H1521   1.112   .     S
C1516  C1517   1.529   .     S
C1517  H1518   1.106   .     S
C1517  H1519   1.110   .     S
C1517  H1520   1.111   .     S
C1524  H1529   1.096   .     S
C1524  C1525   1.529   .     S
C1524  H1530   1.113   .     S
C1525  H1527   1.105   .     S
C1525  H1528   1.111   .     S
C1525  H1526   1.107   .     S
C1532  C1533   1.529   .     S
C1532  H1538   1.110   .     S
C1532  H1537   1.108   .     S
C1533  H1535   1.109   .     S
C1533  H1536   1.110   .     S
C1533  H1534   1.111   .     S
C1541  H1546   1.108   .     S
C1541  C1542   1.527   .     S
C1541  H1547   1.102   .     S
C1542  H1545   1.106   .     S
C1542  H1544   1.111   .     S
C1542  H1543   1.111   .     S
