data_str_m3_o1_o2_pcu_sym.6
_audit_creation_date              2020-01-03
_audit_creation_method            'Materials Studio'
_symmetry_space_group_name_H-M    'P1'
_symmetry_Int_Tables_number       1
_symmetry_cell_setting            triclinic
loop_
_symmetry_equiv_pos_as_xyz
  x,y,z
_cell_length_a                    32.3710
_cell_length_b                    29.4548
_cell_length_c                    29.6254
_cell_angle_alpha                 89.6733
_cell_angle_beta                  91.1916
_cell_angle_gamma                 89.8640
loop_
_atom_site_label
_atom_site_type_symbol
_atom_site_fract_x
_atom_site_fract_y
_atom_site_fract_z
_atom_site_U_iso_or_equiv
_atom_site_adp_type
_atom_site_occupancy
C1     C     0.08651   0.16679   0.24782   0.00000  Uiso   1.00
C2     C     0.31113   0.20596   0.23131   0.00000  Uiso   1.00
C3     C     0.31295   0.12606   0.25330   0.00000  Uiso   1.00
C4     C     0.01987   0.20818   0.23943   0.00000  Uiso   1.00
C5     C     0.15583   0.20742   0.04476   0.00000  Uiso   1.00
C6     C     0.17123   0.13189   0.45708   0.00000  Uiso   1.00
C7     C     0.12360   0.19624   0.44714   0.00000  Uiso   1.00
C8     C     0.12920   0.12977   0.04941   0.00000  Uiso   1.00
C9     C     0.16301   0.20704   0.09101   0.00000  Uiso   1.00
C10    C     0.17774   0.13226   0.41098   0.00000  Uiso   1.00
C11    C     0.13290   0.19808   0.40184   0.00000  Uiso   1.00
C12    C     0.24664   0.16657   0.24869   0.00000  Uiso   1.00
C13    C     0.13864   0.12924   0.09529   0.00000  Uiso   1.00
C14    C     0.15639   0.16737   0.11575   0.00000  Uiso   1.00
C15    C     0.15986   0.16621   0.38398   0.00000  Uiso   1.00
C16    C     0.14000   0.16804   0.02374   0.00000  Uiso   1.00
C17    C     0.14360   0.16410   0.47519   0.00000  Uiso   1.00
C18    C     0.29055   0.16622   0.24465   0.00000  Uiso   1.00
C19    C     0.04220   0.16695   0.24318   0.00000  Uiso   1.00
C20    C     0.20622   0.24932   0.01151   0.00000  Uiso   1.00
C21    C     0.21454   0.29410   0.48704   0.00000  Uiso   1.00
C22    C     0.25979   0.29818   0.47425   0.00000  Uiso   1.00
C23    C     0.16496   0.16682   0.16363   0.00000  Uiso   1.00
C24    C     0.22273   0.11367   0.00933   0.00000  Uiso   1.00
C25    C     0.26217   0.11666   0.48210   0.00000  Uiso   1.00
C26    C     0.29732   0.13627   0.01081   0.00000  Uiso   1.00
C27    C     0.05599   0.21200   0.45764   0.00000  Uiso   1.00
C28    C     0.02718   0.23754   0.48876   0.00000  Uiso   1.00
C29    C     0.03773   0.22780   0.03842   0.00000  Uiso   1.00
C30    C     0.07241   0.08571   0.03513   0.00000  Uiso   1.00
C31    C     0.06209   0.03522   0.03868   0.00000  Uiso   1.00
C32    C     0.01565   0.02778   0.04227   0.00000  Uiso   1.00
C33    C     0.03547   0.07493   0.18836   0.00000  Uiso   1.00
C34    C     0.16630   0.16653   0.33630   0.00000  Uiso   1.00
C35    C     0.03773   0.02386   0.18000   0.00000  Uiso   1.00
C36    C     0.08063   0.00481   0.18979   0.00000  Uiso   1.00
C37    C     0.27809   0.23474   0.16806   0.00000  Uiso   1.00
C38    C     0.29360   0.27219   0.13673   0.00000  Uiso   1.00
C39    C     0.27194   0.31753   0.14432   0.00000  Uiso   1.00
C40    C     0.29264   0.09050   0.31793   0.00000  Uiso   1.00
C41    C     0.00193   0.08753   0.34197   0.00000  Uiso   1.00
C42    C     0.33132   0.08560   0.39314   0.00000  Uiso   1.00
C43    C     0.04141   0.26314   0.28847   0.00000  Uiso   1.00
C44    C     0.00248   0.28825   0.30360   0.00000  Uiso   1.00
C45    C     0.15341   0.02383   0.28665   0.00000  Uiso   1.00
C46    C     0.00409   0.29713   0.35429   0.00000  Uiso   1.00
C47    C     0.18037   0.30948   0.21363   0.00000  Uiso   1.00
C48    C     0.18079   0.02413   0.21377   0.00000  Uiso   1.00
C49    C     0.15358   0.30918   0.28672   0.00000  Uiso   1.00
C50    C     0.02086   0.12543   0.24302   0.00000  Uiso   1.00
H51    H     0.14244   0.04183   0.31579   0.00000  Uiso   1.00
H52    H     0.22510   0.24843   0.04341   0.00000  Uiso   1.00
H53    H     0.19489   0.29618   0.45585   0.00000  Uiso   1.00
H54    H     0.20636   0.32292   0.00926   0.00000  Uiso   1.00
H55    H     0.28002   0.29596   0.00491   0.00000  Uiso   1.00
H56    H     0.26498   0.33139   0.45743   0.00000  Uiso   1.00
H57    H     0.26809   0.27075   0.45049   0.00000  Uiso   1.00
H58    H     0.22807   0.08927   0.03760   0.00000  Uiso   1.00
H59    H     0.21656   0.14690   0.02519   0.00000  Uiso   1.00
H60    H     0.27080   0.08226   0.47037   0.00000  Uiso   1.00
H61    H     0.25706   0.13906   0.45222   0.00000  Uiso   1.00
H62    H     0.19062   0.29135   0.18437   0.00000  Uiso   1.00
H63    H     0.28935   0.17109   0.02193   0.00000  Uiso   1.00
H64    H     0.32561   0.13779   0.49053   0.00000  Uiso   1.00
H65    H     0.30339   0.11482   0.04111   0.00000  Uiso   1.00
H66    H     0.05291   0.17490   0.46462   0.00000  Uiso   1.00
H67    H     0.04610   0.21856   0.42204   0.00000  Uiso   1.00
H68    H     0.02939   0.27461   0.48206   0.00000  Uiso   1.00
H69    H     0.32825   0.22691   0.48129   0.00000  Uiso   1.00
H70    H     0.03841   0.19067   0.04513   0.00000  Uiso   1.00
H71    H     0.01403   0.24328   0.05994   0.00000  Uiso   1.00
H72    H     0.06825   0.24253   0.04777   0.00000  Uiso   1.00
H73    H     0.19185   0.04237   0.18466   0.00000  Uiso   1.00
H74    H     0.05594   0.10044   0.00524   0.00000  Uiso   1.00
H75    H     0.06100   0.10282   0.06610   0.00000  Uiso   1.00
H76    H     0.07338   0.01717   0.00846   0.00000  Uiso   1.00
H77    H     0.07795   0.02063   0.06911   0.00000  Uiso   1.00
H78    H     0.00328   0.04734   0.07092   0.00000  Uiso   1.00
H79    H     0.00937   0.32466   0.04834   0.00000  Uiso   1.00
H80    H     0.33291   0.03843   0.01045   0.00000  Uiso   1.00
H81    H     0.06034   0.09251   0.16969   0.00000  Uiso   1.00
H82    H     0.00509   0.08646   0.17365   0.00000  Uiso   1.00
H83    H     0.01501   0.00609   0.20138   0.00000  Uiso   1.00
H84    H     0.14292   0.29093   0.31600   0.00000  Uiso   1.00
H85    H     0.02968   0.01725   0.14405   0.00000  Uiso   1.00
H86    H     0.10367   0.02266   0.16891   0.00000  Uiso   1.00
H87    H     0.08137   0.30146   0.18144   0.00000  Uiso   1.00
H88    H     0.08847   0.00885   0.22610   0.00000  Uiso   1.00
H89    H     0.24386   0.23362   0.16588   0.00000  Uiso   1.00
H90    H     0.28939   0.20166   0.15455   0.00000  Uiso   1.00
H91    H     0.32748   0.27610   0.14189   0.00000  Uiso   1.00
H92    H     0.28767   0.26196   0.10115   0.00000  Uiso   1.00
H93    H     0.23917   0.31541   0.13282   0.00000  Uiso   1.00
H94    H     0.28698   0.01111   0.12417   0.00000  Uiso   1.00
H95    H     0.17516   0.23729   0.10712   0.00000  Uiso   1.00
H96    H     0.27355   0.32716   0.18050   0.00000  Uiso   1.00
H97    H     0.27338   0.06179   0.32972   0.00000  Uiso   1.00
H98    H     0.27638   0.12216   0.32795   0.00000  Uiso   1.00
H99    H     0.01871   0.05707   0.33027   0.00000  Uiso   1.00
H100   H     0.02067   0.11789   0.33379   0.00000  Uiso   1.00
H101   H     0.31731   0.11761   0.40520   0.00000  Uiso   1.00
H102   H     0.02909   0.08176   0.40927   0.00000  Uiso   1.00
H103   H     0.31194   0.05642   0.40334   0.00000  Uiso   1.00
H104   H     0.06790   0.28672   0.29222   0.00000  Uiso   1.00
H105   H     0.04843   0.23382   0.31151   0.00000  Uiso   1.00
H106   H     0.19770   0.10683   0.39649   0.00000  Uiso   1.00
H107   H     0.33288   0.32098   0.28495   0.00000  Uiso   1.00
H108   H     0.30780   0.26782   0.29630   0.00000  Uiso   1.00
H109   H     0.00357   0.26450   0.37316   0.00000  Uiso   1.00
H110   H     0.30991   0.31718   0.36380   0.00000  Uiso   1.00
H111   H     0.03248   0.31613   0.36396   0.00000  Uiso   1.00
H112   H     0.11812   0.22362   0.38046   0.00000  Uiso   1.00
H113   H     0.13231   0.09879   0.11466   0.00000  Uiso   1.00
H114   H     0.21569   0.22085   0.48939   0.00000  Uiso   1.00
N115   N     0.16667   0.28573   0.25000   0.00000  Uiso   1.00
N116   N     0.16667   0.04760   0.25000   0.00000  Uiso   1.00
O117   O     0.10559   0.20487   0.25000   0.00000  Uiso   1.00
O118   O     0.18913   0.09726   0.48281   0.00000  Uiso   1.00
O119   O     0.09674   0.22765   0.46471   0.00000  Uiso   1.00
O120   O     0.11534   0.09046   0.02887   0.00000  Uiso   1.00
O121   O     0.03972   0.08412   0.23520   0.00000  Uiso   1.00
O122   O     0.29071   0.24361   0.21342   0.00000  Uiso   1.00
O123   O     0.29540   0.08684   0.27029   0.00000  Uiso   1.00
O124   O     0.03838   0.25041   0.24234   0.00000  Uiso   1.00
O125   O     0.22774   0.12846   0.25001   0.00000  Uiso   1.00
O126   O     0.22774   0.20487   0.25001   0.00000  Uiso   1.00
O127   O     0.10559   0.12846   0.25000   0.00000  Uiso   1.00
O128   O     0.16666   0.20489   0.18453   0.00000  Uiso   1.00
O129   O     0.16667   0.12845   0.31547   0.00000  Uiso   1.00
O130   O     0.16667   0.20489   0.31547   0.00000  Uiso   1.00
O131   O     0.16666   0.12845   0.18453   0.00000  Uiso   1.00
O132   O     0.16360   0.24657   0.02030   0.00000  Uiso   1.00
Zn133  Zn    0.16667   0.21771   0.25000   0.00000  Uiso   1.00
Zn134  Zn    0.16667   0.11563   0.25000   0.00000  Uiso   1.00
C135   C     0.41985   0.16679   0.24782   0.00000  Uiso   1.00
C136   C     0.64447   0.20596   0.23131   0.00000  Uiso   1.00
C137   C     0.64629   0.12606   0.25330   0.00000  Uiso   1.00
C138   C     0.35320   0.20818   0.23943   0.00000  Uiso   1.00
C139   C     0.48917   0.20742   0.04476   0.00000  Uiso   1.00
C140   C     0.50457   0.13189   0.45708   0.00000  Uiso   1.00
C141   C     0.45693   0.19624   0.44714   0.00000  Uiso   1.00
C142   C     0.46254   0.12977   0.04941   0.00000  Uiso   1.00
C143   C     0.49634   0.20704   0.09101   0.00000  Uiso   1.00
C144   C     0.51107   0.13226   0.41098   0.00000  Uiso   1.00
C145   C     0.46623   0.19808   0.40184   0.00000  Uiso   1.00
C146   C     0.57998   0.16657   0.24869   0.00000  Uiso   1.00
C147   C     0.47197   0.12924   0.09529   0.00000  Uiso   1.00
C148   C     0.48972   0.16737   0.11575   0.00000  Uiso   1.00
C149   C     0.49319   0.16621   0.38398   0.00000  Uiso   1.00
C150   C     0.47334   0.16804   0.02374   0.00000  Uiso   1.00
C151   C     0.47693   0.16410   0.47519   0.00000  Uiso   1.00
C152   C     0.62388   0.16622   0.24465   0.00000  Uiso   1.00
C153   C     0.37553   0.16695   0.24318   0.00000  Uiso   1.00
C154   C     0.53956   0.24932   0.01151   0.00000  Uiso   1.00
C155   C     0.54787   0.29410   0.48704   0.00000  Uiso   1.00
C156   C     0.59312   0.29818   0.47425   0.00000  Uiso   1.00
C157   C     0.49829   0.16682   0.16363   0.00000  Uiso   1.00
C158   C     0.55606   0.11367   0.00933   0.00000  Uiso   1.00
C159   C     0.59551   0.11666   0.48210   0.00000  Uiso   1.00
C160   C     0.63065   0.13627   0.01081   0.00000  Uiso   1.00
C161   C     0.38932   0.21200   0.45764   0.00000  Uiso   1.00
C162   C     0.36051   0.23754   0.48876   0.00000  Uiso   1.00
C163   C     0.37107   0.22780   0.03842   0.00000  Uiso   1.00
C164   C     0.40574   0.08571   0.03513   0.00000  Uiso   1.00
C165   C     0.39542   0.03522   0.03868   0.00000  Uiso   1.00
C166   C     0.34899   0.02778   0.04227   0.00000  Uiso   1.00
C167   C     0.36880   0.07493   0.18836   0.00000  Uiso   1.00
C168   C     0.49963   0.16653   0.33630   0.00000  Uiso   1.00
C169   C     0.37107   0.02386   0.18000   0.00000  Uiso   1.00
C170   C     0.41397   0.00481   0.18979   0.00000  Uiso   1.00
C171   C     0.61143   0.23474   0.16806   0.00000  Uiso   1.00
C172   C     0.62693   0.27219   0.13673   0.00000  Uiso   1.00
C173   C     0.60527   0.31753   0.14432   0.00000  Uiso   1.00
C174   C     0.62598   0.09050   0.31793   0.00000  Uiso   1.00
C175   C     0.33527   0.08753   0.34197   0.00000  Uiso   1.00
C176   C     0.66466   0.08560   0.39314   0.00000  Uiso   1.00
C177   C     0.37474   0.26314   0.28847   0.00000  Uiso   1.00
C178   C     0.33582   0.28825   0.30360   0.00000  Uiso   1.00
C179   C     0.48675   0.02383   0.28665   0.00000  Uiso   1.00
C180   C     0.33742   0.29713   0.35429   0.00000  Uiso   1.00
C181   C     0.51370   0.30948   0.21363   0.00000  Uiso   1.00
C182   C     0.51412   0.02413   0.21377   0.00000  Uiso   1.00
C183   C     0.48692   0.30918   0.28672   0.00000  Uiso   1.00
C184   C     0.35419   0.12543   0.24302   0.00000  Uiso   1.00
H185   H     0.47577   0.04183   0.31579   0.00000  Uiso   1.00
H186   H     0.55843   0.24843   0.04341   0.00000  Uiso   1.00
H187   H     0.52823   0.29618   0.45585   0.00000  Uiso   1.00
H188   H     0.53970   0.32292   0.00926   0.00000  Uiso   1.00
H189   H     0.61335   0.29596   0.00491   0.00000  Uiso   1.00
H190   H     0.59831   0.33139   0.45743   0.00000  Uiso   1.00
H191   H     0.60142   0.27075   0.45049   0.00000  Uiso   1.00
H192   H     0.56140   0.08927   0.03760   0.00000  Uiso   1.00
H193   H     0.54989   0.14690   0.02519   0.00000  Uiso   1.00
H194   H     0.60414   0.08226   0.47037   0.00000  Uiso   1.00
H195   H     0.59039   0.13906   0.45222   0.00000  Uiso   1.00
H196   H     0.52395   0.29135   0.18437   0.00000  Uiso   1.00
H197   H     0.62268   0.17109   0.02193   0.00000  Uiso   1.00
H198   H     0.65895   0.13779   0.49053   0.00000  Uiso   1.00
H199   H     0.63672   0.11482   0.04111   0.00000  Uiso   1.00
H200   H     0.38625   0.17490   0.46462   0.00000  Uiso   1.00
H201   H     0.37943   0.21856   0.42204   0.00000  Uiso   1.00
H202   H     0.36272   0.27461   0.48206   0.00000  Uiso   1.00
H203   H     0.66159   0.22691   0.48129   0.00000  Uiso   1.00
H204   H     0.37174   0.19067   0.04513   0.00000  Uiso   1.00
H205   H     0.34737   0.24328   0.05994   0.00000  Uiso   1.00
H206   H     0.40158   0.24253   0.04777   0.00000  Uiso   1.00
H207   H     0.52519   0.04237   0.18466   0.00000  Uiso   1.00
H208   H     0.38927   0.10044   0.00524   0.00000  Uiso   1.00
H209   H     0.39433   0.10282   0.06610   0.00000  Uiso   1.00
H210   H     0.40671   0.01717   0.00846   0.00000  Uiso   1.00
H211   H     0.41128   0.02063   0.06911   0.00000  Uiso   1.00
H212   H     0.33661   0.04734   0.07092   0.00000  Uiso   1.00
H213   H     0.34270   0.32466   0.04834   0.00000  Uiso   1.00
H214   H     0.66624   0.03843   0.01045   0.00000  Uiso   1.00
H215   H     0.39367   0.09251   0.16969   0.00000  Uiso   1.00
H216   H     0.33842   0.08646   0.17365   0.00000  Uiso   1.00
H217   H     0.34834   0.00609   0.20138   0.00000  Uiso   1.00
H218   H     0.47625   0.29093   0.31600   0.00000  Uiso   1.00
H219   H     0.36302   0.01725   0.14405   0.00000  Uiso   1.00
H220   H     0.43701   0.02266   0.16891   0.00000  Uiso   1.00
H221   H     0.41470   0.30146   0.18144   0.00000  Uiso   1.00
H222   H     0.42180   0.00885   0.22610   0.00000  Uiso   1.00
H223   H     0.57719   0.23362   0.16588   0.00000  Uiso   1.00
H224   H     0.62273   0.20166   0.15455   0.00000  Uiso   1.00
H225   H     0.66081   0.27610   0.14189   0.00000  Uiso   1.00
H226   H     0.62101   0.26196   0.10115   0.00000  Uiso   1.00
H227   H     0.57250   0.31541   0.13282   0.00000  Uiso   1.00
H228   H     0.62031   0.01111   0.12417   0.00000  Uiso   1.00
H229   H     0.50849   0.23729   0.10712   0.00000  Uiso   1.00
H230   H     0.60688   0.32716   0.18050   0.00000  Uiso   1.00
H231   H     0.60671   0.06179   0.32972   0.00000  Uiso   1.00
H232   H     0.60971   0.12216   0.32795   0.00000  Uiso   1.00
H233   H     0.35205   0.05707   0.33027   0.00000  Uiso   1.00
H234   H     0.35400   0.11789   0.33379   0.00000  Uiso   1.00
H235   H     0.65064   0.11761   0.40520   0.00000  Uiso   1.00
H236   H     0.36242   0.08176   0.40927   0.00000  Uiso   1.00
H237   H     0.64527   0.05642   0.40334   0.00000  Uiso   1.00
H238   H     0.40124   0.28672   0.29222   0.00000  Uiso   1.00
H239   H     0.38176   0.23382   0.31151   0.00000  Uiso   1.00
H240   H     0.53103   0.10683   0.39649   0.00000  Uiso   1.00
H241   H     0.66622   0.32098   0.28495   0.00000  Uiso   1.00
H242   H     0.64113   0.26782   0.29630   0.00000  Uiso   1.00
H243   H     0.33691   0.26450   0.37316   0.00000  Uiso   1.00
H244   H     0.64324   0.31718   0.36380   0.00000  Uiso   1.00
H245   H     0.36582   0.31613   0.36396   0.00000  Uiso   1.00
H246   H     0.45145   0.22362   0.38046   0.00000  Uiso   1.00
H247   H     0.46564   0.09879   0.11466   0.00000  Uiso   1.00
H248   H     0.54902   0.22085   0.48939   0.00000  Uiso   1.00
N249   N     0.50000   0.28573   0.25000   0.00000  Uiso   1.00
N250   N     0.50000   0.04760   0.25000   0.00000  Uiso   1.00
O251   O     0.43892   0.20487   0.25000   0.00000  Uiso   1.00
O252   O     0.52246   0.09726   0.48281   0.00000  Uiso   1.00
O253   O     0.43007   0.22765   0.46471   0.00000  Uiso   1.00
O254   O     0.44868   0.09046   0.02887   0.00000  Uiso   1.00
O255   O     0.37305   0.08412   0.23520   0.00000  Uiso   1.00
O256   O     0.62405   0.24361   0.21342   0.00000  Uiso   1.00
O257   O     0.62873   0.08684   0.27029   0.00000  Uiso   1.00
O258   O     0.37171   0.25041   0.24234   0.00000  Uiso   1.00
O259   O     0.56108   0.12846   0.25001   0.00000  Uiso   1.00
O260   O     0.56108   0.20487   0.25001   0.00000  Uiso   1.00
O261   O     0.43892   0.12846   0.25000   0.00000  Uiso   1.00
O262   O     0.50000   0.20489   0.18453   0.00000  Uiso   1.00
O263   O     0.50000   0.12845   0.31547   0.00000  Uiso   1.00
O264   O     0.50000   0.20489   0.31547   0.00000  Uiso   1.00
O265   O     0.50000   0.12845   0.18453   0.00000  Uiso   1.00
O266   O     0.49693   0.24657   0.02030   0.00000  Uiso   1.00
Zn267  Zn    0.50000   0.21771   0.25000   0.00000  Uiso   1.00
Zn268  Zn    0.50000   0.11563   0.25000   0.00000  Uiso   1.00
C269   C     0.75318   0.16679   0.24782   0.00000  Uiso   1.00
C270   C     0.97780   0.20596   0.23131   0.00000  Uiso   1.00
C271   C     0.97962   0.12606   0.25330   0.00000  Uiso   1.00
C272   C     0.68654   0.20818   0.23943   0.00000  Uiso   1.00
C273   C     0.82250   0.20742   0.04476   0.00000  Uiso   1.00
C274   C     0.83790   0.13189   0.45708   0.00000  Uiso   1.00
C275   C     0.79027   0.19624   0.44714   0.00000  Uiso   1.00
C276   C     0.79587   0.12977   0.04941   0.00000  Uiso   1.00
C277   C     0.82968   0.20704   0.09101   0.00000  Uiso   1.00
C278   C     0.84441   0.13226   0.41098   0.00000  Uiso   1.00
C279   C     0.79957   0.19808   0.40184   0.00000  Uiso   1.00
C280   C     0.91331   0.16657   0.24869   0.00000  Uiso   1.00
C281   C     0.80531   0.12924   0.09529   0.00000  Uiso   1.00
C282   C     0.82305   0.16737   0.11575   0.00000  Uiso   1.00
C283   C     0.82652   0.16621   0.38398   0.00000  Uiso   1.00
C284   C     0.80667   0.16804   0.02374   0.00000  Uiso   1.00
C285   C     0.81026   0.16410   0.47519   0.00000  Uiso   1.00
C286   C     0.95722   0.16622   0.24465   0.00000  Uiso   1.00
C287   C     0.70887   0.16695   0.24318   0.00000  Uiso   1.00
C288   C     0.87289   0.24932   0.01151   0.00000  Uiso   1.00
C289   C     0.88121   0.29410   0.48704   0.00000  Uiso   1.00
C290   C     0.92646   0.29818   0.47425   0.00000  Uiso   1.00
C291   C     0.83163   0.16682   0.16363   0.00000  Uiso   1.00
C292   C     0.88939   0.11367   0.00933   0.00000  Uiso   1.00
C293   C     0.92884   0.11666   0.48210   0.00000  Uiso   1.00
C294   C     0.96399   0.13627   0.01081   0.00000  Uiso   1.00
C295   C     0.72265   0.21200   0.45764   0.00000  Uiso   1.00
C296   C     0.69384   0.23754   0.48876   0.00000  Uiso   1.00
C297   C     0.70440   0.22780   0.03842   0.00000  Uiso   1.00
C298   C     0.73908   0.08571   0.03513   0.00000  Uiso   1.00
C299   C     0.72875   0.03522   0.03868   0.00000  Uiso   1.00
C300   C     0.68232   0.02778   0.04227   0.00000  Uiso   1.00
C301   C     0.70213   0.07493   0.18836   0.00000  Uiso   1.00
C302   C     0.83296   0.16653   0.33630   0.00000  Uiso   1.00
C303   C     0.70440   0.02386   0.18000   0.00000  Uiso   1.00
C304   C     0.74730   0.00481   0.18979   0.00000  Uiso   1.00
C305   C     0.94476   0.23474   0.16806   0.00000  Uiso   1.00
C306   C     0.96026   0.27219   0.13673   0.00000  Uiso   1.00
C307   C     0.93860   0.31753   0.14432   0.00000  Uiso   1.00
C308   C     0.95931   0.09050   0.31793   0.00000  Uiso   1.00
C309   C     0.66860   0.08753   0.34197   0.00000  Uiso   1.00
C310   C     0.99799   0.08560   0.39314   0.00000  Uiso   1.00
C311   C     0.70808   0.26314   0.28847   0.00000  Uiso   1.00
C312   C     0.66915   0.28825   0.30360   0.00000  Uiso   1.00
C313   C     0.82008   0.02383   0.28665   0.00000  Uiso   1.00
C314   C     0.67076   0.29713   0.35429   0.00000  Uiso   1.00
C315   C     0.84703   0.30948   0.21363   0.00000  Uiso   1.00
C316   C     0.84746   0.02413   0.21377   0.00000  Uiso   1.00
C317   C     0.82025   0.30918   0.28672   0.00000  Uiso   1.00
C318   C     0.68752   0.12543   0.24302   0.00000  Uiso   1.00
H319   H     0.80910   0.04183   0.31579   0.00000  Uiso   1.00
H320   H     0.89176   0.24843   0.04341   0.00000  Uiso   1.00
H321   H     0.86156   0.29618   0.45585   0.00000  Uiso   1.00
H322   H     0.87303   0.32292   0.00926   0.00000  Uiso   1.00
H323   H     0.94668   0.29596   0.00491   0.00000  Uiso   1.00
H324   H     0.93164   0.33139   0.45743   0.00000  Uiso   1.00
H325   H     0.93475   0.27075   0.45049   0.00000  Uiso   1.00
H326   H     0.89473   0.08927   0.03760   0.00000  Uiso   1.00
H327   H     0.88322   0.14690   0.02519   0.00000  Uiso   1.00
H328   H     0.93747   0.08226   0.47037   0.00000  Uiso   1.00
H329   H     0.92372   0.13906   0.45222   0.00000  Uiso   1.00
H330   H     0.85728   0.29135   0.18437   0.00000  Uiso   1.00
H331   H     0.95601   0.17109   0.02193   0.00000  Uiso   1.00
H332   H     0.99228   0.13779   0.49053   0.00000  Uiso   1.00
H333   H     0.97005   0.11482   0.04111   0.00000  Uiso   1.00
H334   H     0.71958   0.17490   0.46462   0.00000  Uiso   1.00
H335   H     0.71276   0.21856   0.42204   0.00000  Uiso   1.00
H336   H     0.69606   0.27461   0.48206   0.00000  Uiso   1.00
H337   H     0.99492   0.22691   0.48129   0.00000  Uiso   1.00
H338   H     0.70507   0.19067   0.04513   0.00000  Uiso   1.00
H339   H     0.68070   0.24328   0.05994   0.00000  Uiso   1.00
H340   H     0.73491   0.24253   0.04777   0.00000  Uiso   1.00
H341   H     0.85852   0.04237   0.18466   0.00000  Uiso   1.00
H342   H     0.72260   0.10044   0.00524   0.00000  Uiso   1.00
H343   H     0.72766   0.10282   0.06610   0.00000  Uiso   1.00
H344   H     0.74005   0.01717   0.00846   0.00000  Uiso   1.00
H345   H     0.74462   0.02063   0.06911   0.00000  Uiso   1.00
H346   H     0.66994   0.04734   0.07092   0.00000  Uiso   1.00
H347   H     0.67604   0.32466   0.04834   0.00000  Uiso   1.00
H348   H     0.99958   0.03843   0.01045   0.00000  Uiso   1.00
H349   H     0.72700   0.09251   0.16969   0.00000  Uiso   1.00
H350   H     0.67175   0.08646   0.17365   0.00000  Uiso   1.00
H351   H     0.68167   0.00609   0.20138   0.00000  Uiso   1.00
H352   H     0.80958   0.29093   0.31600   0.00000  Uiso   1.00
H353   H     0.69635   0.01725   0.14405   0.00000  Uiso   1.00
H354   H     0.77034   0.02266   0.16891   0.00000  Uiso   1.00
H355   H     0.74804   0.30146   0.18144   0.00000  Uiso   1.00
H356   H     0.75514   0.00885   0.22610   0.00000  Uiso   1.00
H357   H     0.91053   0.23362   0.16588   0.00000  Uiso   1.00
H358   H     0.95606   0.20166   0.15455   0.00000  Uiso   1.00
H359   H     0.99415   0.27610   0.14189   0.00000  Uiso   1.00
H360   H     0.95434   0.26196   0.10115   0.00000  Uiso   1.00
H361   H     0.90584   0.31541   0.13282   0.00000  Uiso   1.00
H362   H     0.95364   0.01111   0.12417   0.00000  Uiso   1.00
H363   H     0.84183   0.23729   0.10712   0.00000  Uiso   1.00
H364   H     0.94022   0.32716   0.18050   0.00000  Uiso   1.00
H365   H     0.94004   0.06179   0.32972   0.00000  Uiso   1.00
H366   H     0.94304   0.12216   0.32795   0.00000  Uiso   1.00
H367   H     0.68538   0.05707   0.33027   0.00000  Uiso   1.00
H368   H     0.68734   0.11789   0.33379   0.00000  Uiso   1.00
H369   H     0.98398   0.11761   0.40520   0.00000  Uiso   1.00
H370   H     0.69576   0.08176   0.40927   0.00000  Uiso   1.00
H371   H     0.97861   0.05642   0.40334   0.00000  Uiso   1.00
H372   H     0.73457   0.28672   0.29222   0.00000  Uiso   1.00
H373   H     0.71510   0.23382   0.31151   0.00000  Uiso   1.00
H374   H     0.86437   0.10683   0.39649   0.00000  Uiso   1.00
H375   H     0.99955   0.32098   0.28495   0.00000  Uiso   1.00
H376   H     0.97447   0.26782   0.29630   0.00000  Uiso   1.00
H377   H     0.67024   0.26450   0.37316   0.00000  Uiso   1.00
H378   H     0.97658   0.31718   0.36380   0.00000  Uiso   1.00
H379   H     0.69915   0.31613   0.36396   0.00000  Uiso   1.00
H380   H     0.78478   0.22362   0.38046   0.00000  Uiso   1.00
H381   H     0.79897   0.09879   0.11466   0.00000  Uiso   1.00
H382   H     0.88236   0.22085   0.48939   0.00000  Uiso   1.00
N383   N     0.83333   0.28573   0.25000   0.00000  Uiso   1.00
N384   N     0.83333   0.04760   0.25000   0.00000  Uiso   1.00
O385   O     0.77226   0.20487   0.25000   0.00000  Uiso   1.00
O386   O     0.85580   0.09726   0.48281   0.00000  Uiso   1.00
O387   O     0.76341   0.22765   0.46471   0.00000  Uiso   1.00
O388   O     0.78201   0.09046   0.02887   0.00000  Uiso   1.00
O389   O     0.70639   0.08412   0.23520   0.00000  Uiso   1.00
O390   O     0.95738   0.24361   0.21342   0.00000  Uiso   1.00
O391   O     0.96207   0.08684   0.27029   0.00000  Uiso   1.00
O392   O     0.70504   0.25041   0.24234   0.00000  Uiso   1.00
O393   O     0.89441   0.12846   0.25001   0.00000  Uiso   1.00
O394   O     0.89441   0.20487   0.25001   0.00000  Uiso   1.00
O395   O     0.77226   0.12846   0.25000   0.00000  Uiso   1.00
O396   O     0.83333   0.20489   0.18453   0.00000  Uiso   1.00
O397   O     0.83334   0.12845   0.31547   0.00000  Uiso   1.00
O398   O     0.83334   0.20489   0.31547   0.00000  Uiso   1.00
O399   O     0.83333   0.12845   0.18453   0.00000  Uiso   1.00
O400   O     0.83026   0.24657   0.02030   0.00000  Uiso   1.00
Zn401  Zn    0.83333   0.21771   0.25000   0.00000  Uiso   1.00
Zn402  Zn    0.83333   0.11563   0.25000   0.00000  Uiso   1.00
C403   C     0.08651   0.50012   0.24782   0.00000  Uiso   1.00
C404   C     0.31113   0.53929   0.23131   0.00000  Uiso   1.00
C405   C     0.31295   0.45939   0.25330   0.00000  Uiso   1.00
C406   C     0.01987   0.54151   0.23943   0.00000  Uiso   1.00
C407   C     0.15583   0.54076   0.04476   0.00000  Uiso   1.00
C408   C     0.17123   0.46522   0.45708   0.00000  Uiso   1.00
C409   C     0.12360   0.52957   0.44714   0.00000  Uiso   1.00
C410   C     0.12920   0.46310   0.04941   0.00000  Uiso   1.00
C411   C     0.16301   0.54037   0.09101   0.00000  Uiso   1.00
C412   C     0.17774   0.46559   0.41098   0.00000  Uiso   1.00
C413   C     0.13290   0.53142   0.40184   0.00000  Uiso   1.00
C414   C     0.24664   0.49991   0.24869   0.00000  Uiso   1.00
C415   C     0.13864   0.46257   0.09529   0.00000  Uiso   1.00
C416   C     0.15639   0.50070   0.11575   0.00000  Uiso   1.00
C417   C     0.15986   0.49954   0.38398   0.00000  Uiso   1.00
C418   C     0.14000   0.50138   0.02374   0.00000  Uiso   1.00
C419   C     0.14360   0.49743   0.47519   0.00000  Uiso   1.00
C420   C     0.29055   0.49956   0.24465   0.00000  Uiso   1.00
C421   C     0.04220   0.50028   0.24318   0.00000  Uiso   1.00
C422   C     0.20622   0.58266   0.01151   0.00000  Uiso   1.00
C423   C     0.21454   0.62744   0.48704   0.00000  Uiso   1.00
C424   C     0.25979   0.63151   0.47425   0.00000  Uiso   1.00
C425   C     0.16496   0.50015   0.16363   0.00000  Uiso   1.00
C426   C     0.22273   0.44701   0.00933   0.00000  Uiso   1.00
C427   C     0.26217   0.44999   0.48210   0.00000  Uiso   1.00
C428   C     0.29732   0.46960   0.01081   0.00000  Uiso   1.00
C429   C     0.05599   0.54534   0.45764   0.00000  Uiso   1.00
C430   C     0.02718   0.57088   0.48876   0.00000  Uiso   1.00
C431   C     0.03773   0.56113   0.03842   0.00000  Uiso   1.00
C432   C     0.07241   0.41904   0.03513   0.00000  Uiso   1.00
C433   C     0.06209   0.36856   0.03868   0.00000  Uiso   1.00
C434   C     0.01565   0.36111   0.04227   0.00000  Uiso   1.00
C435   C     0.03547   0.40826   0.18836   0.00000  Uiso   1.00
C436   C     0.16630   0.49987   0.33630   0.00000  Uiso   1.00
C437   C     0.03773   0.35720   0.18000   0.00000  Uiso   1.00
C438   C     0.08063   0.33814   0.18979   0.00000  Uiso   1.00
C439   C     0.27809   0.56808   0.16806   0.00000  Uiso   1.00
C440   C     0.29360   0.60552   0.13673   0.00000  Uiso   1.00
C441   C     0.27194   0.65086   0.14432   0.00000  Uiso   1.00
C442   C     0.29264   0.42383   0.31793   0.00000  Uiso   1.00
C443   C     0.00193   0.42086   0.34197   0.00000  Uiso   1.00
C444   C     0.33132   0.41893   0.39314   0.00000  Uiso   1.00
C445   C     0.04141   0.59648   0.28847   0.00000  Uiso   1.00
C446   C     0.00248   0.62158   0.30360   0.00000  Uiso   1.00
C447   C     0.15341   0.35717   0.28665   0.00000  Uiso   1.00
C448   C     0.00409   0.63046   0.35429   0.00000  Uiso   1.00
C449   C     0.18037   0.64281   0.21363   0.00000  Uiso   1.00
C450   C     0.18079   0.35747   0.21377   0.00000  Uiso   1.00
C451   C     0.15358   0.64251   0.28672   0.00000  Uiso   1.00
C452   C     0.02086   0.45876   0.24302   0.00000  Uiso   1.00
H453   H     0.14244   0.37517   0.31579   0.00000  Uiso   1.00
H454   H     0.22510   0.58176   0.04341   0.00000  Uiso   1.00
H455   H     0.19489   0.62951   0.45585   0.00000  Uiso   1.00
H456   H     0.20636   0.65625   0.00926   0.00000  Uiso   1.00
H457   H     0.28002   0.62929   0.00491   0.00000  Uiso   1.00
H458   H     0.26498   0.66472   0.45743   0.00000  Uiso   1.00
H459   H     0.26809   0.60409   0.45049   0.00000  Uiso   1.00
H460   H     0.22807   0.42260   0.03760   0.00000  Uiso   1.00
H461   H     0.21656   0.48024   0.02519   0.00000  Uiso   1.00
H462   H     0.27080   0.41559   0.47037   0.00000  Uiso   1.00
H463   H     0.25706   0.47240   0.45222   0.00000  Uiso   1.00
H464   H     0.19062   0.62468   0.18437   0.00000  Uiso   1.00
H465   H     0.28935   0.50443   0.02193   0.00000  Uiso   1.00
H466   H     0.32561   0.47112   0.49053   0.00000  Uiso   1.00
H467   H     0.30339   0.44815   0.04111   0.00000  Uiso   1.00
H468   H     0.05291   0.50824   0.46462   0.00000  Uiso   1.00
H469   H     0.04610   0.55189   0.42204   0.00000  Uiso   1.00
H470   H     0.02939   0.60794   0.48206   0.00000  Uiso   1.00
H471   H     0.32825   0.56025   0.48129   0.00000  Uiso   1.00
H472   H     0.03841   0.52400   0.04513   0.00000  Uiso   1.00
H473   H     0.01403   0.57661   0.05994   0.00000  Uiso   1.00
H474   H     0.06825   0.57587   0.04777   0.00000  Uiso   1.00
H475   H     0.19185   0.37570   0.18466   0.00000  Uiso   1.00
H476   H     0.05594   0.43378   0.00524   0.00000  Uiso   1.00
H477   H     0.06100   0.43615   0.06610   0.00000  Uiso   1.00
H478   H     0.07338   0.35050   0.00846   0.00000  Uiso   1.00
H479   H     0.07795   0.35396   0.06911   0.00000  Uiso   1.00
H480   H     0.00328   0.38067   0.07092   0.00000  Uiso   1.00
H481   H     0.00937   0.65799   0.04834   0.00000  Uiso   1.00
H482   H     0.33291   0.37177   0.01045   0.00000  Uiso   1.00
H483   H     0.06034   0.42584   0.16969   0.00000  Uiso   1.00
H484   H     0.00509   0.41979   0.17365   0.00000  Uiso   1.00
H485   H     0.01501   0.33942   0.20138   0.00000  Uiso   1.00
H486   H     0.14292   0.62426   0.31600   0.00000  Uiso   1.00
H487   H     0.02968   0.35058   0.14405   0.00000  Uiso   1.00
H488   H     0.10367   0.35599   0.16891   0.00000  Uiso   1.00
H489   H     0.08137   0.63479   0.18144   0.00000  Uiso   1.00
H490   H     0.08847   0.34219   0.22610   0.00000  Uiso   1.00
H491   H     0.24386   0.56695   0.16588   0.00000  Uiso   1.00
H492   H     0.28939   0.53499   0.15455   0.00000  Uiso   1.00
H493   H     0.32748   0.60944   0.14189   0.00000  Uiso   1.00
H494   H     0.28767   0.59529   0.10115   0.00000  Uiso   1.00
H495   H     0.23917   0.64874   0.13282   0.00000  Uiso   1.00
H496   H     0.28698   0.34444   0.12417   0.00000  Uiso   1.00
H497   H     0.17516   0.57062   0.10712   0.00000  Uiso   1.00
H498   H     0.27355   0.66050   0.18050   0.00000  Uiso   1.00
H499   H     0.27338   0.39512   0.32972   0.00000  Uiso   1.00
H500   H     0.27638   0.45550   0.32795   0.00000  Uiso   1.00
H501   H     0.01871   0.39040   0.33027   0.00000  Uiso   1.00
H502   H     0.02067   0.45123   0.33379   0.00000  Uiso   1.00
H503   H     0.31731   0.45095   0.40520   0.00000  Uiso   1.00
H504   H     0.02909   0.41510   0.40927   0.00000  Uiso   1.00
H505   H     0.31194   0.38975   0.40334   0.00000  Uiso   1.00
H506   H     0.06790   0.62005   0.29222   0.00000  Uiso   1.00
H507   H     0.04843   0.56716   0.31151   0.00000  Uiso   1.00
H508   H     0.19770   0.44016   0.39649   0.00000  Uiso   1.00
H509   H     0.33288   0.65431   0.28495   0.00000  Uiso   1.00
H510   H     0.30780   0.60115   0.29630   0.00000  Uiso   1.00
H511   H     0.00357   0.59783   0.37316   0.00000  Uiso   1.00
H512   H     0.30991   0.65052   0.36380   0.00000  Uiso   1.00
H513   H     0.03248   0.64946   0.36396   0.00000  Uiso   1.00
H514   H     0.11812   0.55695   0.38046   0.00000  Uiso   1.00
H515   H     0.13231   0.43213   0.11466   0.00000  Uiso   1.00
H516   H     0.21569   0.55418   0.48939   0.00000  Uiso   1.00
N517   N     0.16667   0.61907   0.25000   0.00000  Uiso   1.00
N518   N     0.16667   0.38093   0.25000   0.00000  Uiso   1.00
O519   O     0.10559   0.53821   0.25000   0.00000  Uiso   1.00
O520   O     0.18913   0.43059   0.48281   0.00000  Uiso   1.00
O521   O     0.09674   0.56098   0.46471   0.00000  Uiso   1.00
O522   O     0.11534   0.42379   0.02887   0.00000  Uiso   1.00
O523   O     0.03972   0.41745   0.23520   0.00000  Uiso   1.00
O524   O     0.29071   0.57695   0.21342   0.00000  Uiso   1.00
O525   O     0.29540   0.42018   0.27029   0.00000  Uiso   1.00
O526   O     0.03838   0.58374   0.24234   0.00000  Uiso   1.00
O527   O     0.22774   0.46179   0.25001   0.00000  Uiso   1.00
O528   O     0.22774   0.53821   0.25001   0.00000  Uiso   1.00
O529   O     0.10559   0.46179   0.25000   0.00000  Uiso   1.00
O530   O     0.16666   0.53822   0.18453   0.00000  Uiso   1.00
O531   O     0.16667   0.46178   0.31547   0.00000  Uiso   1.00
O532   O     0.16667   0.53822   0.31547   0.00000  Uiso   1.00
O533   O     0.16666   0.46178   0.18453   0.00000  Uiso   1.00
O534   O     0.16360   0.57990   0.02030   0.00000  Uiso   1.00
Zn535  Zn    0.16667   0.55104   0.25000   0.00000  Uiso   1.00
Zn536  Zn    0.16667   0.44896   0.25000   0.00000  Uiso   1.00
C537   C     0.41985   0.50012   0.24782   0.00000  Uiso   1.00
C538   C     0.64447   0.53929   0.23131   0.00000  Uiso   1.00
C539   C     0.64629   0.45939   0.25330   0.00000  Uiso   1.00
C540   C     0.35320   0.54151   0.23943   0.00000  Uiso   1.00
C541   C     0.48917   0.54076   0.04476   0.00000  Uiso   1.00
C542   C     0.50457   0.46522   0.45708   0.00000  Uiso   1.00
C543   C     0.45693   0.52957   0.44714   0.00000  Uiso   1.00
C544   C     0.46254   0.46310   0.04941   0.00000  Uiso   1.00
C545   C     0.49634   0.54037   0.09101   0.00000  Uiso   1.00
C546   C     0.51107   0.46559   0.41098   0.00000  Uiso   1.00
C547   C     0.46623   0.53142   0.40184   0.00000  Uiso   1.00
C548   C     0.57998   0.49991   0.24869   0.00000  Uiso   1.00
C549   C     0.47197   0.46257   0.09529   0.00000  Uiso   1.00
C550   C     0.48972   0.50070   0.11575   0.00000  Uiso   1.00
C551   C     0.49319   0.49954   0.38398   0.00000  Uiso   1.00
C552   C     0.47334   0.50138   0.02374   0.00000  Uiso   1.00
C553   C     0.47693   0.49743   0.47519   0.00000  Uiso   1.00
C554   C     0.62388   0.49956   0.24465   0.00000  Uiso   1.00
C555   C     0.37553   0.50028   0.24318   0.00000  Uiso   1.00
C556   C     0.53956   0.58266   0.01151   0.00000  Uiso   1.00
C557   C     0.54787   0.62744   0.48704   0.00000  Uiso   1.00
C558   C     0.59312   0.63151   0.47425   0.00000  Uiso   1.00
C559   C     0.49829   0.50015   0.16363   0.00000  Uiso   1.00
C560   C     0.55606   0.44701   0.00933   0.00000  Uiso   1.00
C561   C     0.59551   0.44999   0.48210   0.00000  Uiso   1.00
C562   C     0.63065   0.46960   0.01081   0.00000  Uiso   1.00
C563   C     0.38932   0.54534   0.45764   0.00000  Uiso   1.00
C564   C     0.36051   0.57088   0.48876   0.00000  Uiso   1.00
C565   C     0.37107   0.56113   0.03842   0.00000  Uiso   1.00
C566   C     0.40574   0.41904   0.03513   0.00000  Uiso   1.00
C567   C     0.39542   0.36856   0.03868   0.00000  Uiso   1.00
C568   C     0.34899   0.36111   0.04227   0.00000  Uiso   1.00
C569   C     0.36880   0.40826   0.18836   0.00000  Uiso   1.00
C570   C     0.49963   0.49987   0.33630   0.00000  Uiso   1.00
C571   C     0.37107   0.35720   0.18000   0.00000  Uiso   1.00
C572   C     0.41397   0.33814   0.18979   0.00000  Uiso   1.00
C573   C     0.61143   0.56808   0.16806   0.00000  Uiso   1.00
C574   C     0.62693   0.60552   0.13673   0.00000  Uiso   1.00
C575   C     0.60527   0.65086   0.14432   0.00000  Uiso   1.00
C576   C     0.62598   0.42383   0.31793   0.00000  Uiso   1.00
C577   C     0.33527   0.42086   0.34197   0.00000  Uiso   1.00
C578   C     0.66466   0.41893   0.39314   0.00000  Uiso   1.00
C579   C     0.37474   0.59648   0.28847   0.00000  Uiso   1.00
C580   C     0.33582   0.62158   0.30360   0.00000  Uiso   1.00
C581   C     0.48675   0.35717   0.28665   0.00000  Uiso   1.00
C582   C     0.33742   0.63046   0.35429   0.00000  Uiso   1.00
C583   C     0.51370   0.64281   0.21363   0.00000  Uiso   1.00
C584   C     0.51412   0.35747   0.21377   0.00000  Uiso   1.00
C585   C     0.48692   0.64251   0.28672   0.00000  Uiso   1.00
C586   C     0.35419   0.45876   0.24302   0.00000  Uiso   1.00
H587   H     0.47577   0.37517   0.31579   0.00000  Uiso   1.00
H588   H     0.55843   0.58176   0.04341   0.00000  Uiso   1.00
H589   H     0.52823   0.62951   0.45585   0.00000  Uiso   1.00
H590   H     0.53970   0.65625   0.00926   0.00000  Uiso   1.00
H591   H     0.61335   0.62929   0.00491   0.00000  Uiso   1.00
H592   H     0.59831   0.66472   0.45743   0.00000  Uiso   1.00
H593   H     0.60142   0.60409   0.45049   0.00000  Uiso   1.00
H594   H     0.56140   0.42260   0.03760   0.00000  Uiso   1.00
H595   H     0.54989   0.48024   0.02519   0.00000  Uiso   1.00
H596   H     0.60414   0.41559   0.47037   0.00000  Uiso   1.00
H597   H     0.59039   0.47240   0.45222   0.00000  Uiso   1.00
H598   H     0.52395   0.62468   0.18437   0.00000  Uiso   1.00
H599   H     0.62268   0.50443   0.02193   0.00000  Uiso   1.00
H600   H     0.65895   0.47112   0.49053   0.00000  Uiso   1.00
H601   H     0.63672   0.44815   0.04111   0.00000  Uiso   1.00
H602   H     0.38625   0.50824   0.46462   0.00000  Uiso   1.00
H603   H     0.37943   0.55189   0.42204   0.00000  Uiso   1.00
H604   H     0.36272   0.60794   0.48206   0.00000  Uiso   1.00
H605   H     0.66159   0.56025   0.48129   0.00000  Uiso   1.00
H606   H     0.37174   0.52400   0.04513   0.00000  Uiso   1.00
H607   H     0.34737   0.57661   0.05994   0.00000  Uiso   1.00
H608   H     0.40158   0.57587   0.04777   0.00000  Uiso   1.00
H609   H     0.52519   0.37570   0.18466   0.00000  Uiso   1.00
H610   H     0.38927   0.43378   0.00524   0.00000  Uiso   1.00
H611   H     0.39433   0.43615   0.06610   0.00000  Uiso   1.00
H612   H     0.40671   0.35050   0.00846   0.00000  Uiso   1.00
H613   H     0.41128   0.35396   0.06911   0.00000  Uiso   1.00
H614   H     0.33661   0.38067   0.07092   0.00000  Uiso   1.00
H615   H     0.34270   0.65799   0.04834   0.00000  Uiso   1.00
H616   H     0.66624   0.37177   0.01045   0.00000  Uiso   1.00
H617   H     0.39367   0.42584   0.16969   0.00000  Uiso   1.00
H618   H     0.33842   0.41979   0.17365   0.00000  Uiso   1.00
H619   H     0.34834   0.33942   0.20138   0.00000  Uiso   1.00
H620   H     0.47625   0.62426   0.31600   0.00000  Uiso   1.00
H621   H     0.36302   0.35058   0.14405   0.00000  Uiso   1.00
H622   H     0.43701   0.35599   0.16891   0.00000  Uiso   1.00
H623   H     0.41470   0.63479   0.18144   0.00000  Uiso   1.00
H624   H     0.42180   0.34219   0.22610   0.00000  Uiso   1.00
H625   H     0.57719   0.56695   0.16588   0.00000  Uiso   1.00
H626   H     0.62273   0.53499   0.15455   0.00000  Uiso   1.00
H627   H     0.66081   0.60944   0.14189   0.00000  Uiso   1.00
H628   H     0.62101   0.59529   0.10115   0.00000  Uiso   1.00
H629   H     0.57250   0.64874   0.13282   0.00000  Uiso   1.00
H630   H     0.62031   0.34444   0.12417   0.00000  Uiso   1.00
H631   H     0.50849   0.57062   0.10712   0.00000  Uiso   1.00
H632   H     0.60688   0.66050   0.18050   0.00000  Uiso   1.00
H633   H     0.60671   0.39512   0.32972   0.00000  Uiso   1.00
H634   H     0.60971   0.45550   0.32795   0.00000  Uiso   1.00
H635   H     0.35205   0.39040   0.33027   0.00000  Uiso   1.00
H636   H     0.35400   0.45123   0.33379   0.00000  Uiso   1.00
H637   H     0.65064   0.45095   0.40520   0.00000  Uiso   1.00
H638   H     0.36242   0.41510   0.40927   0.00000  Uiso   1.00
H639   H     0.64527   0.38975   0.40334   0.00000  Uiso   1.00
H640   H     0.40124   0.62005   0.29222   0.00000  Uiso   1.00
H641   H     0.38176   0.56716   0.31151   0.00000  Uiso   1.00
H642   H     0.53103   0.44016   0.39649   0.00000  Uiso   1.00
H643   H     0.66622   0.65431   0.28495   0.00000  Uiso   1.00
H644   H     0.64113   0.60115   0.29630   0.00000  Uiso   1.00
H645   H     0.33691   0.59783   0.37316   0.00000  Uiso   1.00
H646   H     0.64324   0.65052   0.36380   0.00000  Uiso   1.00
H647   H     0.36582   0.64946   0.36396   0.00000  Uiso   1.00
H648   H     0.45145   0.55695   0.38046   0.00000  Uiso   1.00
H649   H     0.46564   0.43213   0.11466   0.00000  Uiso   1.00
H650   H     0.54902   0.55418   0.48939   0.00000  Uiso   1.00
N651   N     0.50000   0.61907   0.25000   0.00000  Uiso   1.00
N652   N     0.50000   0.38093   0.25000   0.00000  Uiso   1.00
O653   O     0.43892   0.53821   0.25000   0.00000  Uiso   1.00
O654   O     0.52246   0.43059   0.48281   0.00000  Uiso   1.00
O655   O     0.43007   0.56098   0.46471   0.00000  Uiso   1.00
O656   O     0.44868   0.42379   0.02887   0.00000  Uiso   1.00
O657   O     0.37305   0.41745   0.23520   0.00000  Uiso   1.00
O658   O     0.62405   0.57695   0.21342   0.00000  Uiso   1.00
O659   O     0.62873   0.42018   0.27029   0.00000  Uiso   1.00
O660   O     0.37171   0.58374   0.24234   0.00000  Uiso   1.00
O661   O     0.56108   0.46179   0.25001   0.00000  Uiso   1.00
O662   O     0.56108   0.53821   0.25001   0.00000  Uiso   1.00
O663   O     0.43892   0.46179   0.25000   0.00000  Uiso   1.00
O664   O     0.50000   0.53822   0.18453   0.00000  Uiso   1.00
O665   O     0.50000   0.46178   0.31547   0.00000  Uiso   1.00
O666   O     0.50000   0.53822   0.31547   0.00000  Uiso   1.00
O667   O     0.50000   0.46178   0.18453   0.00000  Uiso   1.00
O668   O     0.49693   0.57990   0.02030   0.00000  Uiso   1.00
Zn669  Zn    0.50000   0.55104   0.25000   0.00000  Uiso   1.00
Zn670  Zn    0.50000   0.44896   0.25000   0.00000  Uiso   1.00
C671   C     0.75318   0.50012   0.24782   0.00000  Uiso   1.00
C672   C     0.97780   0.53929   0.23131   0.00000  Uiso   1.00
C673   C     0.97962   0.45939   0.25330   0.00000  Uiso   1.00
C674   C     0.68654   0.54151   0.23943   0.00000  Uiso   1.00
C675   C     0.82250   0.54076   0.04476   0.00000  Uiso   1.00
C676   C     0.83790   0.46522   0.45708   0.00000  Uiso   1.00
C677   C     0.79027   0.52957   0.44714   0.00000  Uiso   1.00
C678   C     0.79587   0.46310   0.04941   0.00000  Uiso   1.00
C679   C     0.82968   0.54037   0.09101   0.00000  Uiso   1.00
C680   C     0.84441   0.46559   0.41098   0.00000  Uiso   1.00
C681   C     0.79957   0.53142   0.40184   0.00000  Uiso   1.00
C682   C     0.91331   0.49991   0.24869   0.00000  Uiso   1.00
C683   C     0.80531   0.46257   0.09529   0.00000  Uiso   1.00
C684   C     0.82305   0.50070   0.11575   0.00000  Uiso   1.00
C685   C     0.82652   0.49954   0.38398   0.00000  Uiso   1.00
C686   C     0.80667   0.50138   0.02374   0.00000  Uiso   1.00
C687   C     0.81026   0.49743   0.47519   0.00000  Uiso   1.00
C688   C     0.95722   0.49956   0.24465   0.00000  Uiso   1.00
C689   C     0.70887   0.50028   0.24318   0.00000  Uiso   1.00
C690   C     0.87289   0.58266   0.01151   0.00000  Uiso   1.00
C691   C     0.88121   0.62744   0.48704   0.00000  Uiso   1.00
C692   C     0.92646   0.63151   0.47425   0.00000  Uiso   1.00
C693   C     0.83163   0.50015   0.16363   0.00000  Uiso   1.00
C694   C     0.88939   0.44701   0.00933   0.00000  Uiso   1.00
C695   C     0.92884   0.44999   0.48210   0.00000  Uiso   1.00
C696   C     0.96399   0.46960   0.01081   0.00000  Uiso   1.00
C697   C     0.72265   0.54534   0.45764   0.00000  Uiso   1.00
C698   C     0.69384   0.57088   0.48876   0.00000  Uiso   1.00
C699   C     0.70440   0.56113   0.03842   0.00000  Uiso   1.00
C700   C     0.73908   0.41904   0.03513   0.00000  Uiso   1.00
C701   C     0.72875   0.36856   0.03868   0.00000  Uiso   1.00
C702   C     0.68232   0.36111   0.04227   0.00000  Uiso   1.00
C703   C     0.70213   0.40826   0.18836   0.00000  Uiso   1.00
C704   C     0.83296   0.49987   0.33630   0.00000  Uiso   1.00
C705   C     0.70440   0.35720   0.18000   0.00000  Uiso   1.00
C706   C     0.74730   0.33814   0.18979   0.00000  Uiso   1.00
C707   C     0.94476   0.56808   0.16806   0.00000  Uiso   1.00
C708   C     0.96026   0.60552   0.13673   0.00000  Uiso   1.00
C709   C     0.93860   0.65086   0.14432   0.00000  Uiso   1.00
C710   C     0.95931   0.42383   0.31793   0.00000  Uiso   1.00
C711   C     0.66860   0.42086   0.34197   0.00000  Uiso   1.00
C712   C     0.99799   0.41893   0.39314   0.00000  Uiso   1.00
C713   C     0.70808   0.59648   0.28847   0.00000  Uiso   1.00
C714   C     0.66915   0.62158   0.30360   0.00000  Uiso   1.00
C715   C     0.82008   0.35717   0.28665   0.00000  Uiso   1.00
C716   C     0.67076   0.63046   0.35429   0.00000  Uiso   1.00
C717   C     0.84703   0.64281   0.21363   0.00000  Uiso   1.00
C718   C     0.84746   0.35747   0.21377   0.00000  Uiso   1.00
C719   C     0.82025   0.64251   0.28672   0.00000  Uiso   1.00
C720   C     0.68752   0.45876   0.24302   0.00000  Uiso   1.00
H721   H     0.80910   0.37517   0.31579   0.00000  Uiso   1.00
H722   H     0.89176   0.58176   0.04341   0.00000  Uiso   1.00
H723   H     0.86156   0.62951   0.45585   0.00000  Uiso   1.00
H724   H     0.87303   0.65625   0.00926   0.00000  Uiso   1.00
H725   H     0.94668   0.62929   0.00491   0.00000  Uiso   1.00
H726   H     0.93164   0.66472   0.45743   0.00000  Uiso   1.00
H727   H     0.93475   0.60409   0.45049   0.00000  Uiso   1.00
H728   H     0.89473   0.42260   0.03760   0.00000  Uiso   1.00
H729   H     0.88322   0.48024   0.02519   0.00000  Uiso   1.00
H730   H     0.93747   0.41559   0.47037   0.00000  Uiso   1.00
H731   H     0.92372   0.47240   0.45222   0.00000  Uiso   1.00
H732   H     0.85728   0.62468   0.18437   0.00000  Uiso   1.00
H733   H     0.95601   0.50443   0.02193   0.00000  Uiso   1.00
H734   H     0.99228   0.47112   0.49053   0.00000  Uiso   1.00
H735   H     0.97005   0.44815   0.04111   0.00000  Uiso   1.00
H736   H     0.71958   0.50824   0.46462   0.00000  Uiso   1.00
H737   H     0.71276   0.55189   0.42204   0.00000  Uiso   1.00
H738   H     0.69606   0.60794   0.48206   0.00000  Uiso   1.00
H739   H     0.99492   0.56025   0.48129   0.00000  Uiso   1.00
H740   H     0.70507   0.52400   0.04513   0.00000  Uiso   1.00
H741   H     0.68070   0.57661   0.05994   0.00000  Uiso   1.00
H742   H     0.73491   0.57587   0.04777   0.00000  Uiso   1.00
H743   H     0.85852   0.37570   0.18466   0.00000  Uiso   1.00
H744   H     0.72260   0.43378   0.00524   0.00000  Uiso   1.00
H745   H     0.72766   0.43615   0.06610   0.00000  Uiso   1.00
H746   H     0.74005   0.35050   0.00846   0.00000  Uiso   1.00
H747   H     0.74462   0.35396   0.06911   0.00000  Uiso   1.00
H748   H     0.66994   0.38067   0.07092   0.00000  Uiso   1.00
H749   H     0.67604   0.65799   0.04834   0.00000  Uiso   1.00
H750   H     0.99958   0.37177   0.01045   0.00000  Uiso   1.00
H751   H     0.72700   0.42584   0.16969   0.00000  Uiso   1.00
H752   H     0.67175   0.41979   0.17365   0.00000  Uiso   1.00
H753   H     0.68167   0.33942   0.20138   0.00000  Uiso   1.00
H754   H     0.80958   0.62426   0.31600   0.00000  Uiso   1.00
H755   H     0.69635   0.35058   0.14405   0.00000  Uiso   1.00
H756   H     0.77034   0.35599   0.16891   0.00000  Uiso   1.00
H757   H     0.74804   0.63479   0.18144   0.00000  Uiso   1.00
H758   H     0.75514   0.34219   0.22610   0.00000  Uiso   1.00
H759   H     0.91053   0.56695   0.16588   0.00000  Uiso   1.00
H760   H     0.95606   0.53499   0.15455   0.00000  Uiso   1.00
H761   H     0.99415   0.60944   0.14189   0.00000  Uiso   1.00
H762   H     0.95434   0.59529   0.10115   0.00000  Uiso   1.00
H763   H     0.90584   0.64874   0.13282   0.00000  Uiso   1.00
H764   H     0.95364   0.34444   0.12417   0.00000  Uiso   1.00
H765   H     0.84183   0.57062   0.10712   0.00000  Uiso   1.00
H766   H     0.94022   0.66050   0.18050   0.00000  Uiso   1.00
H767   H     0.94004   0.39512   0.32972   0.00000  Uiso   1.00
H768   H     0.94304   0.45550   0.32795   0.00000  Uiso   1.00
H769   H     0.68538   0.39040   0.33027   0.00000  Uiso   1.00
H770   H     0.68734   0.45123   0.33379   0.00000  Uiso   1.00
H771   H     0.98398   0.45095   0.40520   0.00000  Uiso   1.00
H772   H     0.69576   0.41510   0.40927   0.00000  Uiso   1.00
H773   H     0.97861   0.38975   0.40334   0.00000  Uiso   1.00
H774   H     0.73457   0.62005   0.29222   0.00000  Uiso   1.00
H775   H     0.71510   0.56716   0.31151   0.00000  Uiso   1.00
H776   H     0.86437   0.44016   0.39649   0.00000  Uiso   1.00
H777   H     0.99955   0.65431   0.28495   0.00000  Uiso   1.00
H778   H     0.97447   0.60115   0.29630   0.00000  Uiso   1.00
H779   H     0.67024   0.59783   0.37316   0.00000  Uiso   1.00
H780   H     0.97658   0.65052   0.36380   0.00000  Uiso   1.00
H781   H     0.69915   0.64946   0.36396   0.00000  Uiso   1.00
H782   H     0.78478   0.55695   0.38046   0.00000  Uiso   1.00
H783   H     0.79897   0.43213   0.11466   0.00000  Uiso   1.00
H784   H     0.88236   0.55418   0.48939   0.00000  Uiso   1.00
N785   N     0.83333   0.61907   0.25000   0.00000  Uiso   1.00
N786   N     0.83333   0.38093   0.25000   0.00000  Uiso   1.00
O787   O     0.77226   0.53821   0.25000   0.00000  Uiso   1.00
O788   O     0.85580   0.43059   0.48281   0.00000  Uiso   1.00
O789   O     0.76341   0.56098   0.46471   0.00000  Uiso   1.00
O790   O     0.78201   0.42379   0.02887   0.00000  Uiso   1.00
O791   O     0.70639   0.41745   0.23520   0.00000  Uiso   1.00
O792   O     0.95738   0.57695   0.21342   0.00000  Uiso   1.00
O793   O     0.96207   0.42018   0.27029   0.00000  Uiso   1.00
O794   O     0.70504   0.58374   0.24234   0.00000  Uiso   1.00
O795   O     0.89441   0.46179   0.25001   0.00000  Uiso   1.00
O796   O     0.89441   0.53821   0.25001   0.00000  Uiso   1.00
O797   O     0.77226   0.46179   0.25000   0.00000  Uiso   1.00
O798   O     0.83333   0.53822   0.18453   0.00000  Uiso   1.00
O799   O     0.83334   0.46178   0.31547   0.00000  Uiso   1.00
O800   O     0.83334   0.53822   0.31547   0.00000  Uiso   1.00
O801   O     0.83333   0.46178   0.18453   0.00000  Uiso   1.00
O802   O     0.83026   0.57990   0.02030   0.00000  Uiso   1.00
Zn803  Zn    0.83333   0.55104   0.25000   0.00000  Uiso   1.00
Zn804  Zn    0.83333   0.44896   0.25000   0.00000  Uiso   1.00
C805   C     0.08651   0.83345   0.24782   0.00000  Uiso   1.00
C806   C     0.31113   0.87263   0.23131   0.00000  Uiso   1.00
C807   C     0.31295   0.79272   0.25330   0.00000  Uiso   1.00
C808   C     0.01987   0.87484   0.23943   0.00000  Uiso   1.00
C809   C     0.15583   0.87409   0.04476   0.00000  Uiso   1.00
C810   C     0.17123   0.79856   0.45708   0.00000  Uiso   1.00
C811   C     0.12360   0.86291   0.44714   0.00000  Uiso   1.00
C812   C     0.12920   0.79643   0.04941   0.00000  Uiso   1.00
C813   C     0.16301   0.87371   0.09101   0.00000  Uiso   1.00
C814   C     0.17774   0.79893   0.41098   0.00000  Uiso   1.00
C815   C     0.13290   0.86475   0.40184   0.00000  Uiso   1.00
C816   C     0.24664   0.83324   0.24869   0.00000  Uiso   1.00
C817   C     0.13864   0.79590   0.09529   0.00000  Uiso   1.00
C818   C     0.15639   0.83403   0.11575   0.00000  Uiso   1.00
C819   C     0.15986   0.83287   0.38398   0.00000  Uiso   1.00
C820   C     0.14000   0.83471   0.02374   0.00000  Uiso   1.00
C821   C     0.14360   0.83076   0.47519   0.00000  Uiso   1.00
C822   C     0.29055   0.83289   0.24465   0.00000  Uiso   1.00
C823   C     0.04220   0.83362   0.24318   0.00000  Uiso   1.00
C824   C     0.20622   0.91599   0.01151   0.00000  Uiso   1.00
C825   C     0.21454   0.96077   0.48704   0.00000  Uiso   1.00
C826   C     0.25979   0.96485   0.47425   0.00000  Uiso   1.00
C827   C     0.16496   0.83348   0.16363   0.00000  Uiso   1.00
C828   C     0.22273   0.78034   0.00933   0.00000  Uiso   1.00
C829   C     0.26217   0.78333   0.48210   0.00000  Uiso   1.00
C830   C     0.29732   0.80294   0.01081   0.00000  Uiso   1.00
C831   C     0.05599   0.87867   0.45764   0.00000  Uiso   1.00
C832   C     0.02718   0.90421   0.48876   0.00000  Uiso   1.00
C833   C     0.03773   0.89447   0.03842   0.00000  Uiso   1.00
C834   C     0.07241   0.75238   0.03513   0.00000  Uiso   1.00
C835   C     0.06209   0.70189   0.03868   0.00000  Uiso   1.00
C836   C     0.01565   0.69445   0.04227   0.00000  Uiso   1.00
C837   C     0.03547   0.74159   0.18836   0.00000  Uiso   1.00
C838   C     0.16630   0.83320   0.33630   0.00000  Uiso   1.00
C839   C     0.03773   0.69053   0.18000   0.00000  Uiso   1.00
C840   C     0.08063   0.67148   0.18979   0.00000  Uiso   1.00
C841   C     0.27809   0.90141   0.16806   0.00000  Uiso   1.00
C842   C     0.29360   0.93886   0.13673   0.00000  Uiso   1.00
C843   C     0.27194   0.98419   0.14432   0.00000  Uiso   1.00
C844   C     0.29264   0.75717   0.31793   0.00000  Uiso   1.00
C845   C     0.00193   0.75419   0.34197   0.00000  Uiso   1.00
C846   C     0.33132   0.75227   0.39314   0.00000  Uiso   1.00
C847   C     0.04141   0.92981   0.28847   0.00000  Uiso   1.00
C848   C     0.00248   0.95492   0.30360   0.00000  Uiso   1.00
C849   C     0.15341   0.69050   0.28665   0.00000  Uiso   1.00
C850   C     0.00409   0.96379   0.35429   0.00000  Uiso   1.00
C851   C     0.18037   0.97615   0.21363   0.00000  Uiso   1.00
C852   C     0.18079   0.69080   0.21377   0.00000  Uiso   1.00
C853   C     0.15358   0.97585   0.28672   0.00000  Uiso   1.00
C854   C     0.02086   0.79210   0.24302   0.00000  Uiso   1.00
H855   H     0.14244   0.70850   0.31579   0.00000  Uiso   1.00
H856   H     0.22510   0.91509   0.04341   0.00000  Uiso   1.00
H857   H     0.19489   0.96285   0.45585   0.00000  Uiso   1.00
H858   H     0.20636   0.98959   0.00926   0.00000  Uiso   1.00
H859   H     0.28002   0.96263   0.00491   0.00000  Uiso   1.00
H860   H     0.26498   0.99805   0.45743   0.00000  Uiso   1.00
H861   H     0.26809   0.93742   0.45049   0.00000  Uiso   1.00
H862   H     0.22807   0.75594   0.03760   0.00000  Uiso   1.00
H863   H     0.21656   0.81357   0.02519   0.00000  Uiso   1.00
H864   H     0.27080   0.74893   0.47037   0.00000  Uiso   1.00
H865   H     0.25706   0.80573   0.45222   0.00000  Uiso   1.00
H866   H     0.19062   0.95801   0.18437   0.00000  Uiso   1.00
H867   H     0.28935   0.83776   0.02193   0.00000  Uiso   1.00
H868   H     0.32561   0.80445   0.49053   0.00000  Uiso   1.00
H869   H     0.30339   0.78149   0.04111   0.00000  Uiso   1.00
H870   H     0.05291   0.84157   0.46462   0.00000  Uiso   1.00
H871   H     0.04610   0.88523   0.42204   0.00000  Uiso   1.00
H872   H     0.02939   0.94128   0.48206   0.00000  Uiso   1.00
H873   H     0.32825   0.89358   0.48129   0.00000  Uiso   1.00
H874   H     0.03841   0.85733   0.04513   0.00000  Uiso   1.00
H875   H     0.01403   0.90995   0.05994   0.00000  Uiso   1.00
H876   H     0.06825   0.90920   0.04777   0.00000  Uiso   1.00
H877   H     0.19185   0.70904   0.18466   0.00000  Uiso   1.00
H878   H     0.05594   0.76711   0.00524   0.00000  Uiso   1.00
H879   H     0.06100   0.76949   0.06610   0.00000  Uiso   1.00
H880   H     0.07338   0.68384   0.00846   0.00000  Uiso   1.00
H881   H     0.07795   0.68730   0.06911   0.00000  Uiso   1.00
H882   H     0.00328   0.71401   0.07092   0.00000  Uiso   1.00
H883   H     0.00937   0.99133   0.04834   0.00000  Uiso   1.00
H884   H     0.33291   0.70510   0.01045   0.00000  Uiso   1.00
H885   H     0.06034   0.75918   0.16969   0.00000  Uiso   1.00
H886   H     0.00509   0.75313   0.17365   0.00000  Uiso   1.00
H887   H     0.01501   0.67275   0.20138   0.00000  Uiso   1.00
H888   H     0.14292   0.95760   0.31600   0.00000  Uiso   1.00
H889   H     0.02968   0.68391   0.14405   0.00000  Uiso   1.00
H890   H     0.10367   0.68932   0.16891   0.00000  Uiso   1.00
H891   H     0.08137   0.96812   0.18144   0.00000  Uiso   1.00
H892   H     0.08847   0.67552   0.22610   0.00000  Uiso   1.00
H893   H     0.24386   0.90028   0.16588   0.00000  Uiso   1.00
H894   H     0.28939   0.86833   0.15455   0.00000  Uiso   1.00
H895   H     0.32748   0.94277   0.14189   0.00000  Uiso   1.00
H896   H     0.28767   0.92863   0.10115   0.00000  Uiso   1.00
H897   H     0.23917   0.98207   0.13282   0.00000  Uiso   1.00
H898   H     0.28698   0.67778   0.12417   0.00000  Uiso   1.00
H899   H     0.17516   0.90396   0.10712   0.00000  Uiso   1.00
H900   H     0.27355   0.99383   0.18050   0.00000  Uiso   1.00
H901   H     0.27338   0.72846   0.32972   0.00000  Uiso   1.00
H902   H     0.27638   0.78883   0.32795   0.00000  Uiso   1.00
H903   H     0.01871   0.72373   0.33027   0.00000  Uiso   1.00
H904   H     0.02067   0.78456   0.33379   0.00000  Uiso   1.00
H905   H     0.31731   0.78428   0.40520   0.00000  Uiso   1.00
H906   H     0.02909   0.74843   0.40927   0.00000  Uiso   1.00
H907   H     0.31194   0.72308   0.40334   0.00000  Uiso   1.00
H908   H     0.06790   0.95338   0.29222   0.00000  Uiso   1.00
H909   H     0.04843   0.90049   0.31151   0.00000  Uiso   1.00
H910   H     0.19770   0.77349   0.39649   0.00000  Uiso   1.00
H911   H     0.33288   0.98764   0.28495   0.00000  Uiso   1.00
H912   H     0.30780   0.93448   0.29630   0.00000  Uiso   1.00
H913   H     0.00357   0.93116   0.37316   0.00000  Uiso   1.00
H914   H     0.30991   0.98385   0.36380   0.00000  Uiso   1.00
H915   H     0.03248   0.98280   0.36396   0.00000  Uiso   1.00
H916   H     0.11812   0.89028   0.38046   0.00000  Uiso   1.00
H917   H     0.13231   0.76546   0.11466   0.00000  Uiso   1.00
H918   H     0.21569   0.88751   0.48939   0.00000  Uiso   1.00
N919   N     0.16667   0.95240   0.25000   0.00000  Uiso   1.00
N920   N     0.16667   0.71427   0.25000   0.00000  Uiso   1.00
O921   O     0.10559   0.87154   0.25000   0.00000  Uiso   1.00
O922   O     0.18913   0.76393   0.48281   0.00000  Uiso   1.00
O923   O     0.09674   0.89432   0.46471   0.00000  Uiso   1.00
O924   O     0.11534   0.75712   0.02887   0.00000  Uiso   1.00
O925   O     0.03972   0.75078   0.23520   0.00000  Uiso   1.00
O926   O     0.29071   0.91028   0.21342   0.00000  Uiso   1.00
O927   O     0.29540   0.75351   0.27029   0.00000  Uiso   1.00
O928   O     0.03838   0.91708   0.24234   0.00000  Uiso   1.00
O929   O     0.22774   0.79513   0.25001   0.00000  Uiso   1.00
O930   O     0.22774   0.87154   0.25001   0.00000  Uiso   1.00
O931   O     0.10559   0.79513   0.25000   0.00000  Uiso   1.00
O932   O     0.16666   0.87155   0.18453   0.00000  Uiso   1.00
O933   O     0.16667   0.79511   0.31547   0.00000  Uiso   1.00
O934   O     0.16667   0.87155   0.31547   0.00000  Uiso   1.00
O935   O     0.16666   0.79511   0.18453   0.00000  Uiso   1.00
O936   O     0.16360   0.91324   0.02030   0.00000  Uiso   1.00
Zn937  Zn    0.16667   0.88437   0.25000   0.00000  Uiso   1.00
Zn938  Zn    0.16667   0.78229   0.25000   0.00000  Uiso   1.00
C939   C     0.41985   0.83345   0.24782   0.00000  Uiso   1.00
C940   C     0.64447   0.87263   0.23131   0.00000  Uiso   1.00
C941   C     0.64629   0.79272   0.25330   0.00000  Uiso   1.00
C942   C     0.35320   0.87484   0.23943   0.00000  Uiso   1.00
C943   C     0.48917   0.87409   0.04476   0.00000  Uiso   1.00
C944   C     0.50457   0.79856   0.45708   0.00000  Uiso   1.00
C945   C     0.45693   0.86291   0.44714   0.00000  Uiso   1.00
C946   C     0.46254   0.79643   0.04941   0.00000  Uiso   1.00
C947   C     0.49634   0.87371   0.09101   0.00000  Uiso   1.00
C948   C     0.51107   0.79893   0.41098   0.00000  Uiso   1.00
C949   C     0.46623   0.86475   0.40184   0.00000  Uiso   1.00
C950   C     0.57998   0.83324   0.24869   0.00000  Uiso   1.00
C951   C     0.47197   0.79590   0.09529   0.00000  Uiso   1.00
C952   C     0.48972   0.83403   0.11575   0.00000  Uiso   1.00
C953   C     0.49319   0.83287   0.38398   0.00000  Uiso   1.00
C954   C     0.47334   0.83471   0.02374   0.00000  Uiso   1.00
C955   C     0.47693   0.83076   0.47519   0.00000  Uiso   1.00
C956   C     0.62388   0.83289   0.24465   0.00000  Uiso   1.00
C957   C     0.37553   0.83362   0.24318   0.00000  Uiso   1.00
C958   C     0.53956   0.91599   0.01151   0.00000  Uiso   1.00
C959   C     0.54787   0.96077   0.48704   0.00000  Uiso   1.00
C960   C     0.59312   0.96485   0.47425   0.00000  Uiso   1.00
C961   C     0.49829   0.83348   0.16363   0.00000  Uiso   1.00
C962   C     0.55606   0.78034   0.00933   0.00000  Uiso   1.00
C963   C     0.59551   0.78333   0.48210   0.00000  Uiso   1.00
C964   C     0.63065   0.80294   0.01081   0.00000  Uiso   1.00
C965   C     0.38932   0.87867   0.45764   0.00000  Uiso   1.00
C966   C     0.36051   0.90421   0.48876   0.00000  Uiso   1.00
C967   C     0.37107   0.89447   0.03842   0.00000  Uiso   1.00
C968   C     0.40574   0.75238   0.03513   0.00000  Uiso   1.00
C969   C     0.39542   0.70189   0.03868   0.00000  Uiso   1.00
C970   C     0.34899   0.69445   0.04227   0.00000  Uiso   1.00
C971   C     0.36880   0.74159   0.18836   0.00000  Uiso   1.00
C972   C     0.49963   0.83320   0.33630   0.00000  Uiso   1.00
C973   C     0.37107   0.69053   0.18000   0.00000  Uiso   1.00
C974   C     0.41397   0.67148   0.18979   0.00000  Uiso   1.00
C975   C     0.61143   0.90141   0.16806   0.00000  Uiso   1.00
C976   C     0.62693   0.93886   0.13673   0.00000  Uiso   1.00
C977   C     0.60527   0.98419   0.14432   0.00000  Uiso   1.00
C978   C     0.62598   0.75717   0.31793   0.00000  Uiso   1.00
C979   C     0.33527   0.75419   0.34197   0.00000  Uiso   1.00
C980   C     0.66466   0.75227   0.39314   0.00000  Uiso   1.00
C981   C     0.37474   0.92981   0.28847   0.00000  Uiso   1.00
C982   C     0.33582   0.95492   0.30360   0.00000  Uiso   1.00
C983   C     0.48675   0.69050   0.28665   0.00000  Uiso   1.00
C984   C     0.33742   0.96379   0.35429   0.00000  Uiso   1.00
C985   C     0.51370   0.97615   0.21363   0.00000  Uiso   1.00
C986   C     0.51412   0.69080   0.21377   0.00000  Uiso   1.00
C987   C     0.48692   0.97585   0.28672   0.00000  Uiso   1.00
C988   C     0.35419   0.79210   0.24302   0.00000  Uiso   1.00
H989   H     0.47577   0.70850   0.31579   0.00000  Uiso   1.00
H990   H     0.55843   0.91509   0.04341   0.00000  Uiso   1.00
H991   H     0.52823   0.96285   0.45585   0.00000  Uiso   1.00
H992   H     0.53970   0.98959   0.00926   0.00000  Uiso   1.00
H993   H     0.61335   0.96263   0.00491   0.00000  Uiso   1.00
H994   H     0.59831   0.99805   0.45743   0.00000  Uiso   1.00
H995   H     0.60142   0.93742   0.45049   0.00000  Uiso   1.00
H996   H     0.56140   0.75594   0.03760   0.00000  Uiso   1.00
H997   H     0.54989   0.81357   0.02519   0.00000  Uiso   1.00
H998   H     0.60414   0.74893   0.47037   0.00000  Uiso   1.00
H999   H     0.59039   0.80573   0.45222   0.00000  Uiso   1.00
H1000  H     0.52395   0.95801   0.18437   0.00000  Uiso   1.00
H1001  H     0.62268   0.83776   0.02193   0.00000  Uiso   1.00
H1002  H     0.65895   0.80445   0.49053   0.00000  Uiso   1.00
H1003  H     0.63672   0.78149   0.04111   0.00000  Uiso   1.00
H1004  H     0.38625   0.84157   0.46462   0.00000  Uiso   1.00
H1005  H     0.37943   0.88523   0.42204   0.00000  Uiso   1.00
H1006  H     0.36272   0.94128   0.48206   0.00000  Uiso   1.00
H1007  H     0.66159   0.89358   0.48129   0.00000  Uiso   1.00
H1008  H     0.37174   0.85733   0.04513   0.00000  Uiso   1.00
H1009  H     0.34737   0.90995   0.05994   0.00000  Uiso   1.00
H1010  H     0.40158   0.90920   0.04777   0.00000  Uiso   1.00
H1011  H     0.52519   0.70904   0.18466   0.00000  Uiso   1.00
H1012  H     0.38927   0.76711   0.00524   0.00000  Uiso   1.00
H1013  H     0.39433   0.76949   0.06610   0.00000  Uiso   1.00
H1014  H     0.40671   0.68384   0.00846   0.00000  Uiso   1.00
H1015  H     0.41128   0.68730   0.06911   0.00000  Uiso   1.00
H1016  H     0.33661   0.71401   0.07092   0.00000  Uiso   1.00
H1017  H     0.34270   0.99133   0.04834   0.00000  Uiso   1.00
H1018  H     0.66624   0.70510   0.01045   0.00000  Uiso   1.00
H1019  H     0.39367   0.75918   0.16969   0.00000  Uiso   1.00
H1020  H     0.33842   0.75313   0.17365   0.00000  Uiso   1.00
H1021  H     0.34834   0.67275   0.20138   0.00000  Uiso   1.00
H1022  H     0.47625   0.95760   0.31600   0.00000  Uiso   1.00
H1023  H     0.36302   0.68391   0.14405   0.00000  Uiso   1.00
H1024  H     0.43701   0.68932   0.16891   0.00000  Uiso   1.00
H1025  H     0.41470   0.96812   0.18144   0.00000  Uiso   1.00
H1026  H     0.42180   0.67552   0.22610   0.00000  Uiso   1.00
H1027  H     0.57719   0.90028   0.16588   0.00000  Uiso   1.00
H1028  H     0.62273   0.86833   0.15455   0.00000  Uiso   1.00
H1029  H     0.66081   0.94277   0.14189   0.00000  Uiso   1.00
H1030  H     0.62101   0.92863   0.10115   0.00000  Uiso   1.00
H1031  H     0.57250   0.98207   0.13282   0.00000  Uiso   1.00
H1032  H     0.62031   0.67778   0.12417   0.00000  Uiso   1.00
H1033  H     0.50849   0.90396   0.10712   0.00000  Uiso   1.00
H1034  H     0.60688   0.99383   0.18050   0.00000  Uiso   1.00
H1035  H     0.60671   0.72846   0.32972   0.00000  Uiso   1.00
H1036  H     0.60971   0.78883   0.32795   0.00000  Uiso   1.00
H1037  H     0.35205   0.72373   0.33027   0.00000  Uiso   1.00
H1038  H     0.35400   0.78456   0.33379   0.00000  Uiso   1.00
H1039  H     0.65064   0.78428   0.40520   0.00000  Uiso   1.00
H1040  H     0.36242   0.74843   0.40927   0.00000  Uiso   1.00
H1041  H     0.64527   0.72308   0.40334   0.00000  Uiso   1.00
H1042  H     0.40124   0.95338   0.29222   0.00000  Uiso   1.00
H1043  H     0.38176   0.90049   0.31151   0.00000  Uiso   1.00
H1044  H     0.53103   0.77349   0.39649   0.00000  Uiso   1.00
H1045  H     0.66622   0.98764   0.28495   0.00000  Uiso   1.00
H1046  H     0.64113   0.93448   0.29630   0.00000  Uiso   1.00
H1047  H     0.33691   0.93116   0.37316   0.00000  Uiso   1.00
H1048  H     0.64324   0.98385   0.36380   0.00000  Uiso   1.00
H1049  H     0.36582   0.98280   0.36396   0.00000  Uiso   1.00
H1050  H     0.45145   0.89028   0.38046   0.00000  Uiso   1.00
H1051  H     0.46564   0.76546   0.11466   0.00000  Uiso   1.00
H1052  H     0.54902   0.88751   0.48939   0.00000  Uiso   1.00
N1053  N     0.50000   0.95240   0.25000   0.00000  Uiso   1.00
N1054  N     0.50000   0.71427   0.25000   0.00000  Uiso   1.00
O1055  O     0.43892   0.87154   0.25000   0.00000  Uiso   1.00
O1056  O     0.52246   0.76393   0.48281   0.00000  Uiso   1.00
O1057  O     0.43007   0.89432   0.46471   0.00000  Uiso   1.00
O1058  O     0.44868   0.75712   0.02887   0.00000  Uiso   1.00
O1059  O     0.37305   0.75078   0.23520   0.00000  Uiso   1.00
O1060  O     0.62405   0.91028   0.21342   0.00000  Uiso   1.00
O1061  O     0.62873   0.75351   0.27029   0.00000  Uiso   1.00
O1062  O     0.37171   0.91708   0.24234   0.00000  Uiso   1.00
O1063  O     0.56108   0.79513   0.25001   0.00000  Uiso   1.00
O1064  O     0.56108   0.87154   0.25001   0.00000  Uiso   1.00
O1065  O     0.43892   0.79513   0.25000   0.00000  Uiso   1.00
O1066  O     0.50000   0.87155   0.18453   0.00000  Uiso   1.00
O1067  O     0.50000   0.79511   0.31547   0.00000  Uiso   1.00
O1068  O     0.50000   0.87155   0.31547   0.00000  Uiso   1.00
O1069  O     0.50000   0.79511   0.18453   0.00000  Uiso   1.00
O1070  O     0.49693   0.91324   0.02030   0.00000  Uiso   1.00
Zn1071 Zn    0.50000   0.88437   0.25000   0.00000  Uiso   1.00
Zn1072 Zn    0.50000   0.78229   0.25000   0.00000  Uiso   1.00
C1073  C     0.75318   0.83345   0.24782   0.00000  Uiso   1.00
C1074  C     0.97780   0.87263   0.23131   0.00000  Uiso   1.00
C1075  C     0.97962   0.79272   0.25330   0.00000  Uiso   1.00
C1076  C     0.68654   0.87484   0.23943   0.00000  Uiso   1.00
C1077  C     0.82250   0.87409   0.04476   0.00000  Uiso   1.00
C1078  C     0.83790   0.79856   0.45708   0.00000  Uiso   1.00
C1079  C     0.79027   0.86291   0.44714   0.00000  Uiso   1.00
C1080  C     0.79587   0.79643   0.04941   0.00000  Uiso   1.00
C1081  C     0.82968   0.87371   0.09101   0.00000  Uiso   1.00
C1082  C     0.84441   0.79893   0.41098   0.00000  Uiso   1.00
C1083  C     0.79957   0.86475   0.40184   0.00000  Uiso   1.00
C1084  C     0.91331   0.83324   0.24869   0.00000  Uiso   1.00
C1085  C     0.80531   0.79590   0.09529   0.00000  Uiso   1.00
C1086  C     0.82305   0.83403   0.11575   0.00000  Uiso   1.00
C1087  C     0.82652   0.83287   0.38398   0.00000  Uiso   1.00
C1088  C     0.80667   0.83471   0.02374   0.00000  Uiso   1.00
C1089  C     0.81026   0.83076   0.47519   0.00000  Uiso   1.00
C1090  C     0.95722   0.83289   0.24465   0.00000  Uiso   1.00
C1091  C     0.70887   0.83362   0.24318   0.00000  Uiso   1.00
C1092  C     0.87289   0.91599   0.01151   0.00000  Uiso   1.00
C1093  C     0.88121   0.96077   0.48704   0.00000  Uiso   1.00
C1094  C     0.92646   0.96485   0.47425   0.00000  Uiso   1.00
C1095  C     0.83163   0.83348   0.16363   0.00000  Uiso   1.00
C1096  C     0.88939   0.78034   0.00933   0.00000  Uiso   1.00
C1097  C     0.92884   0.78333   0.48210   0.00000  Uiso   1.00
C1098  C     0.96399   0.80294   0.01081   0.00000  Uiso   1.00
C1099  C     0.72265   0.87867   0.45764   0.00000  Uiso   1.00
C1100  C     0.69384   0.90421   0.48876   0.00000  Uiso   1.00
C1101  C     0.70440   0.89447   0.03842   0.00000  Uiso   1.00
C1102  C     0.73908   0.75238   0.03513   0.00000  Uiso   1.00
C1103  C     0.72875   0.70189   0.03868   0.00000  Uiso   1.00
C1104  C     0.68232   0.69445   0.04227   0.00000  Uiso   1.00
C1105  C     0.70213   0.74159   0.18836   0.00000  Uiso   1.00
C1106  C     0.83296   0.83320   0.33630   0.00000  Uiso   1.00
C1107  C     0.70440   0.69053   0.18000   0.00000  Uiso   1.00
C1108  C     0.74730   0.67148   0.18979   0.00000  Uiso   1.00
C1109  C     0.94476   0.90141   0.16806   0.00000  Uiso   1.00
C1110  C     0.96026   0.93886   0.13673   0.00000  Uiso   1.00
C1111  C     0.93860   0.98419   0.14432   0.00000  Uiso   1.00
C1112  C     0.95931   0.75717   0.31793   0.00000  Uiso   1.00
C1113  C     0.66860   0.75419   0.34197   0.00000  Uiso   1.00
C1114  C     0.99799   0.75227   0.39314   0.00000  Uiso   1.00
C1115  C     0.70808   0.92981   0.28847   0.00000  Uiso   1.00
C1116  C     0.66915   0.95492   0.30360   0.00000  Uiso   1.00
C1117  C     0.82008   0.69050   0.28665   0.00000  Uiso   1.00
C1118  C     0.67076   0.96379   0.35429   0.00000  Uiso   1.00
C1119  C     0.84703   0.97615   0.21363   0.00000  Uiso   1.00
C1120  C     0.84746   0.69080   0.21377   0.00000  Uiso   1.00
C1121  C     0.82025   0.97585   0.28672   0.00000  Uiso   1.00
C1122  C     0.68752   0.79210   0.24302   0.00000  Uiso   1.00
H1123  H     0.80910   0.70850   0.31579   0.00000  Uiso   1.00
H1124  H     0.89176   0.91509   0.04341   0.00000  Uiso   1.00
H1125  H     0.86156   0.96285   0.45585   0.00000  Uiso   1.00
H1126  H     0.87303   0.98959   0.00926   0.00000  Uiso   1.00
H1127  H     0.94668   0.96263   0.00491   0.00000  Uiso   1.00
H1128  H     0.93164   0.99805   0.45743   0.00000  Uiso   1.00
H1129  H     0.93475   0.93742   0.45049   0.00000  Uiso   1.00
H1130  H     0.89473   0.75594   0.03760   0.00000  Uiso   1.00
H1131  H     0.88322   0.81357   0.02519   0.00000  Uiso   1.00
H1132  H     0.93747   0.74893   0.47037   0.00000  Uiso   1.00
H1133  H     0.92372   0.80573   0.45222   0.00000  Uiso   1.00
H1134  H     0.85728   0.95801   0.18437   0.00000  Uiso   1.00
H1135  H     0.95601   0.83776   0.02193   0.00000  Uiso   1.00
H1136  H     0.99228   0.80445   0.49053   0.00000  Uiso   1.00
H1137  H     0.97005   0.78149   0.04111   0.00000  Uiso   1.00
H1138  H     0.71958   0.84157   0.46462   0.00000  Uiso   1.00
H1139  H     0.71276   0.88523   0.42204   0.00000  Uiso   1.00
H1140  H     0.69606   0.94128   0.48206   0.00000  Uiso   1.00
H1141  H     0.99492   0.89358   0.48129   0.00000  Uiso   1.00
H1142  H     0.70507   0.85733   0.04513   0.00000  Uiso   1.00
H1143  H     0.68070   0.90995   0.05994   0.00000  Uiso   1.00
H1144  H     0.73491   0.90920   0.04777   0.00000  Uiso   1.00
H1145  H     0.85852   0.70904   0.18466   0.00000  Uiso   1.00
H1146  H     0.72260   0.76711   0.00524   0.00000  Uiso   1.00
H1147  H     0.72766   0.76949   0.06610   0.00000  Uiso   1.00
H1148  H     0.74005   0.68384   0.00846   0.00000  Uiso   1.00
H1149  H     0.74462   0.68730   0.06911   0.00000  Uiso   1.00
H1150  H     0.66994   0.71401   0.07092   0.00000  Uiso   1.00
H1151  H     0.67604   0.99133   0.04834   0.00000  Uiso   1.00
H1152  H     0.99958   0.70510   0.01045   0.00000  Uiso   1.00
H1153  H     0.72700   0.75918   0.16969   0.00000  Uiso   1.00
H1154  H     0.67175   0.75313   0.17365   0.00000  Uiso   1.00
H1155  H     0.68167   0.67275   0.20138   0.00000  Uiso   1.00
H1156  H     0.80958   0.95760   0.31600   0.00000  Uiso   1.00
H1157  H     0.69635   0.68391   0.14405   0.00000  Uiso   1.00
H1158  H     0.77034   0.68932   0.16891   0.00000  Uiso   1.00
H1159  H     0.74804   0.96812   0.18144   0.00000  Uiso   1.00
H1160  H     0.75514   0.67552   0.22610   0.00000  Uiso   1.00
H1161  H     0.91053   0.90028   0.16588   0.00000  Uiso   1.00
H1162  H     0.95606   0.86833   0.15455   0.00000  Uiso   1.00
H1163  H     0.99415   0.94277   0.14189   0.00000  Uiso   1.00
H1164  H     0.95434   0.92863   0.10115   0.00000  Uiso   1.00
H1165  H     0.90584   0.98207   0.13282   0.00000  Uiso   1.00
H1166  H     0.95364   0.67778   0.12417   0.00000  Uiso   1.00
H1167  H     0.84183   0.90396   0.10712   0.00000  Uiso   1.00
H1168  H     0.94022   0.99383   0.18050   0.00000  Uiso   1.00
H1169  H     0.94004   0.72846   0.32972   0.00000  Uiso   1.00
H1170  H     0.94304   0.78883   0.32795   0.00000  Uiso   1.00
H1171  H     0.68538   0.72373   0.33027   0.00000  Uiso   1.00
H1172  H     0.68734   0.78456   0.33379   0.00000  Uiso   1.00
H1173  H     0.98398   0.78428   0.40520   0.00000  Uiso   1.00
H1174  H     0.69576   0.74843   0.40927   0.00000  Uiso   1.00
H1175  H     0.97861   0.72308   0.40334   0.00000  Uiso   1.00
H1176  H     0.73457   0.95338   0.29222   0.00000  Uiso   1.00
H1177  H     0.71510   0.90049   0.31151   0.00000  Uiso   1.00
H1178  H     0.86437   0.77349   0.39649   0.00000  Uiso   1.00
H1179  H     0.99955   0.98764   0.28495   0.00000  Uiso   1.00
H1180  H     0.97447   0.93448   0.29630   0.00000  Uiso   1.00
H1181  H     0.67024   0.93116   0.37316   0.00000  Uiso   1.00
H1182  H     0.97658   0.98385   0.36380   0.00000  Uiso   1.00
H1183  H     0.69915   0.98280   0.36396   0.00000  Uiso   1.00
H1184  H     0.78478   0.89028   0.38046   0.00000  Uiso   1.00
H1185  H     0.79897   0.76546   0.11466   0.00000  Uiso   1.00
H1186  H     0.88236   0.88751   0.48939   0.00000  Uiso   1.00
N1187  N     0.83333   0.95240   0.25000   0.00000  Uiso   1.00
N1188  N     0.83333   0.71427   0.25000   0.00000  Uiso   1.00
O1189  O     0.77226   0.87154   0.25000   0.00000  Uiso   1.00
O1190  O     0.85580   0.76393   0.48281   0.00000  Uiso   1.00
O1191  O     0.76341   0.89432   0.46471   0.00000  Uiso   1.00
O1192  O     0.78201   0.75712   0.02887   0.00000  Uiso   1.00
O1193  O     0.70639   0.75078   0.23520   0.00000  Uiso   1.00
O1194  O     0.95738   0.91028   0.21342   0.00000  Uiso   1.00
O1195  O     0.96207   0.75351   0.27029   0.00000  Uiso   1.00
O1196  O     0.70504   0.91708   0.24234   0.00000  Uiso   1.00
O1197  O     0.89441   0.79513   0.25001   0.00000  Uiso   1.00
O1198  O     0.89441   0.87154   0.25001   0.00000  Uiso   1.00
O1199  O     0.77226   0.79513   0.25000   0.00000  Uiso   1.00
O1200  O     0.83333   0.87155   0.18453   0.00000  Uiso   1.00
O1201  O     0.83334   0.79511   0.31547   0.00000  Uiso   1.00
O1202  O     0.83334   0.87155   0.31547   0.00000  Uiso   1.00
O1203  O     0.83333   0.79511   0.18453   0.00000  Uiso   1.00
O1204  O     0.83026   0.91324   0.02030   0.00000  Uiso   1.00
Zn1205 Zn    0.83333   0.88437   0.25000   0.00000  Uiso   1.00
Zn1206 Zn    0.83333   0.78229   0.25000   0.00000  Uiso   1.00
C1207  C     0.08651   0.16679   0.74782   0.00000  Uiso   1.00
C1208  C     0.31113   0.20596   0.73131   0.00000  Uiso   1.00
C1209  C     0.31295   0.12606   0.75330   0.00000  Uiso   1.00
C1210  C     0.01987   0.20818   0.73943   0.00000  Uiso   1.00
C1211  C     0.15583   0.20742   0.54476   0.00000  Uiso   1.00
C1212  C     0.17123   0.13189   0.95708   0.00000  Uiso   1.00
C1213  C     0.12360   0.19624   0.94714   0.00000  Uiso   1.00
C1214  C     0.12920   0.12977   0.54941   0.00000  Uiso   1.00
C1215  C     0.16301   0.20704   0.59101   0.00000  Uiso   1.00
C1216  C     0.17774   0.13226   0.91098   0.00000  Uiso   1.00
C1217  C     0.13290   0.19808   0.90184   0.00000  Uiso   1.00
C1218  C     0.24664   0.16657   0.74869   0.00000  Uiso   1.00
C1219  C     0.13864   0.12924   0.59529   0.00000  Uiso   1.00
C1220  C     0.15639   0.16737   0.61575   0.00000  Uiso   1.00
C1221  C     0.15986   0.16621   0.88398   0.00000  Uiso   1.00
C1222  C     0.14000   0.16804   0.52374   0.00000  Uiso   1.00
C1223  C     0.14360   0.16410   0.97519   0.00000  Uiso   1.00
C1224  C     0.29055   0.16622   0.74465   0.00000  Uiso   1.00
C1225  C     0.04220   0.16695   0.74318   0.00000  Uiso   1.00
C1226  C     0.20622   0.24932   0.51151   0.00000  Uiso   1.00
C1227  C     0.21454   0.29410   0.98704   0.00000  Uiso   1.00
C1228  C     0.25979   0.29818   0.97425   0.00000  Uiso   1.00
C1229  C     0.16496   0.16682   0.66363   0.00000  Uiso   1.00
C1230  C     0.22273   0.11367   0.50933   0.00000  Uiso   1.00
C1231  C     0.26217   0.11666   0.98210   0.00000  Uiso   1.00
C1232  C     0.29732   0.13627   0.51081   0.00000  Uiso   1.00
C1233  C     0.05599   0.21200   0.95764   0.00000  Uiso   1.00
C1234  C     0.02718   0.23754   0.98876   0.00000  Uiso   1.00
C1235  C     0.03773   0.22780   0.53842   0.00000  Uiso   1.00
C1236  C     0.07241   0.08571   0.53513   0.00000  Uiso   1.00
C1237  C     0.06209   0.03522   0.53868   0.00000  Uiso   1.00
C1238  C     0.01565   0.02778   0.54227   0.00000  Uiso   1.00
C1239  C     0.03547   0.07493   0.68836   0.00000  Uiso   1.00
C1240  C     0.16630   0.16653   0.83630   0.00000  Uiso   1.00
C1241  C     0.03773   0.02386   0.68000   0.00000  Uiso   1.00
C1242  C     0.08063   0.00481   0.68979   0.00000  Uiso   1.00
C1243  C     0.27809   0.23474   0.66806   0.00000  Uiso   1.00
C1244  C     0.29360   0.27219   0.63673   0.00000  Uiso   1.00
C1245  C     0.27194   0.31753   0.64432   0.00000  Uiso   1.00
C1246  C     0.29264   0.09050   0.81793   0.00000  Uiso   1.00
C1247  C     0.00193   0.08753   0.84197   0.00000  Uiso   1.00
C1248  C     0.33132   0.08560   0.89314   0.00000  Uiso   1.00
C1249  C     0.04141   0.26314   0.78847   0.00000  Uiso   1.00
C1250  C     0.00248   0.28825   0.80360   0.00000  Uiso   1.00
C1251  C     0.15341   0.02383   0.78665   0.00000  Uiso   1.00
C1252  C     0.00409   0.29713   0.85429   0.00000  Uiso   1.00
C1253  C     0.18037   0.30948   0.71363   0.00000  Uiso   1.00
C1254  C     0.18079   0.02413   0.71377   0.00000  Uiso   1.00
C1255  C     0.15358   0.30918   0.78672   0.00000  Uiso   1.00
C1256  C     0.02086   0.12543   0.74302   0.00000  Uiso   1.00
H1257  H     0.14244   0.04183   0.81579   0.00000  Uiso   1.00
H1258  H     0.22510   0.24843   0.54341   0.00000  Uiso   1.00
H1259  H     0.19489   0.29618   0.95585   0.00000  Uiso   1.00
H1260  H     0.20636   0.32292   0.50926   0.00000  Uiso   1.00
H1261  H     0.28002   0.29596   0.50491   0.00000  Uiso   1.00
H1262  H     0.26498   0.33139   0.95743   0.00000  Uiso   1.00
H1263  H     0.26809   0.27075   0.95049   0.00000  Uiso   1.00
H1264  H     0.22807   0.08927   0.53760   0.00000  Uiso   1.00
H1265  H     0.21656   0.14690   0.52519   0.00000  Uiso   1.00
H1266  H     0.27080   0.08226   0.97037   0.00000  Uiso   1.00
H1267  H     0.25706   0.13906   0.95222   0.00000  Uiso   1.00
H1268  H     0.19062   0.29135   0.68437   0.00000  Uiso   1.00
H1269  H     0.28935   0.17109   0.52193   0.00000  Uiso   1.00
H1270  H     0.32561   0.13779   0.99053   0.00000  Uiso   1.00
H1271  H     0.30339   0.11482   0.54111   0.00000  Uiso   1.00
H1272  H     0.05291   0.17490   0.96462   0.00000  Uiso   1.00
H1273  H     0.04610   0.21856   0.92204   0.00000  Uiso   1.00
H1274  H     0.02939   0.27461   0.98206   0.00000  Uiso   1.00
H1275  H     0.32825   0.22691   0.98129   0.00000  Uiso   1.00
H1276  H     0.03841   0.19067   0.54513   0.00000  Uiso   1.00
H1277  H     0.01403   0.24328   0.55994   0.00000  Uiso   1.00
H1278  H     0.06825   0.24253   0.54777   0.00000  Uiso   1.00
H1279  H     0.19185   0.04237   0.68466   0.00000  Uiso   1.00
H1280  H     0.05594   0.10044   0.50524   0.00000  Uiso   1.00
H1281  H     0.06100   0.10282   0.56610   0.00000  Uiso   1.00
H1282  H     0.07338   0.01717   0.50846   0.00000  Uiso   1.00
H1283  H     0.07795   0.02063   0.56911   0.00000  Uiso   1.00
H1284  H     0.00328   0.04734   0.57092   0.00000  Uiso   1.00
H1285  H     0.00937   0.32466   0.54834   0.00000  Uiso   1.00
H1286  H     0.33291   0.03843   0.51045   0.00000  Uiso   1.00
H1287  H     0.06034   0.09251   0.66969   0.00000  Uiso   1.00
H1288  H     0.00509   0.08646   0.67365   0.00000  Uiso   1.00
H1289  H     0.01501   0.00609   0.70138   0.00000  Uiso   1.00
H1290  H     0.14292   0.29093   0.81600   0.00000  Uiso   1.00
H1291  H     0.02968   0.01725   0.64405   0.00000  Uiso   1.00
H1292  H     0.10367   0.02266   0.66891   0.00000  Uiso   1.00
H1293  H     0.08137   0.30146   0.68144   0.00000  Uiso   1.00
H1294  H     0.08847   0.00885   0.72610   0.00000  Uiso   1.00
H1295  H     0.24386   0.23362   0.66588   0.00000  Uiso   1.00
H1296  H     0.28939   0.20166   0.65455   0.00000  Uiso   1.00
H1297  H     0.32748   0.27610   0.64189   0.00000  Uiso   1.00
H1298  H     0.28767   0.26196   0.60115   0.00000  Uiso   1.00
H1299  H     0.23917   0.31541   0.63282   0.00000  Uiso   1.00
H1300  H     0.28698   0.01111   0.62417   0.00000  Uiso   1.00
H1301  H     0.17516   0.23729   0.60712   0.00000  Uiso   1.00
H1302  H     0.27355   0.32716   0.68050   0.00000  Uiso   1.00
H1303  H     0.27338   0.06179   0.82972   0.00000  Uiso   1.00
H1304  H     0.27638   0.12216   0.82795   0.00000  Uiso   1.00
H1305  H     0.01871   0.05707   0.83027   0.00000  Uiso   1.00
H1306  H     0.02067   0.11789   0.83379   0.00000  Uiso   1.00
H1307  H     0.31731   0.11761   0.90520   0.00000  Uiso   1.00
H1308  H     0.02909   0.08176   0.90927   0.00000  Uiso   1.00
H1309  H     0.31194   0.05642   0.90334   0.00000  Uiso   1.00
H1310  H     0.06790   0.28672   0.79222   0.00000  Uiso   1.00
H1311  H     0.04843   0.23382   0.81151   0.00000  Uiso   1.00
H1312  H     0.19770   0.10683   0.89649   0.00000  Uiso   1.00
H1313  H     0.33288   0.32098   0.78495   0.00000  Uiso   1.00
H1314  H     0.30780   0.26782   0.79630   0.00000  Uiso   1.00
H1315  H     0.00357   0.26450   0.87316   0.00000  Uiso   1.00
H1316  H     0.30991   0.31718   0.86380   0.00000  Uiso   1.00
H1317  H     0.03248   0.31613   0.86396   0.00000  Uiso   1.00
H1318  H     0.11812   0.22362   0.88046   0.00000  Uiso   1.00
H1319  H     0.13231   0.09879   0.61466   0.00000  Uiso   1.00
H1320  H     0.21569   0.22085   0.98939   0.00000  Uiso   1.00
N1321  N     0.16667   0.28573   0.75000   0.00000  Uiso   1.00
N1322  N     0.16667   0.04760   0.75000   0.00000  Uiso   1.00
O1323  O     0.10559   0.20487   0.75000   0.00000  Uiso   1.00
O1324  O     0.18913   0.09726   0.98281   0.00000  Uiso   1.00
O1325  O     0.09674   0.22765   0.96471   0.00000  Uiso   1.00
O1326  O     0.11534   0.09046   0.52887   0.00000  Uiso   1.00
O1327  O     0.03972   0.08412   0.73520   0.00000  Uiso   1.00
O1328  O     0.29071   0.24361   0.71342   0.00000  Uiso   1.00
O1329  O     0.29540   0.08684   0.77029   0.00000  Uiso   1.00
O1330  O     0.03838   0.25041   0.74234   0.00000  Uiso   1.00
O1331  O     0.22774   0.12846   0.75001   0.00000  Uiso   1.00
O1332  O     0.22774   0.20487   0.75001   0.00000  Uiso   1.00
O1333  O     0.10559   0.12846   0.75000   0.00000  Uiso   1.00
O1334  O     0.16666   0.20489   0.68453   0.00000  Uiso   1.00
O1335  O     0.16667   0.12845   0.81547   0.00000  Uiso   1.00
O1336  O     0.16667   0.20489   0.81547   0.00000  Uiso   1.00
O1337  O     0.16666   0.12845   0.68453   0.00000  Uiso   1.00
O1338  O     0.16360   0.24657   0.52030   0.00000  Uiso   1.00
Zn1339 Zn    0.16667   0.21771   0.75000   0.00000  Uiso   1.00
Zn1340 Zn    0.16667   0.11563   0.75000   0.00000  Uiso   1.00
C1341  C     0.41985   0.16679   0.74782   0.00000  Uiso   1.00
C1342  C     0.64447   0.20596   0.73131   0.00000  Uiso   1.00
C1343  C     0.64629   0.12606   0.75330   0.00000  Uiso   1.00
C1344  C     0.35320   0.20818   0.73943   0.00000  Uiso   1.00
C1345  C     0.48917   0.20742   0.54476   0.00000  Uiso   1.00
C1346  C     0.50457   0.13189   0.95708   0.00000  Uiso   1.00
C1347  C     0.45693   0.19624   0.94714   0.00000  Uiso   1.00
C1348  C     0.46254   0.12977   0.54941   0.00000  Uiso   1.00
C1349  C     0.49634   0.20704   0.59101   0.00000  Uiso   1.00
C1350  C     0.51107   0.13226   0.91098   0.00000  Uiso   1.00
C1351  C     0.46623   0.19808   0.90184   0.00000  Uiso   1.00
C1352  C     0.57998   0.16657   0.74869   0.00000  Uiso   1.00
C1353  C     0.47197   0.12924   0.59529   0.00000  Uiso   1.00
C1354  C     0.48972   0.16737   0.61575   0.00000  Uiso   1.00
C1355  C     0.49319   0.16621   0.88398   0.00000  Uiso   1.00
C1356  C     0.47334   0.16804   0.52374   0.00000  Uiso   1.00
C1357  C     0.47693   0.16410   0.97519   0.00000  Uiso   1.00
C1358  C     0.62388   0.16622   0.74465   0.00000  Uiso   1.00
C1359  C     0.37553   0.16695   0.74318   0.00000  Uiso   1.00
C1360  C     0.53956   0.24932   0.51151   0.00000  Uiso   1.00
C1361  C     0.54787   0.29410   0.98704   0.00000  Uiso   1.00
C1362  C     0.59312   0.29818   0.97425   0.00000  Uiso   1.00
C1363  C     0.49829   0.16682   0.66363   0.00000  Uiso   1.00
C1364  C     0.55606   0.11367   0.50933   0.00000  Uiso   1.00
C1365  C     0.59551   0.11666   0.98210   0.00000  Uiso   1.00
C1366  C     0.63065   0.13627   0.51081   0.00000  Uiso   1.00
C1367  C     0.38932   0.21200   0.95764   0.00000  Uiso   1.00
C1368  C     0.36051   0.23754   0.98876   0.00000  Uiso   1.00
C1369  C     0.37107   0.22780   0.53842   0.00000  Uiso   1.00
C1370  C     0.40574   0.08571   0.53513   0.00000  Uiso   1.00
C1371  C     0.39542   0.03522   0.53868   0.00000  Uiso   1.00
C1372  C     0.34899   0.02778   0.54227   0.00000  Uiso   1.00
C1373  C     0.36880   0.07493   0.68836   0.00000  Uiso   1.00
C1374  C     0.49963   0.16653   0.83630   0.00000  Uiso   1.00
C1375  C     0.37107   0.02386   0.68000   0.00000  Uiso   1.00
C1376  C     0.41397   0.00481   0.68979   0.00000  Uiso   1.00
C1377  C     0.61143   0.23474   0.66806   0.00000  Uiso   1.00
C1378  C     0.62693   0.27219   0.63673   0.00000  Uiso   1.00
C1379  C     0.60527   0.31753   0.64432   0.00000  Uiso   1.00
C1380  C     0.62598   0.09050   0.81793   0.00000  Uiso   1.00
C1381  C     0.33527   0.08753   0.84197   0.00000  Uiso   1.00
C1382  C     0.66466   0.08560   0.89314   0.00000  Uiso   1.00
C1383  C     0.37474   0.26314   0.78847   0.00000  Uiso   1.00
C1384  C     0.33582   0.28825   0.80360   0.00000  Uiso   1.00
C1385  C     0.48675   0.02383   0.78665   0.00000  Uiso   1.00
C1386  C     0.33742   0.29713   0.85429   0.00000  Uiso   1.00
C1387  C     0.51370   0.30948   0.71363   0.00000  Uiso   1.00
C1388  C     0.51412   0.02413   0.71377   0.00000  Uiso   1.00
C1389  C     0.48692   0.30918   0.78672   0.00000  Uiso   1.00
C1390  C     0.35419   0.12543   0.74302   0.00000  Uiso   1.00
H1391  H     0.47577   0.04183   0.81579   0.00000  Uiso   1.00
H1392  H     0.55843   0.24843   0.54341   0.00000  Uiso   1.00
H1393  H     0.52823   0.29618   0.95585   0.00000  Uiso   1.00
H1394  H     0.53970   0.32292   0.50926   0.00000  Uiso   1.00
H1395  H     0.61335   0.29596   0.50491   0.00000  Uiso   1.00
H1396  H     0.59831   0.33139   0.95743   0.00000  Uiso   1.00
H1397  H     0.60142   0.27075   0.95049   0.00000  Uiso   1.00
H1398  H     0.56140   0.08927   0.53760   0.00000  Uiso   1.00
H1399  H     0.54989   0.14690   0.52519   0.00000  Uiso   1.00
H1400  H     0.60414   0.08226   0.97037   0.00000  Uiso   1.00
H1401  H     0.59039   0.13906   0.95222   0.00000  Uiso   1.00
H1402  H     0.52395   0.29135   0.68437   0.00000  Uiso   1.00
H1403  H     0.62268   0.17109   0.52193   0.00000  Uiso   1.00
H1404  H     0.65895   0.13779   0.99053   0.00000  Uiso   1.00
H1405  H     0.63672   0.11482   0.54111   0.00000  Uiso   1.00
H1406  H     0.38625   0.17490   0.96462   0.00000  Uiso   1.00
H1407  H     0.37943   0.21856   0.92204   0.00000  Uiso   1.00
H1408  H     0.36272   0.27461   0.98206   0.00000  Uiso   1.00
H1409  H     0.66159   0.22691   0.98129   0.00000  Uiso   1.00
H1410  H     0.37174   0.19067   0.54513   0.00000  Uiso   1.00
H1411  H     0.34737   0.24328   0.55994   0.00000  Uiso   1.00
H1412  H     0.40158   0.24253   0.54777   0.00000  Uiso   1.00
H1413  H     0.52519   0.04237   0.68466   0.00000  Uiso   1.00
H1414  H     0.38927   0.10044   0.50524   0.00000  Uiso   1.00
H1415  H     0.39433   0.10282   0.56610   0.00000  Uiso   1.00
H1416  H     0.40671   0.01717   0.50846   0.00000  Uiso   1.00
H1417  H     0.41128   0.02063   0.56911   0.00000  Uiso   1.00
H1418  H     0.33661   0.04734   0.57092   0.00000  Uiso   1.00
H1419  H     0.34270   0.32466   0.54834   0.00000  Uiso   1.00
H1420  H     0.66624   0.03843   0.51045   0.00000  Uiso   1.00
H1421  H     0.39367   0.09251   0.66969   0.00000  Uiso   1.00
H1422  H     0.33842   0.08646   0.67365   0.00000  Uiso   1.00
H1423  H     0.34834   0.00609   0.70138   0.00000  Uiso   1.00
H1424  H     0.47625   0.29093   0.81600   0.00000  Uiso   1.00
H1425  H     0.36302   0.01725   0.64405   0.00000  Uiso   1.00
H1426  H     0.43701   0.02266   0.66891   0.00000  Uiso   1.00
H1427  H     0.41470   0.30146   0.68144   0.00000  Uiso   1.00
H1428  H     0.42180   0.00885   0.72610   0.00000  Uiso   1.00
H1429  H     0.57719   0.23362   0.66588   0.00000  Uiso   1.00
H1430  H     0.62273   0.20166   0.65455   0.00000  Uiso   1.00
H1431  H     0.66081   0.27610   0.64189   0.00000  Uiso   1.00
H1432  H     0.62101   0.26196   0.60115   0.00000  Uiso   1.00
H1433  H     0.57250   0.31541   0.63282   0.00000  Uiso   1.00
H1434  H     0.62031   0.01111   0.62417   0.00000  Uiso   1.00
H1435  H     0.50849   0.23729   0.60712   0.00000  Uiso   1.00
H1436  H     0.60688   0.32716   0.68050   0.00000  Uiso   1.00
H1437  H     0.60671   0.06179   0.82972   0.00000  Uiso   1.00
H1438  H     0.60971   0.12216   0.82795   0.00000  Uiso   1.00
H1439  H     0.35205   0.05707   0.83027   0.00000  Uiso   1.00
H1440  H     0.35400   0.11789   0.83379   0.00000  Uiso   1.00
H1441  H     0.65064   0.11761   0.90520   0.00000  Uiso   1.00
H1442  H     0.36242   0.08176   0.90927   0.00000  Uiso   1.00
H1443  H     0.64527   0.05642   0.90334   0.00000  Uiso   1.00
H1444  H     0.40124   0.28672   0.79222   0.00000  Uiso   1.00
H1445  H     0.38176   0.23382   0.81151   0.00000  Uiso   1.00
H1446  H     0.53103   0.10683   0.89649   0.00000  Uiso   1.00
H1447  H     0.66622   0.32098   0.78495   0.00000  Uiso   1.00
H1448  H     0.64113   0.26782   0.79630   0.00000  Uiso   1.00
H1449  H     0.33691   0.26450   0.87316   0.00000  Uiso   1.00
H1450  H     0.64324   0.31718   0.86380   0.00000  Uiso   1.00
H1451  H     0.36582   0.31613   0.86396   0.00000  Uiso   1.00
H1452  H     0.45145   0.22362   0.88046   0.00000  Uiso   1.00
H1453  H     0.46564   0.09879   0.61466   0.00000  Uiso   1.00
H1454  H     0.54902   0.22085   0.98939   0.00000  Uiso   1.00
N1455  N     0.50000   0.28573   0.75000   0.00000  Uiso   1.00
N1456  N     0.50000   0.04760   0.75000   0.00000  Uiso   1.00
O1457  O     0.43892   0.20487   0.75000   0.00000  Uiso   1.00
O1458  O     0.52246   0.09726   0.98281   0.00000  Uiso   1.00
O1459  O     0.43007   0.22765   0.96471   0.00000  Uiso   1.00
O1460  O     0.44868   0.09046   0.52887   0.00000  Uiso   1.00
O1461  O     0.37305   0.08412   0.73520   0.00000  Uiso   1.00
O1462  O     0.62405   0.24361   0.71342   0.00000  Uiso   1.00
O1463  O     0.62873   0.08684   0.77029   0.00000  Uiso   1.00
O1464  O     0.37171   0.25041   0.74234   0.00000  Uiso   1.00
O1465  O     0.56108   0.12846   0.75001   0.00000  Uiso   1.00
O1466  O     0.56108   0.20487   0.75001   0.00000  Uiso   1.00
O1467  O     0.43892   0.12846   0.75000   0.00000  Uiso   1.00
O1468  O     0.50000   0.20489   0.68453   0.00000  Uiso   1.00
O1469  O     0.50000   0.12845   0.81547   0.00000  Uiso   1.00
O1470  O     0.50000   0.20489   0.81547   0.00000  Uiso   1.00
O1471  O     0.50000   0.12845   0.68453   0.00000  Uiso   1.00
O1472  O     0.49693   0.24657   0.52030   0.00000  Uiso   1.00
Zn1473 Zn    0.50000   0.21771   0.75000   0.00000  Uiso   1.00
Zn1474 Zn    0.50000   0.11563   0.75000   0.00000  Uiso   1.00
C1475  C     0.75318   0.16679   0.74782   0.00000  Uiso   1.00
C1476  C     0.97780   0.20596   0.73131   0.00000  Uiso   1.00
C1477  C     0.97962   0.12606   0.75330   0.00000  Uiso   1.00
C1478  C     0.68654   0.20818   0.73943   0.00000  Uiso   1.00
C1479  C     0.82250   0.20742   0.54476   0.00000  Uiso   1.00
C1480  C     0.83790   0.13189   0.95708   0.00000  Uiso   1.00
C1481  C     0.79027   0.19624   0.94714   0.00000  Uiso   1.00
C1482  C     0.79587   0.12977   0.54941   0.00000  Uiso   1.00
C1483  C     0.82968   0.20704   0.59101   0.00000  Uiso   1.00
C1484  C     0.84441   0.13226   0.91098   0.00000  Uiso   1.00
C1485  C     0.79957   0.19808   0.90184   0.00000  Uiso   1.00
C1486  C     0.91331   0.16657   0.74869   0.00000  Uiso   1.00
C1487  C     0.80531   0.12924   0.59529   0.00000  Uiso   1.00
C1488  C     0.82305   0.16737   0.61575   0.00000  Uiso   1.00
C1489  C     0.82652   0.16621   0.88398   0.00000  Uiso   1.00
C1490  C     0.80667   0.16804   0.52374   0.00000  Uiso   1.00
C1491  C     0.81026   0.16410   0.97519   0.00000  Uiso   1.00
C1492  C     0.95722   0.16622   0.74465   0.00000  Uiso   1.00
C1493  C     0.70887   0.16695   0.74318   0.00000  Uiso   1.00
C1494  C     0.87289   0.24932   0.51151   0.00000  Uiso   1.00
C1495  C     0.88121   0.29410   0.98704   0.00000  Uiso   1.00
C1496  C     0.92646   0.29818   0.97425   0.00000  Uiso   1.00
C1497  C     0.83163   0.16682   0.66363   0.00000  Uiso   1.00
C1498  C     0.88939   0.11367   0.50933   0.00000  Uiso   1.00
C1499  C     0.92884   0.11666   0.98210   0.00000  Uiso   1.00
C1500  C     0.96399   0.13627   0.51081   0.00000  Uiso   1.00
C1501  C     0.72265   0.21200   0.95764   0.00000  Uiso   1.00
C1502  C     0.69384   0.23754   0.98876   0.00000  Uiso   1.00
C1503  C     0.70440   0.22780   0.53842   0.00000  Uiso   1.00
C1504  C     0.73908   0.08571   0.53513   0.00000  Uiso   1.00
C1505  C     0.72875   0.03522   0.53868   0.00000  Uiso   1.00
C1506  C     0.68232   0.02778   0.54227   0.00000  Uiso   1.00
C1507  C     0.70213   0.07493   0.68836   0.00000  Uiso   1.00
C1508  C     0.83296   0.16653   0.83630   0.00000  Uiso   1.00
C1509  C     0.70440   0.02386   0.68000   0.00000  Uiso   1.00
C1510  C     0.74730   0.00481   0.68979   0.00000  Uiso   1.00
C1511  C     0.94476   0.23474   0.66806   0.00000  Uiso   1.00
C1512  C     0.96026   0.27219   0.63673   0.00000  Uiso   1.00
C1513  C     0.93860   0.31753   0.64432   0.00000  Uiso   1.00
C1514  C     0.95931   0.09050   0.81793   0.00000  Uiso   1.00
C1515  C     0.66860   0.08753   0.84197   0.00000  Uiso   1.00
C1516  C     0.99799   0.08560   0.89314   0.00000  Uiso   1.00
C1517  C     0.70808   0.26314   0.78847   0.00000  Uiso   1.00
C1518  C     0.66915   0.28825   0.80360   0.00000  Uiso   1.00
C1519  C     0.82008   0.02383   0.78665   0.00000  Uiso   1.00
C1520  C     0.67076   0.29713   0.85429   0.00000  Uiso   1.00
C1521  C     0.84703   0.30948   0.71363   0.00000  Uiso   1.00
C1522  C     0.84746   0.02413   0.71377   0.00000  Uiso   1.00
C1523  C     0.82025   0.30918   0.78672   0.00000  Uiso   1.00
C1524  C     0.68752   0.12543   0.74302   0.00000  Uiso   1.00
H1525  H     0.80910   0.04183   0.81579   0.00000  Uiso   1.00
H1526  H     0.89176   0.24843   0.54341   0.00000  Uiso   1.00
H1527  H     0.86156   0.29618   0.95585   0.00000  Uiso   1.00
H1528  H     0.87303   0.32292   0.50926   0.00000  Uiso   1.00
H1529  H     0.94668   0.29596   0.50491   0.00000  Uiso   1.00
H1530  H     0.93164   0.33139   0.95743   0.00000  Uiso   1.00
H1531  H     0.93475   0.27075   0.95049   0.00000  Uiso   1.00
H1532  H     0.89473   0.08927   0.53760   0.00000  Uiso   1.00
H1533  H     0.88322   0.14690   0.52519   0.00000  Uiso   1.00
H1534  H     0.93747   0.08226   0.97037   0.00000  Uiso   1.00
H1535  H     0.92372   0.13906   0.95222   0.00000  Uiso   1.00
H1536  H     0.85728   0.29135   0.68437   0.00000  Uiso   1.00
H1537  H     0.95601   0.17109   0.52193   0.00000  Uiso   1.00
H1538  H     0.99228   0.13779   0.99053   0.00000  Uiso   1.00
H1539  H     0.97005   0.11482   0.54111   0.00000  Uiso   1.00
H1540  H     0.71958   0.17490   0.96462   0.00000  Uiso   1.00
H1541  H     0.71276   0.21856   0.92204   0.00000  Uiso   1.00
H1542  H     0.69606   0.27461   0.98206   0.00000  Uiso   1.00
H1543  H     0.99492   0.22691   0.98129   0.00000  Uiso   1.00
H1544  H     0.70507   0.19067   0.54513   0.00000  Uiso   1.00
H1545  H     0.68070   0.24328   0.55994   0.00000  Uiso   1.00
H1546  H     0.73491   0.24253   0.54777   0.00000  Uiso   1.00
H1547  H     0.85852   0.04237   0.68466   0.00000  Uiso   1.00
H1548  H     0.72260   0.10044   0.50524   0.00000  Uiso   1.00
H1549  H     0.72766   0.10282   0.56610   0.00000  Uiso   1.00
H1550  H     0.74005   0.01717   0.50846   0.00000  Uiso   1.00
H1551  H     0.74462   0.02063   0.56911   0.00000  Uiso   1.00
H1552  H     0.66994   0.04734   0.57092   0.00000  Uiso   1.00
H1553  H     0.67604   0.32466   0.54834   0.00000  Uiso   1.00
H1554  H     0.99958   0.03843   0.51045   0.00000  Uiso   1.00
H1555  H     0.72700   0.09251   0.66969   0.00000  Uiso   1.00
H1556  H     0.67175   0.08646   0.67365   0.00000  Uiso   1.00
H1557  H     0.68167   0.00609   0.70138   0.00000  Uiso   1.00
H1558  H     0.80958   0.29093   0.81600   0.00000  Uiso   1.00
H1559  H     0.69635   0.01725   0.64405   0.00000  Uiso   1.00
H1560  H     0.77034   0.02266   0.66891   0.00000  Uiso   1.00
H1561  H     0.74804   0.30146   0.68144   0.00000  Uiso   1.00
H1562  H     0.75514   0.00885   0.72610   0.00000  Uiso   1.00
H1563  H     0.91053   0.23362   0.66588   0.00000  Uiso   1.00
H1564  H     0.95606   0.20166   0.65455   0.00000  Uiso   1.00
H1565  H     0.99415   0.27610   0.64189   0.00000  Uiso   1.00
H1566  H     0.95434   0.26196   0.60115   0.00000  Uiso   1.00
H1567  H     0.90584   0.31541   0.63282   0.00000  Uiso   1.00
H1568  H     0.95364   0.01111   0.62417   0.00000  Uiso   1.00
H1569  H     0.84183   0.23729   0.60712   0.00000  Uiso   1.00
H1570  H     0.94022   0.32716   0.68050   0.00000  Uiso   1.00
H1571  H     0.94004   0.06179   0.82972   0.00000  Uiso   1.00
H1572  H     0.94304   0.12216   0.82795   0.00000  Uiso   1.00
H1573  H     0.68538   0.05707   0.83027   0.00000  Uiso   1.00
H1574  H     0.68734   0.11789   0.83379   0.00000  Uiso   1.00
H1575  H     0.98398   0.11761   0.90520   0.00000  Uiso   1.00
H1576  H     0.69576   0.08176   0.90927   0.00000  Uiso   1.00
H1577  H     0.97861   0.05642   0.90334   0.00000  Uiso   1.00
H1578  H     0.73457   0.28672   0.79222   0.00000  Uiso   1.00
H1579  H     0.71510   0.23382   0.81151   0.00000  Uiso   1.00
H1580  H     0.86437   0.10683   0.89649   0.00000  Uiso   1.00
H1581  H     0.99955   0.32098   0.78495   0.00000  Uiso   1.00
H1582  H     0.97447   0.26782   0.79630   0.00000  Uiso   1.00
H1583  H     0.67024   0.26450   0.87316   0.00000  Uiso   1.00
H1584  H     0.97658   0.31718   0.86380   0.00000  Uiso   1.00
H1585  H     0.69915   0.31613   0.86396   0.00000  Uiso   1.00
H1586  H     0.78478   0.22362   0.88046   0.00000  Uiso   1.00
H1587  H     0.79897   0.09879   0.61466   0.00000  Uiso   1.00
H1588  H     0.88236   0.22085   0.98939   0.00000  Uiso   1.00
N1589  N     0.83333   0.28573   0.75000   0.00000  Uiso   1.00
N1590  N     0.83333   0.04760   0.75000   0.00000  Uiso   1.00
O1591  O     0.77226   0.20487   0.75000   0.00000  Uiso   1.00
O1592  O     0.85580   0.09726   0.98281   0.00000  Uiso   1.00
O1593  O     0.76341   0.22765   0.96471   0.00000  Uiso   1.00
O1594  O     0.78201   0.09046   0.52887   0.00000  Uiso   1.00
O1595  O     0.70639   0.08412   0.73520   0.00000  Uiso   1.00
O1596  O     0.95738   0.24361   0.71342   0.00000  Uiso   1.00
O1597  O     0.96207   0.08684   0.77029   0.00000  Uiso   1.00
O1598  O     0.70504   0.25041   0.74234   0.00000  Uiso   1.00
O1599  O     0.89441   0.12846   0.75001   0.00000  Uiso   1.00
O1600  O     0.89441   0.20487   0.75001   0.00000  Uiso   1.00
O1601  O     0.77226   0.12846   0.75000   0.00000  Uiso   1.00
O1602  O     0.83333   0.20489   0.68453   0.00000  Uiso   1.00
O1603  O     0.83334   0.12845   0.81547   0.00000  Uiso   1.00
O1604  O     0.83334   0.20489   0.81547   0.00000  Uiso   1.00
O1605  O     0.83333   0.12845   0.68453   0.00000  Uiso   1.00
O1606  O     0.83026   0.24657   0.52030   0.00000  Uiso   1.00
Zn1607 Zn    0.83333   0.21771   0.75000   0.00000  Uiso   1.00
Zn1608 Zn    0.83333   0.11563   0.75000   0.00000  Uiso   1.00
C1609  C     0.08651   0.50012   0.74782   0.00000  Uiso   1.00
C1610  C     0.31113   0.53929   0.73131   0.00000  Uiso   1.00
C1611  C     0.31295   0.45939   0.75330   0.00000  Uiso   1.00
C1612  C     0.01987   0.54151   0.73943   0.00000  Uiso   1.00
C1613  C     0.15583   0.54076   0.54476   0.00000  Uiso   1.00
C1614  C     0.17123   0.46522   0.95708   0.00000  Uiso   1.00
C1615  C     0.12360   0.52957   0.94714   0.00000  Uiso   1.00
C1616  C     0.12920   0.46310   0.54941   0.00000  Uiso   1.00
C1617  C     0.16301   0.54037   0.59101   0.00000  Uiso   1.00
C1618  C     0.17774   0.46559   0.91098   0.00000  Uiso   1.00
C1619  C     0.13290   0.53142   0.90184   0.00000  Uiso   1.00
C1620  C     0.24664   0.49991   0.74869   0.00000  Uiso   1.00
C1621  C     0.13864   0.46257   0.59529   0.00000  Uiso   1.00
C1622  C     0.15639   0.50070   0.61575   0.00000  Uiso   1.00
C1623  C     0.15986   0.49954   0.88398   0.00000  Uiso   1.00
C1624  C     0.14000   0.50138   0.52374   0.00000  Uiso   1.00
C1625  C     0.14360   0.49743   0.97519   0.00000  Uiso   1.00
C1626  C     0.29055   0.49956   0.74465   0.00000  Uiso   1.00
C1627  C     0.04220   0.50028   0.74318   0.00000  Uiso   1.00
C1628  C     0.20622   0.58266   0.51151   0.00000  Uiso   1.00
C1629  C     0.21454   0.62744   0.98704   0.00000  Uiso   1.00
C1630  C     0.25979   0.63151   0.97425   0.00000  Uiso   1.00
C1631  C     0.16496   0.50015   0.66363   0.00000  Uiso   1.00
C1632  C     0.22273   0.44701   0.50933   0.00000  Uiso   1.00
C1633  C     0.26217   0.44999   0.98210   0.00000  Uiso   1.00
C1634  C     0.29732   0.46960   0.51081   0.00000  Uiso   1.00
C1635  C     0.05599   0.54534   0.95764   0.00000  Uiso   1.00
C1636  C     0.02718   0.57088   0.98876   0.00000  Uiso   1.00
C1637  C     0.03773   0.56113   0.53842   0.00000  Uiso   1.00
C1638  C     0.07241   0.41904   0.53513   0.00000  Uiso   1.00
C1639  C     0.06209   0.36856   0.53868   0.00000  Uiso   1.00
C1640  C     0.01565   0.36111   0.54227   0.00000  Uiso   1.00
C1641  C     0.03547   0.40826   0.68836   0.00000  Uiso   1.00
C1642  C     0.16630   0.49987   0.83630   0.00000  Uiso   1.00
C1643  C     0.03773   0.35720   0.68000   0.00000  Uiso   1.00
C1644  C     0.08063   0.33814   0.68979   0.00000  Uiso   1.00
C1645  C     0.27809   0.56808   0.66806   0.00000  Uiso   1.00
C1646  C     0.29360   0.60552   0.63673   0.00000  Uiso   1.00
C1647  C     0.27194   0.65086   0.64432   0.00000  Uiso   1.00
C1648  C     0.29264   0.42383   0.81793   0.00000  Uiso   1.00
C1649  C     0.00193   0.42086   0.84197   0.00000  Uiso   1.00
C1650  C     0.33132   0.41893   0.89314   0.00000  Uiso   1.00
C1651  C     0.04141   0.59648   0.78847   0.00000  Uiso   1.00
C1652  C     0.00248   0.62158   0.80360   0.00000  Uiso   1.00
C1653  C     0.15341   0.35717   0.78665   0.00000  Uiso   1.00
C1654  C     0.00409   0.63046   0.85429   0.00000  Uiso   1.00
C1655  C     0.18037   0.64281   0.71363   0.00000  Uiso   1.00
C1656  C     0.18079   0.35747   0.71377   0.00000  Uiso   1.00
C1657  C     0.15358   0.64251   0.78672   0.00000  Uiso   1.00
C1658  C     0.02086   0.45876   0.74302   0.00000  Uiso   1.00
H1659  H     0.14244   0.37517   0.81579   0.00000  Uiso   1.00
H1660  H     0.22510   0.58176   0.54341   0.00000  Uiso   1.00
H1661  H     0.19489   0.62951   0.95585   0.00000  Uiso   1.00
H1662  H     0.20636   0.65625   0.50926   0.00000  Uiso   1.00
H1663  H     0.28002   0.62929   0.50491   0.00000  Uiso   1.00
H1664  H     0.26498   0.66472   0.95743   0.00000  Uiso   1.00
H1665  H     0.26809   0.60409   0.95049   0.00000  Uiso   1.00
H1666  H     0.22807   0.42260   0.53760   0.00000  Uiso   1.00
H1667  H     0.21656   0.48024   0.52519   0.00000  Uiso   1.00
H1668  H     0.27080   0.41559   0.97037   0.00000  Uiso   1.00
H1669  H     0.25706   0.47240   0.95222   0.00000  Uiso   1.00
H1670  H     0.19062   0.62468   0.68437   0.00000  Uiso   1.00
H1671  H     0.28935   0.50443   0.52193   0.00000  Uiso   1.00
H1672  H     0.32561   0.47112   0.99053   0.00000  Uiso   1.00
H1673  H     0.30339   0.44815   0.54111   0.00000  Uiso   1.00
H1674  H     0.05291   0.50824   0.96462   0.00000  Uiso   1.00
H1675  H     0.04610   0.55189   0.92204   0.00000  Uiso   1.00
H1676  H     0.02939   0.60794   0.98206   0.00000  Uiso   1.00
H1677  H     0.32825   0.56025   0.98129   0.00000  Uiso   1.00
H1678  H     0.03841   0.52400   0.54513   0.00000  Uiso   1.00
H1679  H     0.01403   0.57661   0.55994   0.00000  Uiso   1.00
H1680  H     0.06825   0.57587   0.54777   0.00000  Uiso   1.00
H1681  H     0.19185   0.37570   0.68466   0.00000  Uiso   1.00
H1682  H     0.05594   0.43378   0.50524   0.00000  Uiso   1.00
H1683  H     0.06100   0.43615   0.56610   0.00000  Uiso   1.00
H1684  H     0.07338   0.35050   0.50846   0.00000  Uiso   1.00
H1685  H     0.07795   0.35396   0.56911   0.00000  Uiso   1.00
H1686  H     0.00328   0.38067   0.57092   0.00000  Uiso   1.00
H1687  H     0.00937   0.65799   0.54834   0.00000  Uiso   1.00
H1688  H     0.33291   0.37177   0.51045   0.00000  Uiso   1.00
H1689  H     0.06034   0.42584   0.66969   0.00000  Uiso   1.00
H1690  H     0.00509   0.41979   0.67365   0.00000  Uiso   1.00
H1691  H     0.01501   0.33942   0.70138   0.00000  Uiso   1.00
H1692  H     0.14292   0.62426   0.81600   0.00000  Uiso   1.00
H1693  H     0.02968   0.35058   0.64405   0.00000  Uiso   1.00
H1694  H     0.10367   0.35599   0.66891   0.00000  Uiso   1.00
H1695  H     0.08137   0.63479   0.68144   0.00000  Uiso   1.00
H1696  H     0.08847   0.34219   0.72610   0.00000  Uiso   1.00
H1697  H     0.24386   0.56695   0.66588   0.00000  Uiso   1.00
H1698  H     0.28939   0.53499   0.65455   0.00000  Uiso   1.00
H1699  H     0.32748   0.60944   0.64189   0.00000  Uiso   1.00
H1700  H     0.28767   0.59529   0.60115   0.00000  Uiso   1.00
H1701  H     0.23917   0.64874   0.63282   0.00000  Uiso   1.00
H1702  H     0.28698   0.34444   0.62417   0.00000  Uiso   1.00
H1703  H     0.17516   0.57062   0.60712   0.00000  Uiso   1.00
H1704  H     0.27355   0.66050   0.68050   0.00000  Uiso   1.00
H1705  H     0.27338   0.39512   0.82972   0.00000  Uiso   1.00
H1706  H     0.27638   0.45550   0.82795   0.00000  Uiso   1.00
H1707  H     0.01871   0.39040   0.83027   0.00000  Uiso   1.00
H1708  H     0.02067   0.45123   0.83379   0.00000  Uiso   1.00
H1709  H     0.31731   0.45095   0.90520   0.00000  Uiso   1.00
H1710  H     0.02909   0.41510   0.90927   0.00000  Uiso   1.00
H1711  H     0.31194   0.38975   0.90334   0.00000  Uiso   1.00
H1712  H     0.06790   0.62005   0.79222   0.00000  Uiso   1.00
H1713  H     0.04843   0.56716   0.81151   0.00000  Uiso   1.00
H1714  H     0.19770   0.44016   0.89649   0.00000  Uiso   1.00
H1715  H     0.33288   0.65431   0.78495   0.00000  Uiso   1.00
H1716  H     0.30780   0.60115   0.79630   0.00000  Uiso   1.00
H1717  H     0.00357   0.59783   0.87316   0.00000  Uiso   1.00
H1718  H     0.30991   0.65052   0.86380   0.00000  Uiso   1.00
H1719  H     0.03248   0.64946   0.86396   0.00000  Uiso   1.00
H1720  H     0.11812   0.55695   0.88046   0.00000  Uiso   1.00
H1721  H     0.13231   0.43213   0.61466   0.00000  Uiso   1.00
H1722  H     0.21569   0.55418   0.98939   0.00000  Uiso   1.00
N1723  N     0.16667   0.61907   0.75000   0.00000  Uiso   1.00
N1724  N     0.16667   0.38093   0.75000   0.00000  Uiso   1.00
O1725  O     0.10559   0.53821   0.75000   0.00000  Uiso   1.00
O1726  O     0.18913   0.43059   0.98281   0.00000  Uiso   1.00
O1727  O     0.09674   0.56098   0.96471   0.00000  Uiso   1.00
O1728  O     0.11534   0.42379   0.52887   0.00000  Uiso   1.00
O1729  O     0.03972   0.41745   0.73520   0.00000  Uiso   1.00
O1730  O     0.29071   0.57695   0.71342   0.00000  Uiso   1.00
O1731  O     0.29540   0.42018   0.77029   0.00000  Uiso   1.00
O1732  O     0.03838   0.58374   0.74234   0.00000  Uiso   1.00
O1733  O     0.22774   0.46179   0.75001   0.00000  Uiso   1.00
O1734  O     0.22774   0.53821   0.75001   0.00000  Uiso   1.00
O1735  O     0.10559   0.46179   0.75000   0.00000  Uiso   1.00
O1736  O     0.16666   0.53822   0.68453   0.00000  Uiso   1.00
O1737  O     0.16667   0.46178   0.81547   0.00000  Uiso   1.00
O1738  O     0.16667   0.53822   0.81547   0.00000  Uiso   1.00
O1739  O     0.16666   0.46178   0.68453   0.00000  Uiso   1.00
O1740  O     0.16360   0.57990   0.52030   0.00000  Uiso   1.00
Zn1741 Zn    0.16667   0.55104   0.75000   0.00000  Uiso   1.00
Zn1742 Zn    0.16667   0.44896   0.75000   0.00000  Uiso   1.00
C1743  C     0.41985   0.50012   0.74782   0.00000  Uiso   1.00
C1744  C     0.64447   0.53929   0.73131   0.00000  Uiso   1.00
C1745  C     0.64629   0.45939   0.75330   0.00000  Uiso   1.00
C1746  C     0.35320   0.54151   0.73943   0.00000  Uiso   1.00
C1747  C     0.48917   0.54076   0.54476   0.00000  Uiso   1.00
C1748  C     0.50457   0.46522   0.95708   0.00000  Uiso   1.00
C1749  C     0.45693   0.52957   0.94714   0.00000  Uiso   1.00
C1750  C     0.46254   0.46310   0.54941   0.00000  Uiso   1.00
C1751  C     0.49634   0.54037   0.59101   0.00000  Uiso   1.00
C1752  C     0.51107   0.46559   0.91098   0.00000  Uiso   1.00
C1753  C     0.46623   0.53142   0.90184   0.00000  Uiso   1.00
C1754  C     0.57998   0.49991   0.74869   0.00000  Uiso   1.00
C1755  C     0.47197   0.46257   0.59529   0.00000  Uiso   1.00
C1756  C     0.48972   0.50070   0.61575   0.00000  Uiso   1.00
C1757  C     0.49319   0.49954   0.88398   0.00000  Uiso   1.00
C1758  C     0.47334   0.50138   0.52374   0.00000  Uiso   1.00
C1759  C     0.47693   0.49743   0.97519   0.00000  Uiso   1.00
C1760  C     0.62388   0.49956   0.74465   0.00000  Uiso   1.00
C1761  C     0.37553   0.50028   0.74318   0.00000  Uiso   1.00
C1762  C     0.53956   0.58266   0.51151   0.00000  Uiso   1.00
C1763  C     0.54787   0.62744   0.98704   0.00000  Uiso   1.00
C1764  C     0.59312   0.63151   0.97425   0.00000  Uiso   1.00
C1765  C     0.49829   0.50015   0.66363   0.00000  Uiso   1.00
C1766  C     0.55606   0.44701   0.50933   0.00000  Uiso   1.00
C1767  C     0.59551   0.44999   0.98210   0.00000  Uiso   1.00
C1768  C     0.63065   0.46960   0.51081   0.00000  Uiso   1.00
C1769  C     0.38932   0.54534   0.95764   0.00000  Uiso   1.00
C1770  C     0.36051   0.57088   0.98876   0.00000  Uiso   1.00
C1771  C     0.37107   0.56113   0.53842   0.00000  Uiso   1.00
C1772  C     0.40574   0.41904   0.53513   0.00000  Uiso   1.00
C1773  C     0.39542   0.36856   0.53868   0.00000  Uiso   1.00
C1774  C     0.34899   0.36111   0.54227   0.00000  Uiso   1.00
C1775  C     0.36880   0.40826   0.68836   0.00000  Uiso   1.00
C1776  C     0.49963   0.49987   0.83630   0.00000  Uiso   1.00
C1777  C     0.37107   0.35720   0.68000   0.00000  Uiso   1.00
C1778  C     0.41397   0.33814   0.68979   0.00000  Uiso   1.00
C1779  C     0.61143   0.56808   0.66806   0.00000  Uiso   1.00
C1780  C     0.62693   0.60552   0.63673   0.00000  Uiso   1.00
C1781  C     0.60527   0.65086   0.64432   0.00000  Uiso   1.00
C1782  C     0.62598   0.42383   0.81793   0.00000  Uiso   1.00
C1783  C     0.33527   0.42086   0.84197   0.00000  Uiso   1.00
C1784  C     0.66466   0.41893   0.89314   0.00000  Uiso   1.00
C1785  C     0.37474   0.59648   0.78847   0.00000  Uiso   1.00
C1786  C     0.33582   0.62158   0.80360   0.00000  Uiso   1.00
C1787  C     0.48675   0.35717   0.78665   0.00000  Uiso   1.00
C1788  C     0.33742   0.63046   0.85429   0.00000  Uiso   1.00
C1789  C     0.51370   0.64281   0.71363   0.00000  Uiso   1.00
C1790  C     0.51412   0.35747   0.71377   0.00000  Uiso   1.00
C1791  C     0.48692   0.64251   0.78672   0.00000  Uiso   1.00
C1792  C     0.35419   0.45876   0.74302   0.00000  Uiso   1.00
H1793  H     0.47577   0.37517   0.81579   0.00000  Uiso   1.00
H1794  H     0.55843   0.58176   0.54341   0.00000  Uiso   1.00
H1795  H     0.52823   0.62951   0.95585   0.00000  Uiso   1.00
H1796  H     0.53970   0.65625   0.50926   0.00000  Uiso   1.00
H1797  H     0.61335   0.62929   0.50491   0.00000  Uiso   1.00
H1798  H     0.59831   0.66472   0.95743   0.00000  Uiso   1.00
H1799  H     0.60142   0.60409   0.95049   0.00000  Uiso   1.00
H1800  H     0.56140   0.42260   0.53760   0.00000  Uiso   1.00
H1801  H     0.54989   0.48024   0.52519   0.00000  Uiso   1.00
H1802  H     0.60414   0.41559   0.97037   0.00000  Uiso   1.00
H1803  H     0.59039   0.47240   0.95222   0.00000  Uiso   1.00
H1804  H     0.52395   0.62468   0.68437   0.00000  Uiso   1.00
H1805  H     0.62268   0.50443   0.52193   0.00000  Uiso   1.00
H1806  H     0.65895   0.47112   0.99053   0.00000  Uiso   1.00
H1807  H     0.63672   0.44815   0.54111   0.00000  Uiso   1.00
H1808  H     0.38625   0.50824   0.96462   0.00000  Uiso   1.00
H1809  H     0.37943   0.55189   0.92204   0.00000  Uiso   1.00
H1810  H     0.36272   0.60794   0.98206   0.00000  Uiso   1.00
H1811  H     0.66159   0.56025   0.98129   0.00000  Uiso   1.00
H1812  H     0.37174   0.52400   0.54513   0.00000  Uiso   1.00
H1813  H     0.34737   0.57661   0.55994   0.00000  Uiso   1.00
H1814  H     0.40158   0.57587   0.54777   0.00000  Uiso   1.00
H1815  H     0.52519   0.37570   0.68466   0.00000  Uiso   1.00
H1816  H     0.38927   0.43378   0.50524   0.00000  Uiso   1.00
H1817  H     0.39433   0.43615   0.56610   0.00000  Uiso   1.00
H1818  H     0.40671   0.35050   0.50846   0.00000  Uiso   1.00
H1819  H     0.41128   0.35396   0.56911   0.00000  Uiso   1.00
H1820  H     0.33661   0.38067   0.57092   0.00000  Uiso   1.00
H1821  H     0.34270   0.65799   0.54834   0.00000  Uiso   1.00
H1822  H     0.66624   0.37177   0.51045   0.00000  Uiso   1.00
H1823  H     0.39367   0.42584   0.66969   0.00000  Uiso   1.00
H1824  H     0.33842   0.41979   0.67365   0.00000  Uiso   1.00
H1825  H     0.34834   0.33942   0.70138   0.00000  Uiso   1.00
H1826  H     0.47625   0.62426   0.81600   0.00000  Uiso   1.00
H1827  H     0.36302   0.35058   0.64405   0.00000  Uiso   1.00
H1828  H     0.43701   0.35599   0.66891   0.00000  Uiso   1.00
H1829  H     0.41470   0.63479   0.68144   0.00000  Uiso   1.00
H1830  H     0.42180   0.34219   0.72610   0.00000  Uiso   1.00
H1831  H     0.57719   0.56695   0.66588   0.00000  Uiso   1.00
H1832  H     0.62273   0.53499   0.65455   0.00000  Uiso   1.00
H1833  H     0.66081   0.60944   0.64189   0.00000  Uiso   1.00
H1834  H     0.62101   0.59529   0.60115   0.00000  Uiso   1.00
H1835  H     0.57250   0.64874   0.63282   0.00000  Uiso   1.00
H1836  H     0.62031   0.34444   0.62417   0.00000  Uiso   1.00
H1837  H     0.50849   0.57062   0.60712   0.00000  Uiso   1.00
H1838  H     0.60688   0.66050   0.68050   0.00000  Uiso   1.00
H1839  H     0.60671   0.39512   0.82972   0.00000  Uiso   1.00
H1840  H     0.60971   0.45550   0.82795   0.00000  Uiso   1.00
H1841  H     0.35205   0.39040   0.83027   0.00000  Uiso   1.00
H1842  H     0.35400   0.45123   0.83379   0.00000  Uiso   1.00
H1843  H     0.65064   0.45095   0.90520   0.00000  Uiso   1.00
H1844  H     0.36242   0.41510   0.90927   0.00000  Uiso   1.00
H1845  H     0.64527   0.38975   0.90334   0.00000  Uiso   1.00
H1846  H     0.40124   0.62005   0.79222   0.00000  Uiso   1.00
H1847  H     0.38176   0.56716   0.81151   0.00000  Uiso   1.00
H1848  H     0.53103   0.44016   0.89649   0.00000  Uiso   1.00
H1849  H     0.66622   0.65431   0.78495   0.00000  Uiso   1.00
H1850  H     0.64113   0.60115   0.79630   0.00000  Uiso   1.00
H1851  H     0.33691   0.59783   0.87316   0.00000  Uiso   1.00
H1852  H     0.64324   0.65052   0.86380   0.00000  Uiso   1.00
H1853  H     0.36582   0.64946   0.86396   0.00000  Uiso   1.00
H1854  H     0.45145   0.55695   0.88046   0.00000  Uiso   1.00
H1855  H     0.46564   0.43213   0.61466   0.00000  Uiso   1.00
H1856  H     0.54902   0.55418   0.98939   0.00000  Uiso   1.00
N1857  N     0.50000   0.61907   0.75000   0.00000  Uiso   1.00
N1858  N     0.50000   0.38093   0.75000   0.00000  Uiso   1.00
O1859  O     0.43892   0.53821   0.75000   0.00000  Uiso   1.00
O1860  O     0.52246   0.43059   0.98281   0.00000  Uiso   1.00
O1861  O     0.43007   0.56098   0.96471   0.00000  Uiso   1.00
O1862  O     0.44868   0.42379   0.52887   0.00000  Uiso   1.00
O1863  O     0.37305   0.41745   0.73520   0.00000  Uiso   1.00
O1864  O     0.62405   0.57695   0.71342   0.00000  Uiso   1.00
O1865  O     0.62873   0.42018   0.77029   0.00000  Uiso   1.00
O1866  O     0.37171   0.58374   0.74234   0.00000  Uiso   1.00
O1867  O     0.56108   0.46179   0.75001   0.00000  Uiso   1.00
O1868  O     0.56108   0.53821   0.75001   0.00000  Uiso   1.00
O1869  O     0.43892   0.46179   0.75000   0.00000  Uiso   1.00
O1870  O     0.50000   0.53822   0.68453   0.00000  Uiso   1.00
O1871  O     0.50000   0.46178   0.81547   0.00000  Uiso   1.00
O1872  O     0.50000   0.53822   0.81547   0.00000  Uiso   1.00
O1873  O     0.50000   0.46178   0.68453   0.00000  Uiso   1.00
O1874  O     0.49693   0.57990   0.52030   0.00000  Uiso   1.00
Zn1875 Zn    0.50000   0.55104   0.75000   0.00000  Uiso   1.00
Zn1876 Zn    0.50000   0.44896   0.75000   0.00000  Uiso   1.00
C1877  C     0.75318   0.50012   0.74782   0.00000  Uiso   1.00
C1878  C     0.97780   0.53929   0.73131   0.00000  Uiso   1.00
C1879  C     0.97962   0.45939   0.75330   0.00000  Uiso   1.00
C1880  C     0.68654   0.54151   0.73943   0.00000  Uiso   1.00
C1881  C     0.82250   0.54076   0.54476   0.00000  Uiso   1.00
C1882  C     0.83790   0.46522   0.95708   0.00000  Uiso   1.00
C1883  C     0.79027   0.52957   0.94714   0.00000  Uiso   1.00
C1884  C     0.79587   0.46310   0.54941   0.00000  Uiso   1.00
C1885  C     0.82968   0.54037   0.59101   0.00000  Uiso   1.00
C1886  C     0.84441   0.46559   0.91098   0.00000  Uiso   1.00
C1887  C     0.79957   0.53142   0.90184   0.00000  Uiso   1.00
C1888  C     0.91331   0.49991   0.74869   0.00000  Uiso   1.00
C1889  C     0.80531   0.46257   0.59529   0.00000  Uiso   1.00
C1890  C     0.82305   0.50070   0.61575   0.00000  Uiso   1.00
C1891  C     0.82652   0.49954   0.88398   0.00000  Uiso   1.00
C1892  C     0.80667   0.50138   0.52374   0.00000  Uiso   1.00
C1893  C     0.81026   0.49743   0.97519   0.00000  Uiso   1.00
C1894  C     0.95722   0.49956   0.74465   0.00000  Uiso   1.00
C1895  C     0.70887   0.50028   0.74318   0.00000  Uiso   1.00
C1896  C     0.87289   0.58266   0.51151   0.00000  Uiso   1.00
C1897  C     0.88121   0.62744   0.98704   0.00000  Uiso   1.00
C1898  C     0.92646   0.63151   0.97425   0.00000  Uiso   1.00
C1899  C     0.83163   0.50015   0.66363   0.00000  Uiso   1.00
C1900  C     0.88939   0.44701   0.50933   0.00000  Uiso   1.00
C1901  C     0.92884   0.44999   0.98210   0.00000  Uiso   1.00
C1902  C     0.96399   0.46960   0.51081   0.00000  Uiso   1.00
C1903  C     0.72265   0.54534   0.95764   0.00000  Uiso   1.00
C1904  C     0.69384   0.57088   0.98876   0.00000  Uiso   1.00
C1905  C     0.70440   0.56113   0.53842   0.00000  Uiso   1.00
C1906  C     0.73908   0.41904   0.53513   0.00000  Uiso   1.00
C1907  C     0.72875   0.36856   0.53868   0.00000  Uiso   1.00
C1908  C     0.68232   0.36111   0.54227   0.00000  Uiso   1.00
C1909  C     0.70213   0.40826   0.68836   0.00000  Uiso   1.00
C1910  C     0.83296   0.49987   0.83630   0.00000  Uiso   1.00
C1911  C     0.70440   0.35720   0.68000   0.00000  Uiso   1.00
C1912  C     0.74730   0.33814   0.68979   0.00000  Uiso   1.00
C1913  C     0.94476   0.56808   0.66806   0.00000  Uiso   1.00
C1914  C     0.96026   0.60552   0.63673   0.00000  Uiso   1.00
C1915  C     0.93860   0.65086   0.64432   0.00000  Uiso   1.00
C1916  C     0.95931   0.42383   0.81793   0.00000  Uiso   1.00
C1917  C     0.66860   0.42086   0.84197   0.00000  Uiso   1.00
C1918  C     0.99799   0.41893   0.89314   0.00000  Uiso   1.00
C1919  C     0.70808   0.59648   0.78847   0.00000  Uiso   1.00
C1920  C     0.66915   0.62158   0.80360   0.00000  Uiso   1.00
C1921  C     0.82008   0.35717   0.78665   0.00000  Uiso   1.00
C1922  C     0.67076   0.63046   0.85429   0.00000  Uiso   1.00
C1923  C     0.84703   0.64281   0.71363   0.00000  Uiso   1.00
C1924  C     0.84746   0.35747   0.71377   0.00000  Uiso   1.00
C1925  C     0.82025   0.64251   0.78672   0.00000  Uiso   1.00
C1926  C     0.68752   0.45876   0.74302   0.00000  Uiso   1.00
H1927  H     0.80910   0.37517   0.81579   0.00000  Uiso   1.00
H1928  H     0.89176   0.58176   0.54341   0.00000  Uiso   1.00
H1929  H     0.86156   0.62951   0.95585   0.00000  Uiso   1.00
H1930  H     0.87303   0.65625   0.50926   0.00000  Uiso   1.00
H1931  H     0.94668   0.62929   0.50491   0.00000  Uiso   1.00
H1932  H     0.93164   0.66472   0.95743   0.00000  Uiso   1.00
H1933  H     0.93475   0.60409   0.95049   0.00000  Uiso   1.00
H1934  H     0.89473   0.42260   0.53760   0.00000  Uiso   1.00
H1935  H     0.88322   0.48024   0.52519   0.00000  Uiso   1.00
H1936  H     0.93747   0.41559   0.97037   0.00000  Uiso   1.00
H1937  H     0.92372   0.47240   0.95222   0.00000  Uiso   1.00
H1938  H     0.85728   0.62468   0.68437   0.00000  Uiso   1.00
H1939  H     0.95601   0.50443   0.52193   0.00000  Uiso   1.00
H1940  H     0.99228   0.47112   0.99053   0.00000  Uiso   1.00
H1941  H     0.97005   0.44815   0.54111   0.00000  Uiso   1.00
H1942  H     0.71958   0.50824   0.96462   0.00000  Uiso   1.00
H1943  H     0.71276   0.55189   0.92204   0.00000  Uiso   1.00
H1944  H     0.69606   0.60794   0.98206   0.00000  Uiso   1.00
H1945  H     0.99492   0.56025   0.98129   0.00000  Uiso   1.00
H1946  H     0.70507   0.52400   0.54513   0.00000  Uiso   1.00
H1947  H     0.68070   0.57661   0.55994   0.00000  Uiso   1.00
H1948  H     0.73491   0.57587   0.54777   0.00000  Uiso   1.00
H1949  H     0.85852   0.37570   0.68466   0.00000  Uiso   1.00
H1950  H     0.72260   0.43378   0.50524   0.00000  Uiso   1.00
H1951  H     0.72766   0.43615   0.56610   0.00000  Uiso   1.00
H1952  H     0.74005   0.35050   0.50846   0.00000  Uiso   1.00
H1953  H     0.74462   0.35396   0.56911   0.00000  Uiso   1.00
H1954  H     0.66994   0.38067   0.57092   0.00000  Uiso   1.00
H1955  H     0.67604   0.65799   0.54834   0.00000  Uiso   1.00
H1956  H     0.99958   0.37177   0.51045   0.00000  Uiso   1.00
H1957  H     0.72700   0.42584   0.66969   0.00000  Uiso   1.00
H1958  H     0.67175   0.41979   0.67365   0.00000  Uiso   1.00
H1959  H     0.68167   0.33942   0.70138   0.00000  Uiso   1.00
H1960  H     0.80958   0.62426   0.81600   0.00000  Uiso   1.00
H1961  H     0.69635   0.35058   0.64405   0.00000  Uiso   1.00
H1962  H     0.77034   0.35599   0.66891   0.00000  Uiso   1.00
H1963  H     0.74804   0.63479   0.68144   0.00000  Uiso   1.00
H1964  H     0.75514   0.34219   0.72610   0.00000  Uiso   1.00
H1965  H     0.91053   0.56695   0.66588   0.00000  Uiso   1.00
H1966  H     0.95606   0.53499   0.65455   0.00000  Uiso   1.00
H1967  H     0.99415   0.60944   0.64189   0.00000  Uiso   1.00
H1968  H     0.95434   0.59529   0.60115   0.00000  Uiso   1.00
H1969  H     0.90584   0.64874   0.63282   0.00000  Uiso   1.00
H1970  H     0.95364   0.34444   0.62417   0.00000  Uiso   1.00
H1971  H     0.84183   0.57062   0.60712   0.00000  Uiso   1.00
H1972  H     0.94022   0.66050   0.68050   0.00000  Uiso   1.00
H1973  H     0.94004   0.39512   0.82972   0.00000  Uiso   1.00
H1974  H     0.94304   0.45550   0.82795   0.00000  Uiso   1.00
H1975  H     0.68538   0.39040   0.83027   0.00000  Uiso   1.00
H1976  H     0.68734   0.45123   0.83379   0.00000  Uiso   1.00
H1977  H     0.98398   0.45095   0.90520   0.00000  Uiso   1.00
H1978  H     0.69576   0.41510   0.90927   0.00000  Uiso   1.00
H1979  H     0.97861   0.38975   0.90334   0.00000  Uiso   1.00
H1980  H     0.73457   0.62005   0.79222   0.00000  Uiso   1.00
H1981  H     0.71510   0.56716   0.81151   0.00000  Uiso   1.00
H1982  H     0.86437   0.44016   0.89649   0.00000  Uiso   1.00
H1983  H     0.99955   0.65431   0.78495   0.00000  Uiso   1.00
H1984  H     0.97447   0.60115   0.79630   0.00000  Uiso   1.00
H1985  H     0.67024   0.59783   0.87316   0.00000  Uiso   1.00
H1986  H     0.97658   0.65052   0.86380   0.00000  Uiso   1.00
H1987  H     0.69915   0.64946   0.86396   0.00000  Uiso   1.00
H1988  H     0.78478   0.55695   0.88046   0.00000  Uiso   1.00
H1989  H     0.79897   0.43213   0.61466   0.00000  Uiso   1.00
H1990  H     0.88236   0.55418   0.98939   0.00000  Uiso   1.00
N1991  N     0.83333   0.61907   0.75000   0.00000  Uiso   1.00
N1992  N     0.83333   0.38093   0.75000   0.00000  Uiso   1.00
O1993  O     0.77226   0.53821   0.75000   0.00000  Uiso   1.00
O1994  O     0.85580   0.43059   0.98281   0.00000  Uiso   1.00
O1995  O     0.76341   0.56098   0.96471   0.00000  Uiso   1.00
O1996  O     0.78201   0.42379   0.52887   0.00000  Uiso   1.00
O1997  O     0.70639   0.41745   0.73520   0.00000  Uiso   1.00
O1998  O     0.95738   0.57695   0.71342   0.00000  Uiso   1.00
O1999  O     0.96207   0.42018   0.77029   0.00000  Uiso   1.00
O2000  O     0.70504   0.58374   0.74234   0.00000  Uiso   1.00
O2001  O     0.89441   0.46179   0.75001   0.00000  Uiso   1.00
O2002  O     0.89441   0.53821   0.75001   0.00000  Uiso   1.00
O2003  O     0.77226   0.46179   0.75000   0.00000  Uiso   1.00
O2004  O     0.83333   0.53822   0.68453   0.00000  Uiso   1.00
O2005  O     0.83334   0.46178   0.81547   0.00000  Uiso   1.00
O2006  O     0.83334   0.53822   0.81547   0.00000  Uiso   1.00
O2007  O     0.83333   0.46178   0.68453   0.00000  Uiso   1.00
O2008  O     0.83026   0.57990   0.52030   0.00000  Uiso   1.00
Zn2009 Zn    0.83333   0.55104   0.75000   0.00000  Uiso   1.00
Zn2010 Zn    0.83333   0.44896   0.75000   0.00000  Uiso   1.00
C2011  C     0.08651   0.83345   0.74782   0.00000  Uiso   1.00
C2012  C     0.31113   0.87263   0.73131   0.00000  Uiso   1.00
C2013  C     0.31295   0.79272   0.75330   0.00000  Uiso   1.00
C2014  C     0.01987   0.87484   0.73943   0.00000  Uiso   1.00
C2015  C     0.15583   0.87409   0.54476   0.00000  Uiso   1.00
C2016  C     0.17123   0.79856   0.95708   0.00000  Uiso   1.00
C2017  C     0.12360   0.86291   0.94714   0.00000  Uiso   1.00
C2018  C     0.12920   0.79643   0.54941   0.00000  Uiso   1.00
C2019  C     0.16301   0.87371   0.59101   0.00000  Uiso   1.00
C2020  C     0.17774   0.79893   0.91098   0.00000  Uiso   1.00
C2021  C     0.13290   0.86475   0.90184   0.00000  Uiso   1.00
C2022  C     0.24664   0.83324   0.74869   0.00000  Uiso   1.00
C2023  C     0.13864   0.79590   0.59529   0.00000  Uiso   1.00
C2024  C     0.15639   0.83403   0.61575   0.00000  Uiso   1.00
C2025  C     0.15986   0.83287   0.88398   0.00000  Uiso   1.00
C2026  C     0.14000   0.83471   0.52374   0.00000  Uiso   1.00
C2027  C     0.14360   0.83076   0.97519   0.00000  Uiso   1.00
C2028  C     0.29055   0.83289   0.74465   0.00000  Uiso   1.00
C2029  C     0.04220   0.83362   0.74318   0.00000  Uiso   1.00
C2030  C     0.20622   0.91599   0.51151   0.00000  Uiso   1.00
C2031  C     0.21454   0.96077   0.98704   0.00000  Uiso   1.00
C2032  C     0.25979   0.96485   0.97425   0.00000  Uiso   1.00
C2033  C     0.16496   0.83348   0.66363   0.00000  Uiso   1.00
C2034  C     0.22273   0.78034   0.50933   0.00000  Uiso   1.00
C2035  C     0.26217   0.78333   0.98210   0.00000  Uiso   1.00
C2036  C     0.29732   0.80294   0.51081   0.00000  Uiso   1.00
C2037  C     0.05599   0.87867   0.95764   0.00000  Uiso   1.00
C2038  C     0.02718   0.90421   0.98876   0.00000  Uiso   1.00
C2039  C     0.03773   0.89447   0.53842   0.00000  Uiso   1.00
C2040  C     0.07241   0.75238   0.53513   0.00000  Uiso   1.00
C2041  C     0.06209   0.70189   0.53868   0.00000  Uiso   1.00
C2042  C     0.01565   0.69445   0.54227   0.00000  Uiso   1.00
C2043  C     0.03547   0.74159   0.68836   0.00000  Uiso   1.00
C2044  C     0.16630   0.83320   0.83630   0.00000  Uiso   1.00
C2045  C     0.03773   0.69053   0.68000   0.00000  Uiso   1.00
C2046  C     0.08063   0.67148   0.68979   0.00000  Uiso   1.00
C2047  C     0.27809   0.90141   0.66806   0.00000  Uiso   1.00
C2048  C     0.29360   0.93886   0.63673   0.00000  Uiso   1.00
C2049  C     0.27194   0.98419   0.64432   0.00000  Uiso   1.00
C2050  C     0.29264   0.75717   0.81793   0.00000  Uiso   1.00
C2051  C     0.00193   0.75419   0.84197   0.00000  Uiso   1.00
C2052  C     0.33132   0.75227   0.89314   0.00000  Uiso   1.00
C2053  C     0.04141   0.92981   0.78847   0.00000  Uiso   1.00
C2054  C     0.00248   0.95492   0.80360   0.00000  Uiso   1.00
C2055  C     0.15341   0.69050   0.78665   0.00000  Uiso   1.00
C2056  C     0.00409   0.96379   0.85429   0.00000  Uiso   1.00
C2057  C     0.18037   0.97615   0.71363   0.00000  Uiso   1.00
C2058  C     0.18079   0.69080   0.71377   0.00000  Uiso   1.00
C2059  C     0.15358   0.97585   0.78672   0.00000  Uiso   1.00
C2060  C     0.02086   0.79210   0.74302   0.00000  Uiso   1.00
H2061  H     0.14244   0.70850   0.81579   0.00000  Uiso   1.00
H2062  H     0.22510   0.91509   0.54341   0.00000  Uiso   1.00
H2063  H     0.19489   0.96285   0.95585   0.00000  Uiso   1.00
H2064  H     0.20636   0.98959   0.50926   0.00000  Uiso   1.00
H2065  H     0.28002   0.96263   0.50491   0.00000  Uiso   1.00
H2066  H     0.26498   0.99805   0.95743   0.00000  Uiso   1.00
H2067  H     0.26809   0.93742   0.95049   0.00000  Uiso   1.00
H2068  H     0.22807   0.75594   0.53760   0.00000  Uiso   1.00
H2069  H     0.21656   0.81357   0.52519   0.00000  Uiso   1.00
H2070  H     0.27080   0.74893   0.97037   0.00000  Uiso   1.00
H2071  H     0.25706   0.80573   0.95222   0.00000  Uiso   1.00
H2072  H     0.19062   0.95801   0.68437   0.00000  Uiso   1.00
H2073  H     0.28935   0.83776   0.52193   0.00000  Uiso   1.00
H2074  H     0.32561   0.80445   0.99053   0.00000  Uiso   1.00
H2075  H     0.30339   0.78149   0.54111   0.00000  Uiso   1.00
H2076  H     0.05291   0.84157   0.96462   0.00000  Uiso   1.00
H2077  H     0.04610   0.88523   0.92204   0.00000  Uiso   1.00
H2078  H     0.02939   0.94128   0.98206   0.00000  Uiso   1.00
H2079  H     0.32825   0.89358   0.98129   0.00000  Uiso   1.00
H2080  H     0.03841   0.85733   0.54513   0.00000  Uiso   1.00
H2081  H     0.01403   0.90995   0.55994   0.00000  Uiso   1.00
H2082  H     0.06825   0.90920   0.54777   0.00000  Uiso   1.00
H2083  H     0.19185   0.70904   0.68466   0.00000  Uiso   1.00
H2084  H     0.05594   0.76711   0.50524   0.00000  Uiso   1.00
H2085  H     0.06100   0.76949   0.56610   0.00000  Uiso   1.00
H2086  H     0.07338   0.68384   0.50846   0.00000  Uiso   1.00
H2087  H     0.07795   0.68730   0.56911   0.00000  Uiso   1.00
H2088  H     0.00328   0.71401   0.57092   0.00000  Uiso   1.00
H2089  H     0.00937   0.99133   0.54834   0.00000  Uiso   1.00
H2090  H     0.33291   0.70510   0.51045   0.00000  Uiso   1.00
H2091  H     0.06034   0.75918   0.66969   0.00000  Uiso   1.00
H2092  H     0.00509   0.75313   0.67365   0.00000  Uiso   1.00
H2093  H     0.01501   0.67275   0.70138   0.00000  Uiso   1.00
H2094  H     0.14292   0.95760   0.81600   0.00000  Uiso   1.00
H2095  H     0.02968   0.68391   0.64405   0.00000  Uiso   1.00
H2096  H     0.10367   0.68932   0.66891   0.00000  Uiso   1.00
H2097  H     0.08137   0.96812   0.68144   0.00000  Uiso   1.00
H2098  H     0.08847   0.67552   0.72610   0.00000  Uiso   1.00
H2099  H     0.24386   0.90028   0.66588   0.00000  Uiso   1.00
H2100  H     0.28939   0.86833   0.65455   0.00000  Uiso   1.00
H2101  H     0.32748   0.94277   0.64189   0.00000  Uiso   1.00
H2102  H     0.28767   0.92863   0.60115   0.00000  Uiso   1.00
H2103  H     0.23917   0.98207   0.63282   0.00000  Uiso   1.00
H2104  H     0.28698   0.67778   0.62417   0.00000  Uiso   1.00
H2105  H     0.17516   0.90396   0.60712   0.00000  Uiso   1.00
H2106  H     0.27355   0.99383   0.68050   0.00000  Uiso   1.00
H2107  H     0.27338   0.72846   0.82972   0.00000  Uiso   1.00
H2108  H     0.27638   0.78883   0.82795   0.00000  Uiso   1.00
H2109  H     0.01871   0.72373   0.83027   0.00000  Uiso   1.00
H2110  H     0.02067   0.78456   0.83379   0.00000  Uiso   1.00
H2111  H     0.31731   0.78428   0.90520   0.00000  Uiso   1.00
H2112  H     0.02909   0.74843   0.90927   0.00000  Uiso   1.00
H2113  H     0.31194   0.72308   0.90334   0.00000  Uiso   1.00
H2114  H     0.06790   0.95338   0.79222   0.00000  Uiso   1.00
H2115  H     0.04843   0.90049   0.81151   0.00000  Uiso   1.00
H2116  H     0.19770   0.77349   0.89649   0.00000  Uiso   1.00
H2117  H     0.33288   0.98764   0.78495   0.00000  Uiso   1.00
H2118  H     0.30780   0.93448   0.79630   0.00000  Uiso   1.00
H2119  H     0.00357   0.93116   0.87316   0.00000  Uiso   1.00
H2120  H     0.30991   0.98385   0.86380   0.00000  Uiso   1.00
H2121  H     0.03248   0.98280   0.86396   0.00000  Uiso   1.00
H2122  H     0.11812   0.89028   0.88046   0.00000  Uiso   1.00
H2123  H     0.13231   0.76546   0.61466   0.00000  Uiso   1.00
H2124  H     0.21569   0.88751   0.98939   0.00000  Uiso   1.00
N2125  N     0.16667   0.95240   0.75000   0.00000  Uiso   1.00
N2126  N     0.16667   0.71427   0.75000   0.00000  Uiso   1.00
O2127  O     0.10559   0.87154   0.75000   0.00000  Uiso   1.00
O2128  O     0.18913   0.76393   0.98281   0.00000  Uiso   1.00
O2129  O     0.09674   0.89432   0.96471   0.00000  Uiso   1.00
O2130  O     0.11534   0.75712   0.52887   0.00000  Uiso   1.00
O2131  O     0.03972   0.75078   0.73520   0.00000  Uiso   1.00
O2132  O     0.29071   0.91028   0.71342   0.00000  Uiso   1.00
O2133  O     0.29540   0.75351   0.77029   0.00000  Uiso   1.00
O2134  O     0.03838   0.91708   0.74234   0.00000  Uiso   1.00
O2135  O     0.22774   0.79513   0.75001   0.00000  Uiso   1.00
O2136  O     0.22774   0.87154   0.75001   0.00000  Uiso   1.00
O2137  O     0.10559   0.79513   0.75000   0.00000  Uiso   1.00
O2138  O     0.16666   0.87155   0.68453   0.00000  Uiso   1.00
O2139  O     0.16667   0.79511   0.81547   0.00000  Uiso   1.00
O2140  O     0.16667   0.87155   0.81547   0.00000  Uiso   1.00
O2141  O     0.16666   0.79511   0.68453   0.00000  Uiso   1.00
O2142  O     0.16360   0.91324   0.52030   0.00000  Uiso   1.00
Zn2143 Zn    0.16667   0.88437   0.75000   0.00000  Uiso   1.00
Zn2144 Zn    0.16667   0.78229   0.75000   0.00000  Uiso   1.00
C2145  C     0.41985   0.83345   0.74782   0.00000  Uiso   1.00
C2146  C     0.64447   0.87263   0.73131   0.00000  Uiso   1.00
C2147  C     0.64629   0.79272   0.75330   0.00000  Uiso   1.00
C2148  C     0.35320   0.87484   0.73943   0.00000  Uiso   1.00
C2149  C     0.48917   0.87409   0.54476   0.00000  Uiso   1.00
C2150  C     0.50457   0.79856   0.95708   0.00000  Uiso   1.00
C2151  C     0.45693   0.86291   0.94714   0.00000  Uiso   1.00
C2152  C     0.46254   0.79643   0.54941   0.00000  Uiso   1.00
C2153  C     0.49634   0.87371   0.59101   0.00000  Uiso   1.00
C2154  C     0.51107   0.79893   0.91098   0.00000  Uiso   1.00
C2155  C     0.46623   0.86475   0.90184   0.00000  Uiso   1.00
C2156  C     0.57998   0.83324   0.74869   0.00000  Uiso   1.00
C2157  C     0.47197   0.79590   0.59529   0.00000  Uiso   1.00
C2158  C     0.48972   0.83403   0.61575   0.00000  Uiso   1.00
C2159  C     0.49319   0.83287   0.88398   0.00000  Uiso   1.00
C2160  C     0.47334   0.83471   0.52374   0.00000  Uiso   1.00
C2161  C     0.47693   0.83076   0.97519   0.00000  Uiso   1.00
C2162  C     0.62388   0.83289   0.74465   0.00000  Uiso   1.00
C2163  C     0.37553   0.83362   0.74318   0.00000  Uiso   1.00
C2164  C     0.53956   0.91599   0.51151   0.00000  Uiso   1.00
C2165  C     0.54787   0.96077   0.98704   0.00000  Uiso   1.00
C2166  C     0.59312   0.96485   0.97425   0.00000  Uiso   1.00
C2167  C     0.49829   0.83348   0.66363   0.00000  Uiso   1.00
C2168  C     0.55606   0.78034   0.50933   0.00000  Uiso   1.00
C2169  C     0.59551   0.78333   0.98210   0.00000  Uiso   1.00
C2170  C     0.63065   0.80294   0.51081   0.00000  Uiso   1.00
C2171  C     0.38932   0.87867   0.95764   0.00000  Uiso   1.00
C2172  C     0.36051   0.90421   0.98876   0.00000  Uiso   1.00
C2173  C     0.37107   0.89447   0.53842   0.00000  Uiso   1.00
C2174  C     0.40574   0.75238   0.53513   0.00000  Uiso   1.00
C2175  C     0.39542   0.70189   0.53868   0.00000  Uiso   1.00
C2176  C     0.34899   0.69445   0.54227   0.00000  Uiso   1.00
C2177  C     0.36880   0.74159   0.68836   0.00000  Uiso   1.00
C2178  C     0.49963   0.83320   0.83630   0.00000  Uiso   1.00
C2179  C     0.37107   0.69053   0.68000   0.00000  Uiso   1.00
C2180  C     0.41397   0.67148   0.68979   0.00000  Uiso   1.00
C2181  C     0.61143   0.90141   0.66806   0.00000  Uiso   1.00
C2182  C     0.62693   0.93886   0.63673   0.00000  Uiso   1.00
C2183  C     0.60527   0.98419   0.64432   0.00000  Uiso   1.00
C2184  C     0.62598   0.75717   0.81793   0.00000  Uiso   1.00
C2185  C     0.33527   0.75419   0.84197   0.00000  Uiso   1.00
C2186  C     0.66466   0.75227   0.89314   0.00000  Uiso   1.00
C2187  C     0.37474   0.92981   0.78847   0.00000  Uiso   1.00
C2188  C     0.33582   0.95492   0.80360   0.00000  Uiso   1.00
C2189  C     0.48675   0.69050   0.78665   0.00000  Uiso   1.00
C2190  C     0.33742   0.96379   0.85429   0.00000  Uiso   1.00
C2191  C     0.51370   0.97615   0.71363   0.00000  Uiso   1.00
C2192  C     0.51412   0.69080   0.71377   0.00000  Uiso   1.00
C2193  C     0.48692   0.97585   0.78672   0.00000  Uiso   1.00
C2194  C     0.35419   0.79210   0.74302   0.00000  Uiso   1.00
H2195  H     0.47577   0.70850   0.81579   0.00000  Uiso   1.00
H2196  H     0.55843   0.91509   0.54341   0.00000  Uiso   1.00
H2197  H     0.52823   0.96285   0.95585   0.00000  Uiso   1.00
H2198  H     0.53970   0.98959   0.50926   0.00000  Uiso   1.00
H2199  H     0.61335   0.96263   0.50491   0.00000  Uiso   1.00
H2200  H     0.59831   0.99805   0.95743   0.00000  Uiso   1.00
H2201  H     0.60142   0.93742   0.95049   0.00000  Uiso   1.00
H2202  H     0.56140   0.75594   0.53760   0.00000  Uiso   1.00
H2203  H     0.54989   0.81357   0.52519   0.00000  Uiso   1.00
H2204  H     0.60414   0.74893   0.97037   0.00000  Uiso   1.00
H2205  H     0.59039   0.80573   0.95222   0.00000  Uiso   1.00
H2206  H     0.52395   0.95801   0.68437   0.00000  Uiso   1.00
H2207  H     0.62268   0.83776   0.52193   0.00000  Uiso   1.00
H2208  H     0.65895   0.80445   0.99053   0.00000  Uiso   1.00
H2209  H     0.63672   0.78149   0.54111   0.00000  Uiso   1.00
H2210  H     0.38625   0.84157   0.96462   0.00000  Uiso   1.00
H2211  H     0.37943   0.88523   0.92204   0.00000  Uiso   1.00
H2212  H     0.36272   0.94128   0.98206   0.00000  Uiso   1.00
H2213  H     0.66159   0.89358   0.98129   0.00000  Uiso   1.00
H2214  H     0.37174   0.85733   0.54513   0.00000  Uiso   1.00
H2215  H     0.34737   0.90995   0.55994   0.00000  Uiso   1.00
H2216  H     0.40158   0.90920   0.54777   0.00000  Uiso   1.00
H2217  H     0.52519   0.70904   0.68466   0.00000  Uiso   1.00
H2218  H     0.38927   0.76711   0.50524   0.00000  Uiso   1.00
H2219  H     0.39433   0.76949   0.56610   0.00000  Uiso   1.00
H2220  H     0.40671   0.68384   0.50846   0.00000  Uiso   1.00
H2221  H     0.41128   0.68730   0.56911   0.00000  Uiso   1.00
H2222  H     0.33661   0.71401   0.57092   0.00000  Uiso   1.00
H2223  H     0.34270   0.99133   0.54834   0.00000  Uiso   1.00
H2224  H     0.66624   0.70510   0.51045   0.00000  Uiso   1.00
H2225  H     0.39367   0.75918   0.66969   0.00000  Uiso   1.00
H2226  H     0.33842   0.75313   0.67365   0.00000  Uiso   1.00
H2227  H     0.34834   0.67275   0.70138   0.00000  Uiso   1.00
H2228  H     0.47625   0.95760   0.81600   0.00000  Uiso   1.00
H2229  H     0.36302   0.68391   0.64405   0.00000  Uiso   1.00
H2230  H     0.43701   0.68932   0.66891   0.00000  Uiso   1.00
H2231  H     0.41470   0.96812   0.68144   0.00000  Uiso   1.00
H2232  H     0.42180   0.67552   0.72610   0.00000  Uiso   1.00
H2233  H     0.57719   0.90028   0.66588   0.00000  Uiso   1.00
H2234  H     0.62273   0.86833   0.65455   0.00000  Uiso   1.00
H2235  H     0.66081   0.94277   0.64189   0.00000  Uiso   1.00
H2236  H     0.62101   0.92863   0.60115   0.00000  Uiso   1.00
H2237  H     0.57250   0.98207   0.63282   0.00000  Uiso   1.00
H2238  H     0.62031   0.67778   0.62417   0.00000  Uiso   1.00
H2239  H     0.50849   0.90396   0.60712   0.00000  Uiso   1.00
H2240  H     0.60688   0.99383   0.68050   0.00000  Uiso   1.00
H2241  H     0.60671   0.72846   0.82972   0.00000  Uiso   1.00
H2242  H     0.60971   0.78883   0.82795   0.00000  Uiso   1.00
H2243  H     0.35205   0.72373   0.83027   0.00000  Uiso   1.00
H2244  H     0.35400   0.78456   0.83379   0.00000  Uiso   1.00
H2245  H     0.65064   0.78428   0.90520   0.00000  Uiso   1.00
H2246  H     0.36242   0.74843   0.90927   0.00000  Uiso   1.00
H2247  H     0.64527   0.72308   0.90334   0.00000  Uiso   1.00
H2248  H     0.40124   0.95338   0.79222   0.00000  Uiso   1.00
H2249  H     0.38176   0.90049   0.81151   0.00000  Uiso   1.00
H2250  H     0.53103   0.77349   0.89649   0.00000  Uiso   1.00
H2251  H     0.66622   0.98764   0.78495   0.00000  Uiso   1.00
H2252  H     0.64113   0.93448   0.79630   0.00000  Uiso   1.00
H2253  H     0.33691   0.93116   0.87316   0.00000  Uiso   1.00
H2254  H     0.64324   0.98385   0.86380   0.00000  Uiso   1.00
H2255  H     0.36582   0.98280   0.86396   0.00000  Uiso   1.00
H2256  H     0.45145   0.89028   0.88046   0.00000  Uiso   1.00
H2257  H     0.46564   0.76546   0.61466   0.00000  Uiso   1.00
H2258  H     0.54902   0.88751   0.98939   0.00000  Uiso   1.00
N2259  N     0.50000   0.95240   0.75000   0.00000  Uiso   1.00
N2260  N     0.50000   0.71427   0.75000   0.00000  Uiso   1.00
O2261  O     0.43892   0.87154   0.75000   0.00000  Uiso   1.00
O2262  O     0.52246   0.76393   0.98281   0.00000  Uiso   1.00
O2263  O     0.43007   0.89432   0.96471   0.00000  Uiso   1.00
O2264  O     0.44868   0.75712   0.52887   0.00000  Uiso   1.00
O2265  O     0.37305   0.75078   0.73520   0.00000  Uiso   1.00
O2266  O     0.62405   0.91028   0.71342   0.00000  Uiso   1.00
O2267  O     0.62873   0.75351   0.77029   0.00000  Uiso   1.00
O2268  O     0.37171   0.91708   0.74234   0.00000  Uiso   1.00
O2269  O     0.56108   0.79513   0.75001   0.00000  Uiso   1.00
O2270  O     0.56108   0.87154   0.75001   0.00000  Uiso   1.00
O2271  O     0.43892   0.79513   0.75000   0.00000  Uiso   1.00
O2272  O     0.50000   0.87155   0.68453   0.00000  Uiso   1.00
O2273  O     0.50000   0.79511   0.81547   0.00000  Uiso   1.00
O2274  O     0.50000   0.87155   0.81547   0.00000  Uiso   1.00
O2275  O     0.50000   0.79511   0.68453   0.00000  Uiso   1.00
O2276  O     0.49693   0.91324   0.52030   0.00000  Uiso   1.00
Zn2277 Zn    0.50000   0.88437   0.75000   0.00000  Uiso   1.00
Zn2278 Zn    0.50000   0.78229   0.75000   0.00000  Uiso   1.00
C2279  C     0.75318   0.83345   0.74782   0.00000  Uiso   1.00
C2280  C     0.97780   0.87263   0.73131   0.00000  Uiso   1.00
C2281  C     0.97962   0.79272   0.75330   0.00000  Uiso   1.00
C2282  C     0.68654   0.87484   0.73943   0.00000  Uiso   1.00
C2283  C     0.82250   0.87409   0.54476   0.00000  Uiso   1.00
C2284  C     0.83790   0.79856   0.95708   0.00000  Uiso   1.00
C2285  C     0.79027   0.86291   0.94714   0.00000  Uiso   1.00
C2286  C     0.79587   0.79643   0.54941   0.00000  Uiso   1.00
C2287  C     0.82968   0.87371   0.59101   0.00000  Uiso   1.00
C2288  C     0.84441   0.79893   0.91098   0.00000  Uiso   1.00
C2289  C     0.79957   0.86475   0.90184   0.00000  Uiso   1.00
C2290  C     0.91331   0.83324   0.74869   0.00000  Uiso   1.00
C2291  C     0.80531   0.79590   0.59529   0.00000  Uiso   1.00
C2292  C     0.82305   0.83403   0.61575   0.00000  Uiso   1.00
C2293  C     0.82652   0.83287   0.88398   0.00000  Uiso   1.00
C2294  C     0.80667   0.83471   0.52374   0.00000  Uiso   1.00
C2295  C     0.81026   0.83076   0.97519   0.00000  Uiso   1.00
C2296  C     0.95722   0.83289   0.74465   0.00000  Uiso   1.00
C2297  C     0.70887   0.83362   0.74318   0.00000  Uiso   1.00
C2298  C     0.87289   0.91599   0.51151   0.00000  Uiso   1.00
C2299  C     0.88121   0.96077   0.98704   0.00000  Uiso   1.00
C2300  C     0.92646   0.96485   0.97425   0.00000  Uiso   1.00
C2301  C     0.83163   0.83348   0.66363   0.00000  Uiso   1.00
C2302  C     0.88939   0.78034   0.50933   0.00000  Uiso   1.00
C2303  C     0.92884   0.78333   0.98210   0.00000  Uiso   1.00
C2304  C     0.96399   0.80294   0.51081   0.00000  Uiso   1.00
C2305  C     0.72265   0.87867   0.95764   0.00000  Uiso   1.00
C2306  C     0.69384   0.90421   0.98876   0.00000  Uiso   1.00
C2307  C     0.70440   0.89447   0.53842   0.00000  Uiso   1.00
C2308  C     0.73908   0.75238   0.53513   0.00000  Uiso   1.00
C2309  C     0.72875   0.70189   0.53868   0.00000  Uiso   1.00
C2310  C     0.68232   0.69445   0.54227   0.00000  Uiso   1.00
C2311  C     0.70213   0.74159   0.68836   0.00000  Uiso   1.00
C2312  C     0.83296   0.83320   0.83630   0.00000  Uiso   1.00
C2313  C     0.70440   0.69053   0.68000   0.00000  Uiso   1.00
C2314  C     0.74730   0.67148   0.68979   0.00000  Uiso   1.00
C2315  C     0.94476   0.90141   0.66806   0.00000  Uiso   1.00
C2316  C     0.96026   0.93886   0.63673   0.00000  Uiso   1.00
C2317  C     0.93860   0.98419   0.64432   0.00000  Uiso   1.00
C2318  C     0.95931   0.75717   0.81793   0.00000  Uiso   1.00
C2319  C     0.66860   0.75419   0.84197   0.00000  Uiso   1.00
C2320  C     0.99799   0.75227   0.89314   0.00000  Uiso   1.00
C2321  C     0.70808   0.92981   0.78847   0.00000  Uiso   1.00
C2322  C     0.66915   0.95492   0.80360   0.00000  Uiso   1.00
C2323  C     0.82008   0.69050   0.78665   0.00000  Uiso   1.00
C2324  C     0.67076   0.96379   0.85429   0.00000  Uiso   1.00
C2325  C     0.84703   0.97615   0.71363   0.00000  Uiso   1.00
C2326  C     0.84746   0.69080   0.71377   0.00000  Uiso   1.00
C2327  C     0.82025   0.97585   0.78672   0.00000  Uiso   1.00
C2328  C     0.68752   0.79210   0.74302   0.00000  Uiso   1.00
H2329  H     0.80910   0.70850   0.81579   0.00000  Uiso   1.00
H2330  H     0.89176   0.91509   0.54341   0.00000  Uiso   1.00
H2331  H     0.86156   0.96285   0.95585   0.00000  Uiso   1.00
H2332  H     0.87303   0.98959   0.50926   0.00000  Uiso   1.00
H2333  H     0.94668   0.96263   0.50491   0.00000  Uiso   1.00
H2334  H     0.93164   0.99805   0.95743   0.00000  Uiso   1.00
H2335  H     0.93475   0.93742   0.95049   0.00000  Uiso   1.00
H2336  H     0.89473   0.75594   0.53760   0.00000  Uiso   1.00
H2337  H     0.88322   0.81357   0.52519   0.00000  Uiso   1.00
H2338  H     0.93747   0.74893   0.97037   0.00000  Uiso   1.00
H2339  H     0.92372   0.80573   0.95222   0.00000  Uiso   1.00
H2340  H     0.85728   0.95801   0.68437   0.00000  Uiso   1.00
H2341  H     0.95601   0.83776   0.52193   0.00000  Uiso   1.00
H2342  H     0.99228   0.80445   0.99053   0.00000  Uiso   1.00
H2343  H     0.97005   0.78149   0.54111   0.00000  Uiso   1.00
H2344  H     0.71958   0.84157   0.96462   0.00000  Uiso   1.00
H2345  H     0.71276   0.88523   0.92204   0.00000  Uiso   1.00
H2346  H     0.69606   0.94128   0.98206   0.00000  Uiso   1.00
H2347  H     0.99492   0.89358   0.98129   0.00000  Uiso   1.00
H2348  H     0.70507   0.85733   0.54513   0.00000  Uiso   1.00
H2349  H     0.68070   0.90995   0.55994   0.00000  Uiso   1.00
H2350  H     0.73491   0.90920   0.54777   0.00000  Uiso   1.00
H2351  H     0.85852   0.70904   0.68466   0.00000  Uiso   1.00
H2352  H     0.72260   0.76711   0.50524   0.00000  Uiso   1.00
H2353  H     0.72766   0.76949   0.56610   0.00000  Uiso   1.00
H2354  H     0.74005   0.68384   0.50846   0.00000  Uiso   1.00
H2355  H     0.74462   0.68730   0.56911   0.00000  Uiso   1.00
H2356  H     0.66994   0.71401   0.57092   0.00000  Uiso   1.00
H2357  H     0.67604   0.99133   0.54834   0.00000  Uiso   1.00
H2358  H     0.99958   0.70510   0.51045   0.00000  Uiso   1.00
H2359  H     0.72700   0.75918   0.66969   0.00000  Uiso   1.00
H2360  H     0.67175   0.75313   0.67365   0.00000  Uiso   1.00
H2361  H     0.68167   0.67275   0.70138   0.00000  Uiso   1.00
H2362  H     0.80958   0.95760   0.81600   0.00000  Uiso   1.00
H2363  H     0.69635   0.68391   0.64405   0.00000  Uiso   1.00
H2364  H     0.77034   0.68932   0.66891   0.00000  Uiso   1.00
H2365  H     0.74804   0.96812   0.68144   0.00000  Uiso   1.00
H2366  H     0.75514   0.67552   0.72610   0.00000  Uiso   1.00
H2367  H     0.91053   0.90028   0.66588   0.00000  Uiso   1.00
H2368  H     0.95606   0.86833   0.65455   0.00000  Uiso   1.00
H2369  H     0.99415   0.94277   0.64189   0.00000  Uiso   1.00
H2370  H     0.95434   0.92863   0.60115   0.00000  Uiso   1.00
H2371  H     0.90584   0.98207   0.63282   0.00000  Uiso   1.00
H2372  H     0.95364   0.67778   0.62417   0.00000  Uiso   1.00
H2373  H     0.84183   0.90396   0.60712   0.00000  Uiso   1.00
H2374  H     0.94022   0.99383   0.68050   0.00000  Uiso   1.00
H2375  H     0.94004   0.72846   0.82972   0.00000  Uiso   1.00
H2376  H     0.94304   0.78883   0.82795   0.00000  Uiso   1.00
H2377  H     0.68538   0.72373   0.83027   0.00000  Uiso   1.00
H2378  H     0.68734   0.78456   0.83379   0.00000  Uiso   1.00
H2379  H     0.98398   0.78428   0.90520   0.00000  Uiso   1.00
H2380  H     0.69576   0.74843   0.90927   0.00000  Uiso   1.00
H2381  H     0.97861   0.72308   0.90334   0.00000  Uiso   1.00
H2382  H     0.73457   0.95338   0.79222   0.00000  Uiso   1.00
H2383  H     0.71510   0.90049   0.81151   0.00000  Uiso   1.00
H2384  H     0.86437   0.77349   0.89649   0.00000  Uiso   1.00
H2385  H     0.99955   0.98764   0.78495   0.00000  Uiso   1.00
H2386  H     0.97447   0.93448   0.79630   0.00000  Uiso   1.00
H2387  H     0.67024   0.93116   0.87316   0.00000  Uiso   1.00
H2388  H     0.97658   0.98385   0.86380   0.00000  Uiso   1.00
H2389  H     0.69915   0.98280   0.86396   0.00000  Uiso   1.00
H2390  H     0.78478   0.89028   0.88046   0.00000  Uiso   1.00
H2391  H     0.79897   0.76546   0.61466   0.00000  Uiso   1.00
H2392  H     0.88236   0.88751   0.98939   0.00000  Uiso   1.00
N2393  N     0.83333   0.95240   0.75000   0.00000  Uiso   1.00
N2394  N     0.83333   0.71427   0.75000   0.00000  Uiso   1.00
O2395  O     0.77226   0.87154   0.75000   0.00000  Uiso   1.00
O2396  O     0.85580   0.76393   0.98281   0.00000  Uiso   1.00
O2397  O     0.76341   0.89432   0.96471   0.00000  Uiso   1.00
O2398  O     0.78201   0.75712   0.52887   0.00000  Uiso   1.00
O2399  O     0.70639   0.75078   0.73520   0.00000  Uiso   1.00
O2400  O     0.95738   0.91028   0.71342   0.00000  Uiso   1.00
O2401  O     0.96207   0.75351   0.77029   0.00000  Uiso   1.00
O2402  O     0.70504   0.91708   0.74234   0.00000  Uiso   1.00
O2403  O     0.89441   0.79513   0.75001   0.00000  Uiso   1.00
O2404  O     0.89441   0.87154   0.75001   0.00000  Uiso   1.00
O2405  O     0.77226   0.79513   0.75000   0.00000  Uiso   1.00
O2406  O     0.83333   0.87155   0.68453   0.00000  Uiso   1.00
O2407  O     0.83334   0.79511   0.81547   0.00000  Uiso   1.00
O2408  O     0.83334   0.87155   0.81547   0.00000  Uiso   1.00
O2409  O     0.83333   0.79511   0.68453   0.00000  Uiso   1.00
O2410  O     0.83026   0.91324   0.52030   0.00000  Uiso   1.00
Zn2411 Zn    0.83333   0.88437   0.75000   0.00000  Uiso   1.00
Zn2412 Zn    0.83333   0.78229   0.75000   0.00000  Uiso   1.00
loop_
_geom_bond_atom_site_label_1
_geom_bond_atom_site_label_2
_geom_bond_distance
_geom_bond_site_symmetry_2
_ccdc_geom_bond_type
C1     C19     1.438   .     S
C1     O117    1.283   .     A
C1     O127    1.286   .     A
C2     C18     1.407   .     A
C2     O122    1.387   .     S
C2     C138    1.380   .     S
C3     C18     1.406   .     A
C3     O123    1.385   .     S
C3     C184    1.375   .     S
C4     O124    1.384   .     S
C4     C19     1.414   .     A
C4     C270    1.380   1_455 S
C5     C16     1.412   .     A
C5     O132    1.385   .     S
C5     C9      1.385   .     A
C6     C17     1.418   .     A
C6     C10     1.386   .     A
C6     O118    1.388   .     S
C7     C11     1.382   .     A
C7     C17     1.404   .     A
C7     O119    1.380   .     S
C8     C13     1.387   .     A
C8     C16     1.405   .     A
C8     O120    1.383   .     S
C9     C14     1.395   .     A
C9     H95     1.084   .     S
C10    C15     1.394   .     A
C10    H106    1.084   .     S
C11    C15     1.394   .     A
C11    H112    1.084   .     S
C12    O125    1.281   .     A
C12    O126    1.283   .     A
C12    C18     1.429   .     S
C13    C14     1.398   .     A
C13    H113    1.084   .     S
C14    C23     1.440   .     S
C15    C34     1.432   .     S
C16    C1223   1.451   1_554 S
C17    C1222   1.451   .     S
C19    C50     1.406   .     A
C20    O132    1.412   .     S
C20    H52     1.115   .     S
C20    C1227   1.529   1_554 S
C20    H1320   1.114   1_554 S
C21    H53     1.112   .     S
C21    C22     1.525   .     S
C21    C1226   1.529   .     S
C21    H1260   1.112   .     S
C22    H57     1.111   .     S
C22    H56     1.110   .     S
C22    H1261   1.110   .     S
C23    O131    1.286   .     A
C23    O128    1.285   .     A
C24    H59     1.108   .     S
C24    H58     1.111   .     S
C24    C1231   1.527   1_554 S
C24    O1324   1.416   1_554 S
C25    H60     1.110   .     S
C25    H61     1.110   .     S
C25    C1230   1.527   .     S
C25    C1232   1.523   .     S
C26    H63     1.111   .     S
C26    H65     1.109   .     S
C26    C1231   1.523   1_554 S
C26    H1270   1.107   1_554 S
C27    O119    1.410   .     S
C27    H66     1.116   .     S
C27    H67     1.111   .     S
C27    C28     1.525   .     S
C28    H68     1.111   .     S
C28    C1235   1.529   .     S
C28    H337    1.109   1_455 S
C29    H72     1.110   .     S
C29    H70     1.111   .     S
C29    H71     1.107   .     S
C29    C1234   1.529   1_554 S
C30    H74     1.110   .     S
C30    H75     1.118   .     S
C30    C31     1.529   .     S
C30    O120    1.413   .     S
C31    H77     1.112   .     S
C31    C32     1.525   .     S
C31    H76     1.112   .     S
C32    H78     1.110   .     S
C32    H883    1.108   1_545 S
C32    H348    1.111   1_455 S
C33    H82     1.119   .     S
C33    O121    1.419   .     S
C33    C35     1.528   .     S
C33    H81     1.113   .     S
C34    O129    1.284   .     A
C34    O130    1.284   .     A
C35    C36     1.518   .     S
C35    H83     1.111   .     S
C35    H85     1.110   .     S
C36    H88     1.107   .     S
C36    H86     1.110   .     S
C36    H891    1.110   1_545 S
C37    H90     1.119   .     S
C37    C38     1.530   .     S
C37    H89     1.109   .     S
C37    O122    1.422   .     S
C38    C39     1.527   .     S
C38    H92     1.111   .     S
C38    H91     1.111   .     S
C39    H93     1.109   .     S
C39    H96     1.111   .     S
C39    H496    1.109   .     S
C40    H98     1.115   .     S
C40    O123    1.421   .     S
C40    H97     1.111   .     S
C40    C175    1.542   .     S
C41    H99     1.109   .     S
C41    H100    1.110   .     S
C41    C308    1.542   1_455 S
C41    C310    1.525   1_455 S
C42    H103    1.110   .     S
C42    H101    1.110   .     S
C42    C175    1.525   .     S
C42    H236    1.111   .     S
C43    H105    1.118   .     S
C43    H104    1.109   .     S
C43    C44     1.536   .     S
C43    O124    1.421   .     S
C44    C46     1.526   .     S
C44    H375    1.111   1_455 S
C44    H376    1.108   1_455 S
C45    H51     1.081   .     S
C45    N116    1.366   .     A
C45    C853    1.413   1_545 S
C46    H109    1.110   .     S
C46    H111    1.111   .     S
C46    H378    1.110   1_455 S
C47    H62     1.078   .     S
C47    N115    1.364   .     A
C47    C450    1.414   .     S
C48    N116    1.366   .     A
C48    H73     1.081   .     S
C48    C851    1.414   1_545 S
C49    H84     1.081   .     S
C49    N115    1.366   .     A
C49    C447    1.413   .     S
C50    O121    1.383   .     S
C50    C271    1.375   1_455 S
H54    C1227   1.112   1_554 S
H55    C1228   1.110   1_554 S
H64    C1232   1.107   .     S
H69    C162    1.109   .     S
H79    C434    1.108   .     S
H80    C166    1.111   .     S
H87    C438    1.110   .     S
H94    C843    1.109   1_545 S
H102   C310    1.111   1_455 S
H107   C178    1.111   .     S
H108   C178    1.108   .     S
H110   C180    1.110   .     S
H114   C1226   1.114   .     S
N115   Zn133   2.004   .     S
N116   Zn134   2.004   .     S
O117   Zn133   2.014   .     S
O118   C1230   1.416   .     S
O125   Zn134   2.014   .     S
O126   Zn133   2.012   .     S
O127   Zn134   2.012   .     S
O128   Zn133   1.978   .     S
O129   Zn134   1.978   .     S
O130   Zn133   1.974   .     S
O131   Zn134   1.974   .     S
C135   C153    1.438   .     S
C135   O251    1.283   .     A
C135   O261    1.286   .     A
C136   C152    1.407   .     A
C136   O256    1.387   .     S
C136   C272    1.380   .     S
C137   C152    1.406   .     A
C137   O257    1.385   .     S
C137   C318    1.375   .     S
C138   O258    1.384   .     S
C138   C153    1.414   .     A
C139   C150    1.412   .     A
C139   O266    1.385   .     S
C139   C143    1.385   .     A
C140   C151    1.418   .     A
C140   C144    1.386   .     A
C140   O252    1.388   .     S
C141   C145    1.382   .     A
C141   C151    1.404   .     A
C141   O253    1.380   .     S
C142   C147    1.387   .     A
C142   C150    1.405   .     A
C142   O254    1.383   .     S
C143   C148    1.395   .     A
C143   H229    1.084   .     S
C144   C149    1.394   .     A
C144   H240    1.084   .     S
C145   C149    1.394   .     A
C145   H246    1.084   .     S
C146   O259    1.281   .     A
C146   O260    1.283   .     A
C146   C152    1.429   .     S
C147   C148    1.398   .     A
C147   H247    1.084   .     S
C148   C157    1.440   .     S
C149   C168    1.432   .     S
C150   C1357   1.451   1_554 S
C151   C1356   1.451   .     S
C153   C184    1.406   .     A
C154   O266    1.412   .     S
C154   H186    1.115   .     S
C154   C1361   1.529   1_554 S
C154   H1454   1.114   1_554 S
C155   H187    1.112   .     S
C155   C156    1.525   .     S
C155   C1360   1.529   .     S
C155   H1394   1.112   .     S
C156   H191    1.111   .     S
C156   H190    1.110   .     S
C156   H1395   1.110   .     S
C157   O265    1.286   .     A
C157   O262    1.285   .     A
C158   H193    1.108   .     S
C158   H192    1.111   .     S
C158   C1365   1.527   1_554 S
C158   O1458   1.416   1_554 S
C159   H194    1.110   .     S
C159   H195    1.110   .     S
C159   C1364   1.527   .     S
C159   C1366   1.523   .     S
C160   H197    1.111   .     S
C160   H199    1.109   .     S
C160   C1365   1.523   1_554 S
C160   H1404   1.107   1_554 S
C161   O253    1.410   .     S
C161   H200    1.116   .     S
C161   H201    1.111   .     S
C161   C162    1.525   .     S
C162   H202    1.111   .     S
C162   C1369   1.529   .     S
C163   H206    1.110   .     S
C163   H204    1.111   .     S
C163   H205    1.107   .     S
C163   C1368   1.529   1_554 S
C164   H208    1.110   .     S
C164   H209    1.118   .     S
C164   C165    1.529   .     S
C164   O254    1.413   .     S
C165   H211    1.112   .     S
C165   C166    1.525   .     S
C165   H210    1.112   .     S
C166   H212    1.110   .     S
C166   H1017   1.108   1_545 S
C167   H216    1.119   .     S
C167   O255    1.419   .     S
C167   C169    1.528   .     S
C167   H215    1.113   .     S
C168   O263    1.284   .     A
C168   O264    1.284   .     A
C169   C170    1.518   .     S
C169   H217    1.111   .     S
C169   H219    1.110   .     S
C170   H222    1.107   .     S
C170   H220    1.110   .     S
C170   H1025   1.110   1_545 S
C171   H224    1.119   .     S
C171   C172    1.530   .     S
C171   H223    1.109   .     S
C171   O256    1.422   .     S
C172   C173    1.527   .     S
C172   H226    1.111   .     S
C172   H225    1.111   .     S
C173   H227    1.109   .     S
C173   H230    1.111   .     S
C173   H630    1.109   .     S
C174   H232    1.115   .     S
C174   O257    1.421   .     S
C174   H231    1.111   .     S
C174   C309    1.542   .     S
C175   H233    1.109   .     S
C175   H234    1.110   .     S
C176   H237    1.110   .     S
C176   H235    1.110   .     S
C176   C309    1.525   .     S
C176   H370    1.111   .     S
C177   H239    1.118   .     S
C177   H238    1.109   .     S
C177   C178    1.536   .     S
C177   O258    1.421   .     S
C178   C180    1.526   .     S
C179   H185    1.081   .     S
C179   N250    1.366   .     A
C179   C987    1.413   1_545 S
C180   H243    1.110   .     S
C180   H245    1.111   .     S
C181   H196    1.078   .     S
C181   N249    1.364   .     A
C181   C584    1.414   .     S
C182   N250    1.366   .     A
C182   H207    1.081   .     S
C182   C985    1.414   1_545 S
C183   H218    1.081   .     S
C183   N249    1.366   .     A
C183   C581    1.413   .     S
C184   O255    1.383   .     S
H188   C1361   1.112   1_554 S
H189   C1362   1.110   1_554 S
H198   C1366   1.107   .     S
H203   C296    1.109   .     S
H213   C568    1.108   .     S
H214   C300    1.111   .     S
H221   C572    1.110   .     S
H228   C977    1.109   1_545 S
H241   C312    1.111   .     S
H242   C312    1.108   .     S
H244   C314    1.110   .     S
H248   C1360   1.114   .     S
N249   Zn267   2.004   .     S
N250   Zn268   2.004   .     S
O251   Zn267   2.014   .     S
O252   C1364   1.416   .     S
O259   Zn268   2.014   .     S
O260   Zn267   2.012   .     S
O261   Zn268   2.012   .     S
O262   Zn267   1.978   .     S
O263   Zn268   1.978   .     S
O264   Zn267   1.974   .     S
O265   Zn268   1.974   .     S
C269   C287    1.438   .     S
C269   O385    1.283   .     A
C269   O395    1.286   .     A
C270   C286    1.407   .     A
C270   O390    1.387   .     S
C270   C4      1.380   1_655 S
C271   C286    1.406   .     A
C271   O391    1.385   .     S
C271   C50     1.375   1_655 S
C272   O392    1.384   .     S
C272   C287    1.414   .     A
C273   C284    1.412   .     A
C273   O400    1.385   .     S
C273   C277    1.385   .     A
C274   C285    1.418   .     A
C274   C278    1.386   .     A
C274   O386    1.388   .     S
C275   C279    1.382   .     A
C275   C285    1.404   .     A
C275   O387    1.380   .     S
C276   C281    1.387   .     A
C276   C284    1.405   .     A
C276   O388    1.383   .     S
C277   C282    1.395   .     A
C277   H363    1.084   .     S
C278   C283    1.394   .     A
C278   H374    1.084   .     S
C279   C283    1.394   .     A
C279   H380    1.084   .     S
C280   O393    1.281   .     A
C280   O394    1.283   .     A
C280   C286    1.429   .     S
C281   C282    1.398   .     A
C281   H381    1.084   .     S
C282   C291    1.440   .     S
C283   C302    1.432   .     S
C284   C1491   1.451   1_554 S
C285   C1490   1.451   .     S
C287   C318    1.406   .     A
C288   O400    1.412   .     S
C288   H320    1.115   .     S
C288   C1495   1.529   1_554 S
C288   H1588   1.114   1_554 S
C289   H321    1.112   .     S
C289   C290    1.525   .     S
C289   C1494   1.529   .     S
C289   H1528   1.112   .     S
C290   H325    1.111   .     S
C290   H324    1.110   .     S
C290   H1529   1.110   .     S
C291   O399    1.286   .     A
C291   O396    1.285   .     A
C292   H327    1.108   .     S
C292   H326    1.111   .     S
C292   C1499   1.527   1_554 S
C292   O1592   1.416   1_554 S
C293   H328    1.110   .     S
C293   H329    1.110   .     S
C293   C1498   1.527   .     S
C293   C1500   1.523   .     S
C294   H331    1.111   .     S
C294   H333    1.109   .     S
C294   C1499   1.523   1_554 S
C294   H1538   1.107   1_554 S
C295   O387    1.410   .     S
C295   H334    1.116   .     S
C295   H335    1.111   .     S
C295   C296    1.525   .     S
C296   H336    1.111   .     S
C296   C1503   1.529   .     S
C297   H340    1.110   .     S
C297   H338    1.111   .     S
C297   H339    1.107   .     S
C297   C1502   1.529   1_554 S
C298   H342    1.110   .     S
C298   H343    1.118   .     S
C298   C299    1.529   .     S
C298   O388    1.413   .     S
C299   H345    1.112   .     S
C299   C300    1.525   .     S
C299   H344    1.112   .     S
C300   H346    1.110   .     S
C300   H1151   1.108   1_545 S
C301   H350    1.119   .     S
C301   O389    1.419   .     S
C301   C303    1.528   .     S
C301   H349    1.113   .     S
C302   O397    1.284   .     A
C302   O398    1.284   .     A
C303   C304    1.518   .     S
C303   H351    1.111   .     S
C303   H353    1.110   .     S
C304   H356    1.107   .     S
C304   H354    1.110   .     S
C304   H1159   1.110   1_545 S
C305   H358    1.119   .     S
C305   C306    1.530   .     S
C305   H357    1.109   .     S
C305   O390    1.422   .     S
C306   C307    1.527   .     S
C306   H360    1.111   .     S
C306   H359    1.111   .     S
C307   H361    1.109   .     S
C307   H364    1.111   .     S
C307   H764    1.109   .     S
C308   H366    1.115   .     S
C308   O391    1.421   .     S
C308   H365    1.111   .     S
C308   C41     1.542   1_655 S
C309   H367    1.109   .     S
C309   H368    1.110   .     S
C310   H371    1.110   .     S
C310   H369    1.110   .     S
C310   C41     1.525   1_655 S
C310   H102    1.111   1_655 S
C311   H373    1.118   .     S
C311   H372    1.109   .     S
C311   C312    1.536   .     S
C311   O392    1.421   .     S
C312   C314    1.526   .     S
C313   H319    1.081   .     S
C313   N384    1.366   .     A
C313   C1121   1.413   1_545 S
C314   H377    1.110   .     S
C314   H379    1.111   .     S
C315   H330    1.078   .     S
C315   N383    1.364   .     A
C315   C718    1.414   .     S
C316   N384    1.366   .     A
C316   H341    1.081   .     S
C316   C1119   1.414   1_545 S
C317   H352    1.081   .     S
C317   N383    1.366   .     A
C317   C715    1.413   .     S
C318   O389    1.383   .     S
H322   C1495   1.112   1_554 S
H323   C1496   1.110   1_554 S
H332   C1500   1.107   .     S
H337   C28     1.109   1_655 S
H347   C702    1.108   .     S
H348   C32     1.111   1_655 S
H355   C706    1.110   .     S
H362   C1111   1.109   1_545 S
H375   C44     1.111   1_655 S
H376   C44     1.108   1_655 S
H378   C46     1.110   1_655 S
H382   C1494   1.114   .     S
N383   Zn401   2.004   .     S
N384   Zn402   2.004   .     S
O385   Zn401   2.014   .     S
O386   C1498   1.416   .     S
O393   Zn402   2.014   .     S
O394   Zn401   2.012   .     S
O395   Zn402   2.012   .     S
O396   Zn401   1.978   .     S
O397   Zn402   1.978   .     S
O398   Zn401   1.974   .     S
O399   Zn402   1.974   .     S
C403   C421    1.438   .     S
C403   O519    1.283   .     A
C403   O529    1.286   .     A
C404   C420    1.407   .     A
C404   O524    1.387   .     S
C404   C540    1.380   .     S
C405   C420    1.406   .     A
C405   O525    1.385   .     S
C405   C586    1.375   .     S
C406   O526    1.384   .     S
C406   C421    1.414   .     A
C406   C672    1.380   1_455 S
C407   C418    1.412   .     A
C407   O534    1.385   .     S
C407   C411    1.385   .     A
C408   C419    1.418   .     A
C408   C412    1.386   .     A
C408   O520    1.388   .     S
C409   C413    1.382   .     A
C409   C419    1.404   .     A
C409   O521    1.380   .     S
C410   C415    1.387   .     A
C410   C418    1.405   .     A
C410   O522    1.383   .     S
C411   C416    1.395   .     A
C411   H497    1.084   .     S
C412   C417    1.394   .     A
C412   H508    1.084   .     S
C413   C417    1.394   .     A
C413   H514    1.084   .     S
C414   O527    1.281   .     A
C414   O528    1.283   .     A
C414   C420    1.429   .     S
C415   C416    1.398   .     A
C415   H515    1.084   .     S
C416   C425    1.440   .     S
C417   C436    1.432   .     S
C418   C1625   1.451   1_554 S
C419   C1624   1.451   .     S
C421   C452    1.406   .     A
C422   O534    1.412   .     S
C422   H454    1.115   .     S
C422   C1629   1.529   1_554 S
C422   H1722   1.114   1_554 S
C423   H455    1.112   .     S
C423   C424    1.525   .     S
C423   C1628   1.529   .     S
C423   H1662   1.112   .     S
C424   H459    1.111   .     S
C424   H458    1.110   .     S
C424   H1663   1.110   .     S
C425   O533    1.286   .     A
C425   O530    1.285   .     A
C426   H461    1.108   .     S
C426   H460    1.111   .     S
C426   C1633   1.527   1_554 S
C426   O1726   1.416   1_554 S
C427   H462    1.110   .     S
C427   H463    1.110   .     S
C427   C1632   1.527   .     S
C427   C1634   1.523   .     S
C428   H465    1.111   .     S
C428   H467    1.109   .     S
C428   C1633   1.523   1_554 S
C428   H1672   1.107   1_554 S
C429   O521    1.410   .     S
C429   H468    1.116   .     S
C429   H469    1.111   .     S
C429   C430    1.525   .     S
C430   H470    1.111   .     S
C430   C1637   1.529   .     S
C430   H739    1.109   1_455 S
C431   H474    1.110   .     S
C431   H472    1.111   .     S
C431   H473    1.107   .     S
C431   C1636   1.529   1_554 S
C432   H476    1.110   .     S
C432   H477    1.118   .     S
C432   C433    1.529   .     S
C432   O522    1.413   .     S
C433   H479    1.112   .     S
C433   C434    1.525   .     S
C433   H478    1.112   .     S
C434   H480    1.110   .     S
C434   H750    1.111   1_455 S
C435   H484    1.119   .     S
C435   O523    1.419   .     S
C435   C437    1.528   .     S
C435   H483    1.113   .     S
C436   O531    1.284   .     A
C436   O532    1.284   .     A
C437   C438    1.518   .     S
C437   H485    1.111   .     S
C437   H487    1.110   .     S
C438   H490    1.107   .     S
C438   H488    1.110   .     S
C439   H492    1.119   .     S
C439   C440    1.530   .     S
C439   H491    1.109   .     S
C439   O524    1.422   .     S
C440   C441    1.527   .     S
C440   H494    1.111   .     S
C440   H493    1.111   .     S
C441   H495    1.109   .     S
C441   H498    1.111   .     S
C441   H898    1.109   .     S
C442   H500    1.115   .     S
C442   O525    1.421   .     S
C442   H499    1.111   .     S
C442   C577    1.542   .     S
C443   H501    1.109   .     S
C443   H502    1.110   .     S
C443   C710    1.542   1_455 S
C443   C712    1.525   1_455 S
C444   H505    1.110   .     S
C444   H503    1.110   .     S
C444   C577    1.525   .     S
C444   H638    1.111   .     S
C445   H507    1.118   .     S
C445   H506    1.109   .     S
C445   C446    1.536   .     S
C445   O526    1.421   .     S
C446   C448    1.526   .     S
C446   H777    1.111   1_455 S
C446   H778    1.108   1_455 S
C447   H453    1.081   .     S
C447   N518    1.366   .     A
C448   H511    1.110   .     S
C448   H513    1.111   .     S
C448   H780    1.110   1_455 S
C449   H464    1.078   .     S
C449   N517    1.364   .     A
C449   C852    1.414   .     S
C450   N518    1.366   .     A
C450   H475    1.081   .     S
C451   H486    1.081   .     S
C451   N517    1.366   .     A
C451   C849    1.413   .     S
C452   O523    1.383   .     S
C452   C673    1.375   1_455 S
H456   C1629   1.112   1_554 S
H457   C1630   1.110   1_554 S
H466   C1634   1.107   .     S
H471   C564    1.109   .     S
H481   C836    1.108   .     S
H482   C568    1.111   .     S
H489   C840    1.110   .     S
H504   C712    1.111   1_455 S
H509   C580    1.111   .     S
H510   C580    1.108   .     S
H512   C582    1.110   .     S
H516   C1628   1.114   .     S
N517   Zn535   2.004   .     S
N518   Zn536   2.004   .     S
O519   Zn535   2.014   .     S
O520   C1632   1.416   .     S
O527   Zn536   2.014   .     S
O528   Zn535   2.012   .     S
O529   Zn536   2.012   .     S
O530   Zn535   1.978   .     S
O531   Zn536   1.978   .     S
O532   Zn535   1.974   .     S
O533   Zn536   1.974   .     S
C537   C555    1.438   .     S
C537   O653    1.283   .     A
C537   O663    1.286   .     A
C538   C554    1.407   .     A
C538   O658    1.387   .     S
C538   C674    1.380   .     S
C539   C554    1.406   .     A
C539   O659    1.385   .     S
C539   C720    1.375   .     S
C540   O660    1.384   .     S
C540   C555    1.414   .     A
C541   C552    1.412   .     A
C541   O668    1.385   .     S
C541   C545    1.385   .     A
C542   C553    1.418   .     A
C542   C546    1.386   .     A
C542   O654    1.388   .     S
C543   C547    1.382   .     A
C543   C553    1.404   .     A
C543   O655    1.380   .     S
C544   C549    1.387   .     A
C544   C552    1.405   .     A
C544   O656    1.383   .     S
C545   C550    1.395   .     A
C545   H631    1.084   .     S
C546   C551    1.394   .     A
C546   H642    1.084   .     S
C547   C551    1.394   .     A
C547   H648    1.084   .     S
C548   O661    1.281   .     A
C548   O662    1.283   .     A
C548   C554    1.429   .     S
C549   C550    1.398   .     A
C549   H649    1.084   .     S
C550   C559    1.440   .     S
C551   C570    1.432   .     S
C552   C1759   1.451   1_554 S
C553   C1758   1.451   .     S
C555   C586    1.406   .     A
C556   O668    1.412   .     S
C556   H588    1.115   .     S
C556   C1763   1.529   1_554 S
C556   H1856   1.114   1_554 S
C557   H589    1.112   .     S
C557   C558    1.525   .     S
C557   C1762   1.529   .     S
C557   H1796   1.112   .     S
C558   H593    1.111   .     S
C558   H592    1.110   .     S
C558   H1797   1.110   .     S
C559   O667    1.286   .     A
C559   O664    1.285   .     A
C560   H595    1.108   .     S
C560   H594    1.111   .     S
C560   C1767   1.527   1_554 S
C560   O1860   1.416   1_554 S
C561   H596    1.110   .     S
C561   H597    1.110   .     S
C561   C1766   1.527   .     S
C561   C1768   1.523   .     S
C562   H599    1.111   .     S
C562   H601    1.109   .     S
C562   C1767   1.523   1_554 S
C562   H1806   1.107   1_554 S
C563   O655    1.410   .     S
C563   H602    1.116   .     S
C563   H603    1.111   .     S
C563   C564    1.525   .     S
C564   H604    1.111   .     S
C564   C1771   1.529   .     S
C565   H608    1.110   .     S
C565   H606    1.111   .     S
C565   H607    1.107   .     S
C565   C1770   1.529   1_554 S
C566   H610    1.110   .     S
C566   H611    1.118   .     S
C566   C567    1.529   .     S
C566   O656    1.413   .     S
C567   H613    1.112   .     S
C567   C568    1.525   .     S
C567   H612    1.112   .     S
C568   H614    1.110   .     S
C569   H618    1.119   .     S
C569   O657    1.419   .     S
C569   C571    1.528   .     S
C569   H617    1.113   .     S
C570   O665    1.284   .     A
C570   O666    1.284   .     A
C571   C572    1.518   .     S
C571   H619    1.111   .     S
C571   H621    1.110   .     S
C572   H624    1.107   .     S
C572   H622    1.110   .     S
C573   H626    1.119   .     S
C573   C574    1.530   .     S
C573   H625    1.109   .     S
C573   O658    1.422   .     S
C574   C575    1.527   .     S
C574   H628    1.111   .     S
C574   H627    1.111   .     S
C575   H629    1.109   .     S
C575   H632    1.111   .     S
C575   H1032   1.109   .     S
C576   H634    1.115   .     S
C576   O659    1.421   .     S
C576   H633    1.111   .     S
C576   C711    1.542   .     S
C577   H635    1.109   .     S
C577   H636    1.110   .     S
C578   H639    1.110   .     S
C578   H637    1.110   .     S
C578   C711    1.525   .     S
C578   H772    1.111   .     S
C579   H641    1.118   .     S
C579   H640    1.109   .     S
C579   C580    1.536   .     S
C579   O660    1.421   .     S
C580   C582    1.526   .     S
C581   H587    1.081   .     S
C581   N652    1.366   .     A
C582   H645    1.110   .     S
C582   H647    1.111   .     S
C583   H598    1.078   .     S
C583   N651    1.364   .     A
C583   C986    1.414   .     S
C584   N652    1.366   .     A
C584   H609    1.081   .     S
C585   H620    1.081   .     S
C585   N651    1.366   .     A
C585   C983    1.413   .     S
C586   O657    1.383   .     S
H590   C1763   1.112   1_554 S
H591   C1764   1.110   1_554 S
H600   C1768   1.107   .     S
H605   C698    1.109   .     S
H615   C970    1.108   .     S
H616   C702    1.111   .     S
H623   C974    1.110   .     S
H643   C714    1.111   .     S
H644   C714    1.108   .     S
H646   C716    1.110   .     S
H650   C1762   1.114   .     S
N651   Zn669   2.004   .     S
N652   Zn670   2.004   .     S
O653   Zn669   2.014   .     S
O654   C1766   1.416   .     S
O661   Zn670   2.014   .     S
O662   Zn669   2.012   .     S
O663   Zn670   2.012   .     S
O664   Zn669   1.978   .     S
O665   Zn670   1.978   .     S
O666   Zn669   1.974   .     S
O667   Zn670   1.974   .     S
C671   C689    1.438   .     S
C671   O787    1.283   .     A
C671   O797    1.286   .     A
C672   C688    1.407   .     A
C672   O792    1.387   .     S
C672   C406    1.380   1_655 S
C673   C688    1.406   .     A
C673   O793    1.385   .     S
C673   C452    1.375   1_655 S
C674   O794    1.384   .     S
C674   C689    1.414   .     A
C675   C686    1.412   .     A
C675   O802    1.385   .     S
C675   C679    1.385   .     A
C676   C687    1.418   .     A
C676   C680    1.386   .     A
C676   O788    1.388   .     S
C677   C681    1.382   .     A
C677   C687    1.404   .     A
C677   O789    1.380   .     S
C678   C683    1.387   .     A
C678   C686    1.405   .     A
C678   O790    1.383   .     S
C679   C684    1.395   .     A
C679   H765    1.084   .     S
C680   C685    1.394   .     A
C680   H776    1.084   .     S
C681   C685    1.394   .     A
C681   H782    1.084   .     S
C682   O795    1.281   .     A
C682   O796    1.283   .     A
C682   C688    1.429   .     S
C683   C684    1.398   .     A
C683   H783    1.084   .     S
C684   C693    1.440   .     S
C685   C704    1.432   .     S
C686   C1893   1.451   1_554 S
C687   C1892   1.451   .     S
C689   C720    1.406   .     A
C690   O802    1.412   .     S
C690   H722    1.115   .     S
C690   C1897   1.529   1_554 S
C690   H1990   1.114   1_554 S
C691   H723    1.112   .     S
C691   C692    1.525   .     S
C691   C1896   1.529   .     S
C691   H1930   1.112   .     S
C692   H727    1.111   .     S
C692   H726    1.110   .     S
C692   H1931   1.110   .     S
C693   O801    1.286   .     A
C693   O798    1.285   .     A
C694   H729    1.108   .     S
C694   H728    1.111   .     S
C694   C1901   1.527   1_554 S
C694   O1994   1.416   1_554 S
C695   H730    1.110   .     S
C695   H731    1.110   .     S
C695   C1900   1.527   .     S
C695   C1902   1.523   .     S
C696   H733    1.111   .     S
C696   H735    1.109   .     S
C696   C1901   1.523   1_554 S
C696   H1940   1.107   1_554 S
C697   O789    1.410   .     S
C697   H736    1.116   .     S
C697   H737    1.111   .     S
C697   C698    1.525   .     S
C698   H738    1.111   .     S
C698   C1905   1.529   .     S
C699   H742    1.110   .     S
C699   H740    1.111   .     S
C699   H741    1.107   .     S
C699   C1904   1.529   1_554 S
C700   H744    1.110   .     S
C700   H745    1.118   .     S
C700   C701    1.529   .     S
C700   O790    1.413   .     S
C701   H747    1.112   .     S
C701   C702    1.525   .     S
C701   H746    1.112   .     S
C702   H748    1.110   .     S
C703   H752    1.119   .     S
C703   O791    1.419   .     S
C703   C705    1.528   .     S
C703   H751    1.113   .     S
C704   O799    1.284   .     A
C704   O800    1.284   .     A
C705   C706    1.518   .     S
C705   H753    1.111   .     S
C705   H755    1.110   .     S
C706   H758    1.107   .     S
C706   H756    1.110   .     S
C707   H760    1.119   .     S
C707   C708    1.530   .     S
C707   H759    1.109   .     S
C707   O792    1.422   .     S
C708   C709    1.527   .     S
C708   H762    1.111   .     S
C708   H761    1.111   .     S
C709   H763    1.109   .     S
C709   H766    1.111   .     S
C709   H1166   1.109   .     S
C710   H768    1.115   .     S
C710   O793    1.421   .     S
C710   H767    1.111   .     S
C710   C443    1.542   1_655 S
C711   H769    1.109   .     S
C711   H770    1.110   .     S
C712   H773    1.110   .     S
C712   H771    1.110   .     S
C712   C443    1.525   1_655 S
C712   H504    1.111   1_655 S
C713   H775    1.118   .     S
C713   H774    1.109   .     S
C713   C714    1.536   .     S
C713   O794    1.421   .     S
C714   C716    1.526   .     S
C715   H721    1.081   .     S
C715   N786    1.366   .     A
C716   H779    1.110   .     S
C716   H781    1.111   .     S
C717   H732    1.078   .     S
C717   N785    1.364   .     A
C717   C1120   1.414   .     S
C718   N786    1.366   .     A
C718   H743    1.081   .     S
C719   H754    1.081   .     S
C719   N785    1.366   .     A
C719   C1117   1.413   .     S
C720   O791    1.383   .     S
H724   C1897   1.112   1_554 S
H725   C1898   1.110   1_554 S
H734   C1902   1.107   .     S
H739   C430    1.109   1_655 S
H749   C1104   1.108   .     S
H750   C434    1.111   1_655 S
H757   C1108   1.110   .     S
H777   C446    1.111   1_655 S
H778   C446    1.108   1_655 S
H780   C448    1.110   1_655 S
H784   C1896   1.114   .     S
N785   Zn803   2.004   .     S
N786   Zn804   2.004   .     S
O787   Zn803   2.014   .     S
O788   C1900   1.416   .     S
O795   Zn804   2.014   .     S
O796   Zn803   2.012   .     S
O797   Zn804   2.012   .     S
O798   Zn803   1.978   .     S
O799   Zn804   1.978   .     S
O800   Zn803   1.974   .     S
O801   Zn804   1.974   .     S
C805   C823    1.438   .     S
C805   O921    1.283   .     A
C805   O931    1.286   .     A
C806   C822    1.407   .     A
C806   O926    1.387   .     S
C806   C942    1.380   .     S
C807   C822    1.406   .     A
C807   O927    1.385   .     S
C807   C988    1.375   .     S
C808   O928    1.384   .     S
C808   C823    1.414   .     A
C808   C1074   1.380   1_455 S
C809   C820    1.412   .     A
C809   O936    1.385   .     S
C809   C813    1.385   .     A
C810   C821    1.418   .     A
C810   C814    1.386   .     A
C810   O922    1.388   .     S
C811   C815    1.382   .     A
C811   C821    1.404   .     A
C811   O923    1.380   .     S
C812   C817    1.387   .     A
C812   C820    1.405   .     A
C812   O924    1.383   .     S
C813   C818    1.395   .     A
C813   H899    1.084   .     S
C814   C819    1.394   .     A
C814   H910    1.084   .     S
C815   C819    1.394   .     A
C815   H916    1.084   .     S
C816   O929    1.281   .     A
C816   O930    1.283   .     A
C816   C822    1.429   .     S
C817   C818    1.398   .     A
C817   H917    1.084   .     S
C818   C827    1.440   .     S
C819   C838    1.432   .     S
C820   C2027   1.451   1_554 S
C821   C2026   1.451   .     S
C823   C854    1.406   .     A
C824   O936    1.412   .     S
C824   H856    1.115   .     S
C824   C2031   1.529   1_554 S
C824   H2124   1.114   1_554 S
C825   H857    1.112   .     S
C825   C826    1.525   .     S
C825   C2030   1.529   .     S
C825   H2064   1.112   .     S
C826   H861    1.111   .     S
C826   H860    1.110   .     S
C826   H2065   1.110   .     S
C827   O935    1.286   .     A
C827   O932    1.285   .     A
C828   H863    1.108   .     S
C828   H862    1.111   .     S
C828   C2035   1.527   1_554 S
C828   O2128   1.416   1_554 S
C829   H864    1.110   .     S
C829   H865    1.110   .     S
C829   C2034   1.527   .     S
C829   C2036   1.523   .     S
C830   H867    1.111   .     S
C830   H869    1.109   .     S
C830   C2035   1.523   1_554 S
C830   H2074   1.107   1_554 S
C831   O923    1.410   .     S
C831   H870    1.116   .     S
C831   H871    1.111   .     S
C831   C832    1.525   .     S
C832   H872    1.111   .     S
C832   C2039   1.529   .     S
C832   H1141   1.109   1_455 S
C833   H876    1.110   .     S
C833   H874    1.111   .     S
C833   H875    1.107   .     S
C833   C2038   1.529   1_554 S
C834   H878    1.110   .     S
C834   H879    1.118   .     S
C834   C835    1.529   .     S
C834   O924    1.413   .     S
C835   H881    1.112   .     S
C835   C836    1.525   .     S
C835   H880    1.112   .     S
C836   H882    1.110   .     S
C836   H1152   1.111   1_455 S
C837   H886    1.119   .     S
C837   O925    1.419   .     S
C837   C839    1.528   .     S
C837   H885    1.113   .     S
C838   O933    1.284   .     A
C838   O934    1.284   .     A
C839   C840    1.518   .     S
C839   H887    1.111   .     S
C839   H889    1.110   .     S
C840   H892    1.107   .     S
C840   H890    1.110   .     S
C841   H894    1.119   .     S
C841   C842    1.530   .     S
C841   H893    1.109   .     S
C841   O926    1.422   .     S
C842   C843    1.527   .     S
C842   H896    1.111   .     S
C842   H895    1.111   .     S
C843   H897    1.109   .     S
C843   H900    1.111   .     S
C843   H94     1.109   1_565 S
C844   H902    1.115   .     S
C844   O927    1.421   .     S
C844   H901    1.111   .     S
C844   C979    1.542   .     S
C845   H903    1.109   .     S
C845   H904    1.110   .     S
C845   C1112   1.542   1_455 S
C845   C1114   1.525   1_455 S
C846   H907    1.110   .     S
C846   H905    1.110   .     S
C846   C979    1.525   .     S
C846   H1040   1.111   .     S
C847   H909    1.118   .     S
C847   H908    1.109   .     S
C847   C848    1.536   .     S
C847   O928    1.421   .     S
C848   C850    1.526   .     S
C848   H1179   1.111   1_455 S
C848   H1180   1.108   1_455 S
C849   H855    1.081   .     S
C849   N920    1.366   .     A
C850   H913    1.110   .     S
C850   H915    1.111   .     S
C850   H1182   1.110   1_455 S
C851   H866    1.078   .     S
C851   N919    1.364   .     A
C851   C48     1.414   1_565 S
C852   N920    1.366   .     A
C852   H877    1.081   .     S
C853   H888    1.081   .     S
C853   N919    1.366   .     A
C853   C45     1.413   1_565 S
C854   O925    1.383   .     S
C854   C1075   1.375   1_455 S
H858   C2031   1.112   1_554 S
H859   C2032   1.110   1_554 S
H868   C2036   1.107   .     S
H873   C966    1.109   .     S
H883   C32     1.108   1_565 S
H884   C970    1.111   .     S
H891   C36     1.110   1_565 S
H906   C1114   1.111   1_455 S
H911   C982    1.111   .     S
H912   C982    1.108   .     S
H914   C984    1.110   .     S
H918   C2030   1.114   .     S
N919   Zn937   2.004   .     S
N920   Zn938   2.004   .     S
O921   Zn937   2.014   .     S
O922   C2034   1.416   .     S
O929   Zn938   2.014   .     S
O930   Zn937   2.012   .     S
O931   Zn938   2.012   .     S
O932   Zn937   1.978   .     S
O933   Zn938   1.978   .     S
O934   Zn937   1.974   .     S
O935   Zn938   1.974   .     S
C939   C957    1.438   .     S
C939   O1055   1.283   .     A
C939   O1065   1.286   .     A
C940   C956    1.407   .     A
C940   O1060   1.387   .     S
C940   C1076   1.380   .     S
C941   C956    1.406   .     A
C941   O1061   1.385   .     S
C941   C1122   1.375   .     S
C942   O1062   1.384   .     S
C942   C957    1.414   .     A
C943   C954    1.412   .     A
C943   O1070   1.385   .     S
C943   C947    1.385   .     A
C944   C955    1.418   .     A
C944   C948    1.386   .     A
C944   O1056   1.388   .     S
C945   C949    1.382   .     A
C945   C955    1.404   .     A
C945   O1057   1.380   .     S
C946   C951    1.387   .     A
C946   C954    1.405   .     A
C946   O1058   1.383   .     S
C947   C952    1.395   .     A
C947   H1033   1.084   .     S
C948   C953    1.394   .     A
C948   H1044   1.084   .     S
C949   C953    1.394   .     A
C949   H1050   1.084   .     S
C950   O1063   1.281   .     A
C950   O1064   1.283   .     A
C950   C956    1.429   .     S
C951   C952    1.398   .     A
C951   H1051   1.084   .     S
C952   C961    1.440   .     S
C953   C972    1.432   .     S
C954   C2161   1.451   1_554 S
C955   C2160   1.451   .     S
C957   C988    1.406   .     A
C958   O1070   1.412   .     S
C958   H990    1.115   .     S
C958   C2165   1.529   1_554 S
C958   H2258   1.114   1_554 S
C959   H991    1.112   .     S
C959   C960    1.525   .     S
C959   C2164   1.529   .     S
C959   H2198   1.112   .     S
C960   H995    1.111   .     S
C960   H994    1.110   .     S
C960   H2199   1.110   .     S
C961   O1069   1.286   .     A
C961   O1066   1.285   .     A
C962   H997    1.108   .     S
C962   H996    1.111   .     S
C962   C2169   1.527   1_554 S
C962   O2262   1.416   1_554 S
C963   H998    1.110   .     S
C963   H999    1.110   .     S
C963   C2168   1.527   .     S
C963   C2170   1.523   .     S
C964   H1001   1.111   .     S
C964   H1003   1.109   .     S
C964   C2169   1.523   1_554 S
C964   H2208   1.107   1_554 S
C965   O1057   1.410   .     S
C965   H1004   1.116   .     S
C965   H1005   1.111   .     S
C965   C966    1.525   .     S
C966   H1006   1.111   .     S
C966   C2173   1.529   .     S
C967   H1010   1.110   .     S
C967   H1008   1.111   .     S
C967   H1009   1.107   .     S
C967   C2172   1.529   1_554 S
C968   H1012   1.110   .     S
C968   H1013   1.118   .     S
C968   C969    1.529   .     S
C968   O1058   1.413   .     S
C969   H1015   1.112   .     S
C969   C970    1.525   .     S
C969   H1014   1.112   .     S
C970   H1016   1.110   .     S
C971   H1020   1.119   .     S
C971   O1059   1.419   .     S
C971   C973    1.528   .     S
C971   H1019   1.113   .     S
C972   O1067   1.284   .     A
C972   O1068   1.284   .     A
C973   C974    1.518   .     S
C973   H1021   1.111   .     S
C973   H1023   1.110   .     S
C974   H1026   1.107   .     S
C974   H1024   1.110   .     S
C975   H1028   1.119   .     S
C975   C976    1.530   .     S
C975   H1027   1.109   .     S
C975   O1060   1.422   .     S
C976   C977    1.527   .     S
C976   H1030   1.111   .     S
C976   H1029   1.111   .     S
C977   H1031   1.109   .     S
C977   H1034   1.111   .     S
C977   H228    1.109   1_565 S
C978   H1036   1.115   .     S
C978   O1061   1.421   .     S
C978   H1035   1.111   .     S
C978   C1113   1.542   .     S
C979   H1037   1.109   .     S
C979   H1038   1.110   .     S
C980   H1041   1.110   .     S
C980   H1039   1.110   .     S
C980   C1113   1.525   .     S
C980   H1174   1.111   .     S
C981   H1043   1.118   .     S
C981   H1042   1.109   .     S
C981   C982    1.536   .     S
C981   O1062   1.421   .     S
C982   C984    1.526   .     S
C983   H989    1.081   .     S
C983   N1054   1.366   .     A
C984   H1047   1.110   .     S
C984   H1049   1.111   .     S
C985   H1000   1.078   .     S
C985   N1053   1.364   .     A
C985   C182    1.414   1_565 S
C986   N1054   1.366   .     A
C986   H1011   1.081   .     S
C987   H1022   1.081   .     S
C987   N1053   1.366   .     A
C987   C179    1.413   1_565 S
C988   O1059   1.383   .     S
H992   C2165   1.112   1_554 S
H993   C2166   1.110   1_554 S
H1002  C2170   1.107   .     S
H1007  C1100   1.109   .     S
H1017  C166    1.108   1_565 S
H1018  C1104   1.111   .     S
H1025  C170    1.110   1_565 S
H1045  C1116   1.111   .     S
H1046  C1116   1.108   .     S
H1048  C1118   1.110   .     S
H1052  C2164   1.114   .     S
N1053  Zn1071  2.004   .     S
N1054  Zn1072  2.004   .     S
O1055  Zn1071  2.014   .     S
O1056  C2168   1.416   .     S
O1063  Zn1072  2.014   .     S
O1064  Zn1071  2.012   .     S
O1065  Zn1072  2.012   .     S
O1066  Zn1071  1.978   .     S
O1067  Zn1072  1.978   .     S
O1068  Zn1071  1.974   .     S
O1069  Zn1072  1.974   .     S
C1073  C1091   1.438   .     S
C1073  O1189   1.283   .     A
C1073  O1199   1.286   .     A
C1074  C1090   1.407   .     A
C1074  O1194   1.387   .     S
C1074  C808    1.380   1_655 S
C1075  C1090   1.406   .     A
C1075  O1195   1.385   .     S
C1075  C854    1.375   1_655 S
C1076  O1196   1.384   .     S
C1076  C1091   1.414   .     A
C1077  C1088   1.412   .     A
C1077  O1204   1.385   .     S
C1077  C1081   1.385   .     A
C1078  C1089   1.418   .     A
C1078  C1082   1.386   .     A
C1078  O1190   1.388   .     S
C1079  C1083   1.382   .     A
C1079  C1089   1.404   .     A
C1079  O1191   1.380   .     S
C1080  C1085   1.387   .     A
C1080  C1088   1.405   .     A
C1080  O1192   1.383   .     S
C1081  C1086   1.395   .     A
C1081  H1167   1.084   .     S
C1082  C1087   1.394   .     A
C1082  H1178   1.084   .     S
C1083  C1087   1.394   .     A
C1083  H1184   1.084   .     S
C1084  O1197   1.281   .     A
C1084  O1198   1.283   .     A
C1084  C1090   1.429   .     S
C1085  C1086   1.398   .     A
C1085  H1185   1.084   .     S
C1086  C1095   1.440   .     S
C1087  C1106   1.432   .     S
C1088  C2295   1.451   1_554 S
C1089  C2294   1.451   .     S
C1091  C1122   1.406   .     A
C1092  O1204   1.412   .     S
C1092  H1124   1.115   .     S
C1092  C2299   1.529   1_554 S
C1092  H2392   1.114   1_554 S
C1093  H1125   1.112   .     S
C1093  C1094   1.525   .     S
C1093  C2298   1.529   .     S
C1093  H2332   1.112   .     S
C1094  H1129   1.111   .     S
C1094  H1128   1.110   .     S
C1094  H2333   1.110   .     S
C1095  O1203   1.286   .     A
C1095  O1200   1.285   .     A
C1096  H1131   1.108   .     S
C1096  H1130   1.111   .     S
C1096  C2303   1.527   1_554 S
C1096  O2396   1.416   1_554 S
C1097  H1132   1.110   .     S
C1097  H1133   1.110   .     S
C1097  C2302   1.527   .     S
C1097  C2304   1.523   .     S
C1098  H1135   1.111   .     S
C1098  H1137   1.109   .     S
C1098  C2303   1.523   1_554 S
C1098  H2342   1.107   1_554 S
C1099  O1191   1.410   .     S
C1099  H1138   1.116   .     S
C1099  H1139   1.111   .     S
C1099  C1100   1.525   .     S
C1100  H1140   1.111   .     S
C1100  C2307   1.529   .     S
C1101  H1144   1.110   .     S
C1101  H1142   1.111   .     S
C1101  H1143   1.107   .     S
C1101  C2306   1.529   1_554 S
C1102  H1146   1.110   .     S
C1102  H1147   1.118   .     S
C1102  C1103   1.529   .     S
C1102  O1192   1.413   .     S
C1103  H1149   1.112   .     S
C1103  C1104   1.525   .     S
C1103  H1148   1.112   .     S
C1104  H1150   1.110   .     S
C1105  H1154   1.119   .     S
C1105  O1193   1.419   .     S
C1105  C1107   1.528   .     S
C1105  H1153   1.113   .     S
C1106  O1201   1.284   .     A
C1106  O1202   1.284   .     A
C1107  C1108   1.518   .     S
C1107  H1155   1.111   .     S
C1107  H1157   1.110   .     S
C1108  H1160   1.107   .     S
C1108  H1158   1.110   .     S
C1109  H1162   1.119   .     S
C1109  C1110   1.530   .     S
C1109  H1161   1.109   .     S
C1109  O1194   1.422   .     S
C1110  C1111   1.527   .     S
C1110  H1164   1.111   .     S
C1110  H1163   1.111   .     S
C1111  H1165   1.109   .     S
C1111  H1168   1.111   .     S
C1111  H362    1.109   1_565 S
C1112  H1170   1.115   .     S
C1112  O1195   1.421   .     S
C1112  H1169   1.111   .     S
C1112  C845    1.542   1_655 S
C1113  H1171   1.109   .     S
C1113  H1172   1.110   .     S
C1114  H1175   1.110   .     S
C1114  H1173   1.110   .     S
C1114  C845    1.525   1_655 S
C1114  H906    1.111   1_655 S
C1115  H1177   1.118   .     S
C1115  H1176   1.109   .     S
C1115  C1116   1.536   .     S
C1115  O1196   1.421   .     S
C1116  C1118   1.526   .     S
C1117  H1123   1.081   .     S
C1117  N1188   1.366   .     A
C1118  H1181   1.110   .     S
C1118  H1183   1.111   .     S
C1119  H1134   1.078   .     S
C1119  N1187   1.364   .     A
C1119  C316    1.414   1_565 S
C1120  N1188   1.366   .     A
C1120  H1145   1.081   .     S
C1121  H1156   1.081   .     S
C1121  N1187   1.366   .     A
C1121  C313    1.413   1_565 S
C1122  O1193   1.383   .     S
H1126  C2299   1.112   1_554 S
H1127  C2300   1.110   1_554 S
H1136  C2304   1.107   .     S
H1141  C832    1.109   1_655 S
H1151  C300    1.108   1_565 S
H1152  C836    1.111   1_655 S
H1159  C304    1.110   1_565 S
H1179  C848    1.111   1_655 S
H1180  C848    1.108   1_655 S
H1182  C850    1.110   1_655 S
H1186  C2298   1.114   .     S
N1187  Zn1205  2.004   .     S
N1188  Zn1206  2.004   .     S
O1189  Zn1205  2.014   .     S
O1190  C2302   1.416   .     S
O1197  Zn1206  2.014   .     S
O1198  Zn1205  2.012   .     S
O1199  Zn1206  2.012   .     S
O1200  Zn1205  1.978   .     S
O1201  Zn1206  1.978   .     S
O1202  Zn1205  1.974   .     S
O1203  Zn1206  1.974   .     S
C1207  C1225   1.438   .     S
C1207  O1323   1.283   .     A
C1207  O1333   1.286   .     A
C1208  C1224   1.407   .     A
C1208  O1328   1.387   .     S
C1208  C1344   1.380   .     S
C1209  C1224   1.406   .     A
C1209  O1329   1.385   .     S
C1209  C1390   1.375   .     S
C1210  O1330   1.384   .     S
C1210  C1225   1.414   .     A
C1210  C1476   1.380   1_455 S
C1211  C1222   1.412   .     A
C1211  O1338   1.385   .     S
C1211  C1215   1.385   .     A
C1212  C1223   1.418   .     A
C1212  C1216   1.386   .     A
C1212  O1324   1.388   .     S
C1213  C1217   1.382   .     A
C1213  C1223   1.404   .     A
C1213  O1325   1.380   .     S
C1214  C1219   1.387   .     A
C1214  C1222   1.405   .     A
C1214  O1326   1.383   .     S
C1215  C1220   1.395   .     A
C1215  H1301   1.084   .     S
C1216  C1221   1.394   .     A
C1216  H1312   1.084   .     S
C1217  C1221   1.394   .     A
C1217  H1318   1.084   .     S
C1218  O1331   1.281   .     A
C1218  O1332   1.283   .     A
C1218  C1224   1.429   .     S
C1219  C1220   1.398   .     A
C1219  H1319   1.084   .     S
C1220  C1229   1.440   .     S
C1221  C1240   1.432   .     S
C1223  C16     1.451   1_556 S
C1225  C1256   1.406   .     A
C1226  O1338   1.412   .     S
C1226  H1258   1.115   .     S
C1227  H1259   1.112   .     S
C1227  C1228   1.525   .     S
C1227  C20     1.529   1_556 S
C1227  H54     1.112   1_556 S
C1228  H1263   1.111   .     S
C1228  H1262   1.110   .     S
C1228  H55     1.110   1_556 S
C1229  O1337   1.286   .     A
C1229  O1334   1.285   .     A
C1230  H1265   1.108   .     S
C1230  H1264   1.111   .     S
C1231  H1266   1.110   .     S
C1231  H1267   1.110   .     S
C1231  C24     1.527   1_556 S
C1231  C26     1.523   1_556 S
C1232  H1269   1.111   .     S
C1232  H1271   1.109   .     S
C1233  O1325   1.410   .     S
C1233  H1272   1.116   .     S
C1233  H1273   1.111   .     S
C1233  C1234   1.525   .     S
C1234  H1274   1.111   .     S
C1234  C29     1.529   1_556 S
C1234  H1543   1.109   1_455 S
C1235  H1278   1.110   .     S
C1235  H1276   1.111   .     S
C1235  H1277   1.107   .     S
C1236  H1280   1.110   .     S
C1236  H1281   1.118   .     S
C1236  C1237   1.529   .     S
C1236  O1326   1.413   .     S
C1237  H1283   1.112   .     S
C1237  C1238   1.525   .     S
C1237  H1282   1.112   .     S
C1238  H1284   1.110   .     S
C1238  H2089   1.108   1_545 S
C1238  H1554   1.111   1_455 S
C1239  H1288   1.119   .     S
C1239  O1327   1.419   .     S
C1239  C1241   1.528   .     S
C1239  H1287   1.113   .     S
C1240  O1335   1.284   .     A
C1240  O1336   1.284   .     A
C1241  C1242   1.518   .     S
C1241  H1289   1.111   .     S
C1241  H1291   1.110   .     S
C1242  H1294   1.107   .     S
C1242  H1292   1.110   .     S
C1242  H2097   1.110   1_545 S
C1243  H1296   1.119   .     S
C1243  C1244   1.530   .     S
C1243  H1295   1.109   .     S
C1243  O1328   1.422   .     S
C1244  C1245   1.527   .     S
C1244  H1298   1.111   .     S
C1244  H1297   1.111   .     S
C1245  H1299   1.109   .     S
C1245  H1302   1.111   .     S
C1245  H1702   1.109   .     S
C1246  H1304   1.115   .     S
C1246  O1329   1.421   .     S
C1246  H1303   1.111   .     S
C1246  C1381   1.542   .     S
C1247  H1305   1.109   .     S
C1247  H1306   1.110   .     S
C1247  C1514   1.542   1_455 S
C1247  C1516   1.525   1_455 S
C1248  H1309   1.110   .     S
C1248  H1307   1.110   .     S
C1248  C1381   1.525   .     S
C1248  H1442   1.111   .     S
C1249  H1311   1.118   .     S
C1249  H1310   1.109   .     S
C1249  C1250   1.536   .     S
C1249  O1330   1.421   .     S
C1250  C1252   1.526   .     S
C1250  H1581   1.111   1_455 S
C1250  H1582   1.108   1_455 S
C1251  H1257   1.081   .     S
C1251  N1322   1.366   .     A
C1251  C2059   1.413   1_545 S
C1252  H1315   1.110   .     S
C1252  H1317   1.111   .     S
C1252  H1584   1.110   1_455 S
C1253  H1268   1.078   .     S
C1253  N1321   1.364   .     A
C1253  C1656   1.414   .     S
C1254  N1322   1.366   .     A
C1254  H1279   1.081   .     S
C1254  C2057   1.414   1_545 S
C1255  H1290   1.081   .     S
C1255  N1321   1.366   .     A
C1255  C1653   1.413   .     S
C1256  O1327   1.383   .     S
C1256  C1477   1.375   1_455 S
H1270  C26     1.107   1_556 S
H1275  C1368   1.109   .     S
H1285  C1640   1.108   .     S
H1286  C1372   1.111   .     S
H1293  C1644   1.110   .     S
H1300  C2049   1.109   1_545 S
H1308  C1516   1.111   1_455 S
H1313  C1384   1.111   .     S
H1314  C1384   1.108   .     S
H1316  C1386   1.110   .     S
H1320  C20     1.114   1_556 S
N1321  Zn1339  2.004   .     S
N1322  Zn1340  2.004   .     S
O1323  Zn1339  2.014   .     S
O1324  C24     1.416   1_556 S
O1331  Zn1340  2.014   .     S
O1332  Zn1339  2.012   .     S
O1333  Zn1340  2.012   .     S
O1334  Zn1339  1.978   .     S
O1335  Zn1340  1.978   .     S
O1336  Zn1339  1.974   .     S
O1337  Zn1340  1.974   .     S
C1341  C1359   1.438   .     S
C1341  O1457   1.283   .     A
C1341  O1467   1.286   .     A
C1342  C1358   1.407   .     A
C1342  O1462   1.387   .     S
C1342  C1478   1.380   .     S
C1343  C1358   1.406   .     A
C1343  O1463   1.385   .     S
C1343  C1524   1.375   .     S
C1344  O1464   1.384   .     S
C1344  C1359   1.414   .     A
C1345  C1356   1.412   .     A
C1345  O1472   1.385   .     S
C1345  C1349   1.385   .     A
C1346  C1357   1.418   .     A
C1346  C1350   1.386   .     A
C1346  O1458   1.388   .     S
C1347  C1351   1.382   .     A
C1347  C1357   1.404   .     A
C1347  O1459   1.380   .     S
C1348  C1353   1.387   .     A
C1348  C1356   1.405   .     A
C1348  O1460   1.383   .     S
C1349  C1354   1.395   .     A
C1349  H1435   1.084   .     S
C1350  C1355   1.394   .     A
C1350  H1446   1.084   .     S
C1351  C1355   1.394   .     A
C1351  H1452   1.084   .     S
C1352  O1465   1.281   .     A
C1352  O1466   1.283   .     A
C1352  C1358   1.429   .     S
C1353  C1354   1.398   .     A
C1353  H1453   1.084   .     S
C1354  C1363   1.440   .     S
C1355  C1374   1.432   .     S
C1357  C150    1.451   1_556 S
C1359  C1390   1.406   .     A
C1360  O1472   1.412   .     S
C1360  H1392   1.115   .     S
C1361  H1393   1.112   .     S
C1361  C1362   1.525   .     S
C1361  C154    1.529   1_556 S
C1361  H188    1.112   1_556 S
C1362  H1397   1.111   .     S
C1362  H1396   1.110   .     S
C1362  H189    1.110   1_556 S
C1363  O1471   1.286   .     A
C1363  O1468   1.285   .     A
C1364  H1399   1.108   .     S
C1364  H1398   1.111   .     S
C1365  H1400   1.110   .     S
C1365  H1401   1.110   .     S
C1365  C158    1.527   1_556 S
C1365  C160    1.523   1_556 S
C1366  H1403   1.111   .     S
C1366  H1405   1.109   .     S
C1367  O1459   1.410   .     S
C1367  H1406   1.116   .     S
C1367  H1407   1.111   .     S
C1367  C1368   1.525   .     S
C1368  H1408   1.111   .     S
C1368  C163    1.529   1_556 S
C1369  H1412   1.110   .     S
C1369  H1410   1.111   .     S
C1369  H1411   1.107   .     S
C1370  H1414   1.110   .     S
C1370  H1415   1.118   .     S
C1370  C1371   1.529   .     S
C1370  O1460   1.413   .     S
C1371  H1417   1.112   .     S
C1371  C1372   1.525   .     S
C1371  H1416   1.112   .     S
C1372  H1418   1.110   .     S
C1372  H2223   1.108   1_545 S
C1373  H1422   1.119   .     S
C1373  O1461   1.419   .     S
C1373  C1375   1.528   .     S
C1373  H1421   1.113   .     S
C1374  O1469   1.284   .     A
C1374  O1470   1.284   .     A
C1375  C1376   1.518   .     S
C1375  H1423   1.111   .     S
C1375  H1425   1.110   .     S
C1376  H1428   1.107   .     S
C1376  H1426   1.110   .     S
C1376  H2231   1.110   1_545 S
C1377  H1430   1.119   .     S
C1377  C1378   1.530   .     S
C1377  H1429   1.109   .     S
C1377  O1462   1.422   .     S
C1378  C1379   1.527   .     S
C1378  H1432   1.111   .     S
C1378  H1431   1.111   .     S
C1379  H1433   1.109   .     S
C1379  H1436   1.111   .     S
C1379  H1836   1.109   .     S
C1380  H1438   1.115   .     S
C1380  O1463   1.421   .     S
C1380  H1437   1.111   .     S
C1380  C1515   1.542   .     S
C1381  H1439   1.109   .     S
C1381  H1440   1.110   .     S
C1382  H1443   1.110   .     S
C1382  H1441   1.110   .     S
C1382  C1515   1.525   .     S
C1382  H1576   1.111   .     S
C1383  H1445   1.118   .     S
C1383  H1444   1.109   .     S
C1383  C1384   1.536   .     S
C1383  O1464   1.421   .     S
C1384  C1386   1.526   .     S
C1385  H1391   1.081   .     S
C1385  N1456   1.366   .     A
C1385  C2193   1.413   1_545 S
C1386  H1449   1.110   .     S
C1386  H1451   1.111   .     S
C1387  H1402   1.078   .     S
C1387  N1455   1.364   .     A
C1387  C1790   1.414   .     S
C1388  N1456   1.366   .     A
C1388  H1413   1.081   .     S
C1388  C2191   1.414   1_545 S
C1389  H1424   1.081   .     S
C1389  N1455   1.366   .     A
C1389  C1787   1.413   .     S
C1390  O1461   1.383   .     S
H1404  C160    1.107   1_556 S
H1409  C1502   1.109   .     S
H1419  C1774   1.108   .     S
H1420  C1506   1.111   .     S
H1427  C1778   1.110   .     S
H1434  C2183   1.109   1_545 S
H1447  C1518   1.111   .     S
H1448  C1518   1.108   .     S
H1450  C1520   1.110   .     S
H1454  C154    1.114   1_556 S
N1455  Zn1473  2.004   .     S
N1456  Zn1474  2.004   .     S
O1457  Zn1473  2.014   .     S
O1458  C158    1.416   1_556 S
O1465  Zn1474  2.014   .     S
O1466  Zn1473  2.012   .     S
O1467  Zn1474  2.012   .     S
O1468  Zn1473  1.978   .     S
O1469  Zn1474  1.978   .     S
O1470  Zn1473  1.974   .     S
O1471  Zn1474  1.974   .     S
C1475  C1493   1.438   .     S
C1475  O1591   1.283   .     A
C1475  O1601   1.286   .     A
C1476  C1492   1.407   .     A
C1476  O1596   1.387   .     S
C1476  C1210   1.380   1_655 S
C1477  C1492   1.406   .     A
C1477  O1597   1.385   .     S
C1477  C1256   1.375   1_655 S
C1478  O1598   1.384   .     S
C1478  C1493   1.414   .     A
C1479  C1490   1.412   .     A
C1479  O1606   1.385   .     S
C1479  C1483   1.385   .     A
C1480  C1491   1.418   .     A
C1480  C1484   1.386   .     A
C1480  O1592   1.388   .     S
C1481  C1485   1.382   .     A
C1481  C1491   1.404   .     A
C1481  O1593   1.380   .     S
C1482  C1487   1.387   .     A
C1482  C1490   1.405   .     A
C1482  O1594   1.383   .     S
C1483  C1488   1.395   .     A
C1483  H1569   1.084   .     S
C1484  C1489   1.394   .     A
C1484  H1580   1.084   .     S
C1485  C1489   1.394   .     A
C1485  H1586   1.084   .     S
C1486  O1599   1.281   .     A
C1486  O1600   1.283   .     A
C1486  C1492   1.429   .     S
C1487  C1488   1.398   .     A
C1487  H1587   1.084   .     S
C1488  C1497   1.440   .     S
C1489  C1508   1.432   .     S
C1491  C284    1.451   1_556 S
C1493  C1524   1.406   .     A
C1494  O1606   1.412   .     S
C1494  H1526   1.115   .     S
C1495  H1527   1.112   .     S
C1495  C1496   1.525   .     S
C1495  C288    1.529   1_556 S
C1495  H322    1.112   1_556 S
C1496  H1531   1.111   .     S
C1496  H1530   1.110   .     S
C1496  H323    1.110   1_556 S
C1497  O1605   1.286   .     A
C1497  O1602   1.285   .     A
C1498  H1533   1.108   .     S
C1498  H1532   1.111   .     S
C1499  H1534   1.110   .     S
C1499  H1535   1.110   .     S
C1499  C292    1.527   1_556 S
C1499  C294    1.523   1_556 S
C1500  H1537   1.111   .     S
C1500  H1539   1.109   .     S
C1501  O1593   1.410   .     S
C1501  H1540   1.116   .     S
C1501  H1541   1.111   .     S
C1501  C1502   1.525   .     S
C1502  H1542   1.111   .     S
C1502  C297    1.529   1_556 S
C1503  H1546   1.110   .     S
C1503  H1544   1.111   .     S
C1503  H1545   1.107   .     S
C1504  H1548   1.110   .     S
C1504  H1549   1.118   .     S
C1504  C1505   1.529   .     S
C1504  O1594   1.413   .     S
C1505  H1551   1.112   .     S
C1505  C1506   1.525   .     S
C1505  H1550   1.112   .     S
C1506  H1552   1.110   .     S
C1506  H2357   1.108   1_545 S
C1507  H1556   1.119   .     S
C1507  O1595   1.419   .     S
C1507  C1509   1.528   .     S
C1507  H1555   1.113   .     S
C1508  O1603   1.284   .     A
C1508  O1604   1.284   .     A
C1509  C1510   1.518   .     S
C1509  H1557   1.111   .     S
C1509  H1559   1.110   .     S
C1510  H1562   1.107   .     S
C1510  H1560   1.110   .     S
C1510  H2365   1.110   1_545 S
C1511  H1564   1.119   .     S
C1511  C1512   1.530   .     S
C1511  H1563   1.109   .     S
C1511  O1596   1.422   .     S
C1512  C1513   1.527   .     S
C1512  H1566   1.111   .     S
C1512  H1565   1.111   .     S
C1513  H1567   1.109   .     S
C1513  H1570   1.111   .     S
C1513  H1970   1.109   .     S
C1514  H1572   1.115   .     S
C1514  O1597   1.421   .     S
C1514  H1571   1.111   .     S
C1514  C1247   1.542   1_655 S
C1515  H1573   1.109   .     S
C1515  H1574   1.110   .     S
C1516  H1577   1.110   .     S
C1516  H1575   1.110   .     S
C1516  C1247   1.525   1_655 S
C1516  H1308   1.111   1_655 S
C1517  H1579   1.118   .     S
C1517  H1578   1.109   .     S
C1517  C1518   1.536   .     S
C1517  O1598   1.421   .     S
C1518  C1520   1.526   .     S
C1519  H1525   1.081   .     S
C1519  N1590   1.366   .     A
C1519  C2327   1.413   1_545 S
C1520  H1583   1.110   .     S
C1520  H1585   1.111   .     S
C1521  H1536   1.078   .     S
C1521  N1589   1.364   .     A
C1521  C1924   1.414   .     S
C1522  N1590   1.366   .     A
C1522  H1547   1.081   .     S
C1522  C2325   1.414   1_545 S
C1523  H1558   1.081   .     S
C1523  N1589   1.366   .     A
C1523  C1921   1.413   .     S
C1524  O1595   1.383   .     S
H1538  C294    1.107   1_556 S
H1543  C1234   1.109   1_655 S
H1553  C1908   1.108   .     S
H1554  C1238   1.111   1_655 S
H1561  C1912   1.110   .     S
H1568  C2317   1.109   1_545 S
H1581  C1250   1.111   1_655 S
H1582  C1250   1.108   1_655 S
H1584  C1252   1.110   1_655 S
H1588  C288    1.114   1_556 S
N1589  Zn1607  2.004   .     S
N1590  Zn1608  2.004   .     S
O1591  Zn1607  2.014   .     S
O1592  C292    1.416   1_556 S
O1599  Zn1608  2.014   .     S
O1600  Zn1607  2.012   .     S
O1601  Zn1608  2.012   .     S
O1602  Zn1607  1.978   .     S
O1603  Zn1608  1.978   .     S
O1604  Zn1607  1.974   .     S
O1605  Zn1608  1.974   .     S
C1609  C1627   1.438   .     S
C1609  O1725   1.283   .     A
C1609  O1735   1.286   .     A
C1610  C1626   1.407   .     A
C1610  O1730   1.387   .     S
C1610  C1746   1.380   .     S
C1611  C1626   1.406   .     A
C1611  O1731   1.385   .     S
C1611  C1792   1.375   .     S
C1612  O1732   1.384   .     S
C1612  C1627   1.414   .     A
C1612  C1878   1.380   1_455 S
C1613  C1624   1.412   .     A
C1613  O1740   1.385   .     S
C1613  C1617   1.385   .     A
C1614  C1625   1.418   .     A
C1614  C1618   1.386   .     A
C1614  O1726   1.388   .     S
C1615  C1619   1.382   .     A
C1615  C1625   1.404   .     A
C1615  O1727   1.380   .     S
C1616  C1621   1.387   .     A
C1616  C1624   1.405   .     A
C1616  O1728   1.383   .     S
C1617  C1622   1.395   .     A
C1617  H1703   1.084   .     S
C1618  C1623   1.394   .     A
C1618  H1714   1.084   .     S
C1619  C1623   1.394   .     A
C1619  H1720   1.084   .     S
C1620  O1733   1.281   .     A
C1620  O1734   1.283   .     A
C1620  C1626   1.429   .     S
C1621  C1622   1.398   .     A
C1621  H1721   1.084   .     S
C1622  C1631   1.440   .     S
C1623  C1642   1.432   .     S
C1625  C418    1.451   1_556 S
C1627  C1658   1.406   .     A
C1628  O1740   1.412   .     S
C1628  H1660   1.115   .     S
C1629  H1661   1.112   .     S
C1629  C1630   1.525   .     S
C1629  C422    1.529   1_556 S
C1629  H456    1.112   1_556 S
C1630  H1665   1.111   .     S
C1630  H1664   1.110   .     S
C1630  H457    1.110   1_556 S
C1631  O1739   1.286   .     A
C1631  O1736   1.285   .     A
C1632  H1667   1.108   .     S
C1632  H1666   1.111   .     S
C1633  H1668   1.110   .     S
C1633  H1669   1.110   .     S
C1633  C426    1.527   1_556 S
C1633  C428    1.523   1_556 S
C1634  H1671   1.111   .     S
C1634  H1673   1.109   .     S
C1635  O1727   1.410   .     S
C1635  H1674   1.116   .     S
C1635  H1675   1.111   .     S
C1635  C1636   1.525   .     S
C1636  H1676   1.111   .     S
C1636  C431    1.529   1_556 S
C1636  H1945   1.109   1_455 S
C1637  H1680   1.110   .     S
C1637  H1678   1.111   .     S
C1637  H1679   1.107   .     S
C1638  H1682   1.110   .     S
C1638  H1683   1.118   .     S
C1638  C1639   1.529   .     S
C1638  O1728   1.413   .     S
C1639  H1685   1.112   .     S
C1639  C1640   1.525   .     S
C1639  H1684   1.112   .     S
C1640  H1686   1.110   .     S
C1640  H1956   1.111   1_455 S
C1641  H1690   1.119   .     S
C1641  O1729   1.419   .     S
C1641  C1643   1.528   .     S
C1641  H1689   1.113   .     S
C1642  O1737   1.284   .     A
C1642  O1738   1.284   .     A
C1643  C1644   1.518   .     S
C1643  H1691   1.111   .     S
C1643  H1693   1.110   .     S
C1644  H1696   1.107   .     S
C1644  H1694   1.110   .     S
C1645  H1698   1.119   .     S
C1645  C1646   1.530   .     S
C1645  H1697   1.109   .     S
C1645  O1730   1.422   .     S
C1646  C1647   1.527   .     S
C1646  H1700   1.111   .     S
C1646  H1699   1.111   .     S
C1647  H1701   1.109   .     S
C1647  H1704   1.111   .     S
C1647  H2104   1.109   .     S
C1648  H1706   1.115   .     S
C1648  O1731   1.421   .     S
C1648  H1705   1.111   .     S
C1648  C1783   1.542   .     S
C1649  H1707   1.109   .     S
C1649  H1708   1.110   .     S
C1649  C1916   1.542   1_455 S
C1649  C1918   1.525   1_455 S
C1650  H1711   1.110   .     S
C1650  H1709   1.110   .     S
C1650  C1783   1.525   .     S
C1650  H1844   1.111   .     S
C1651  H1713   1.118   .     S
C1651  H1712   1.109   .     S
C1651  C1652   1.536   .     S
C1651  O1732   1.421   .     S
C1652  C1654   1.526   .     S
C1652  H1983   1.111   1_455 S
C1652  H1984   1.108   1_455 S
C1653  H1659   1.081   .     S
C1653  N1724   1.366   .     A
C1654  H1717   1.110   .     S
C1654  H1719   1.111   .     S
C1654  H1986   1.110   1_455 S
C1655  H1670   1.078   .     S
C1655  N1723   1.364   .     A
C1655  C2058   1.414   .     S
C1656  N1724   1.366   .     A
C1656  H1681   1.081   .     S
C1657  H1692   1.081   .     S
C1657  N1723   1.366   .     A
C1657  C2055   1.413   .     S
C1658  O1729   1.383   .     S
C1658  C1879   1.375   1_455 S
H1672  C428    1.107   1_556 S
H1677  C1770   1.109   .     S
H1687  C2042   1.108   .     S
H1688  C1774   1.111   .     S
H1695  C2046   1.110   .     S
H1710  C1918   1.111   1_455 S
H1715  C1786   1.111   .     S
H1716  C1786   1.108   .     S
H1718  C1788   1.110   .     S
H1722  C422    1.114   1_556 S
N1723  Zn1741  2.004   .     S
N1724  Zn1742  2.004   .     S
O1725  Zn1741  2.014   .     S
O1726  C426    1.416   1_556 S
O1733  Zn1742  2.014   .     S
O1734  Zn1741  2.012   .     S
O1735  Zn1742  2.012   .     S
O1736  Zn1741  1.978   .     S
O1737  Zn1742  1.978   .     S
O1738  Zn1741  1.974   .     S
O1739  Zn1742  1.974   .     S
C1743  C1761   1.438   .     S
C1743  O1859   1.283   .     A
C1743  O1869   1.286   .     A
C1744  C1760   1.407   .     A
C1744  O1864   1.387   .     S
C1744  C1880   1.380   .     S
C1745  C1760   1.406   .     A
C1745  O1865   1.385   .     S
C1745  C1926   1.375   .     S
C1746  O1866   1.384   .     S
C1746  C1761   1.414   .     A
C1747  C1758   1.412   .     A
C1747  O1874   1.385   .     S
C1747  C1751   1.385   .     A
C1748  C1759   1.418   .     A
C1748  C1752   1.386   .     A
C1748  O1860   1.388   .     S
C1749  C1753   1.382   .     A
C1749  C1759   1.404   .     A
C1749  O1861   1.380   .     S
C1750  C1755   1.387   .     A
C1750  C1758   1.405   .     A
C1750  O1862   1.383   .     S
C1751  C1756   1.395   .     A
C1751  H1837   1.084   .     S
C1752  C1757   1.394   .     A
C1752  H1848   1.084   .     S
C1753  C1757   1.394   .     A
C1753  H1854   1.084   .     S
C1754  O1867   1.281   .     A
C1754  O1868   1.283   .     A
C1754  C1760   1.429   .     S
C1755  C1756   1.398   .     A
C1755  H1855   1.084   .     S
C1756  C1765   1.440   .     S
C1757  C1776   1.432   .     S
C1759  C552    1.451   1_556 S
C1761  C1792   1.406   .     A
C1762  O1874   1.412   .     S
C1762  H1794   1.115   .     S
C1763  H1795   1.112   .     S
C1763  C1764   1.525   .     S
C1763  C556    1.529   1_556 S
C1763  H590    1.112   1_556 S
C1764  H1799   1.111   .     S
C1764  H1798   1.110   .     S
C1764  H591    1.110   1_556 S
C1765  O1873   1.286   .     A
C1765  O1870   1.285   .     A
C1766  H1801   1.108   .     S
C1766  H1800   1.111   .     S
C1767  H1802   1.110   .     S
C1767  H1803   1.110   .     S
C1767  C560    1.527   1_556 S
C1767  C562    1.523   1_556 S
C1768  H1805   1.111   .     S
C1768  H1807   1.109   .     S
C1769  O1861   1.410   .     S
C1769  H1808   1.116   .     S
C1769  H1809   1.111   .     S
C1769  C1770   1.525   .     S
C1770  H1810   1.111   .     S
C1770  C565    1.529   1_556 S
C1771  H1814   1.110   .     S
C1771  H1812   1.111   .     S
C1771  H1813   1.107   .     S
C1772  H1816   1.110   .     S
C1772  H1817   1.118   .     S
C1772  C1773   1.529   .     S
C1772  O1862   1.413   .     S
C1773  H1819   1.112   .     S
C1773  C1774   1.525   .     S
C1773  H1818   1.112   .     S
C1774  H1820   1.110   .     S
C1775  H1824   1.119   .     S
C1775  O1863   1.419   .     S
C1775  C1777   1.528   .     S
C1775  H1823   1.113   .     S
C1776  O1871   1.284   .     A
C1776  O1872   1.284   .     A
C1777  C1778   1.518   .     S
C1777  H1825   1.111   .     S
C1777  H1827   1.110   .     S
C1778  H1830   1.107   .     S
C1778  H1828   1.110   .     S
C1779  H1832   1.119   .     S
C1779  C1780   1.530   .     S
C1779  H1831   1.109   .     S
C1779  O1864   1.422   .     S
C1780  C1781   1.527   .     S
C1780  H1834   1.111   .     S
C1780  H1833   1.111   .     S
C1781  H1835   1.109   .     S
C1781  H1838   1.111   .     S
C1781  H2238   1.109   .     S
C1782  H1840   1.115   .     S
C1782  O1865   1.421   .     S
C1782  H1839   1.111   .     S
C1782  C1917   1.542   .     S
C1783  H1841   1.109   .     S
C1783  H1842   1.110   .     S
C1784  H1845   1.110   .     S
C1784  H1843   1.110   .     S
C1784  C1917   1.525   .     S
C1784  H1978   1.111   .     S
C1785  H1847   1.118   .     S
C1785  H1846   1.109   .     S
C1785  C1786   1.536   .     S
C1785  O1866   1.421   .     S
C1786  C1788   1.526   .     S
C1787  H1793   1.081   .     S
C1787  N1858   1.366   .     A
C1788  H1851   1.110   .     S
C1788  H1853   1.111   .     S
C1789  H1804   1.078   .     S
C1789  N1857   1.364   .     A
C1789  C2192   1.414   .     S
C1790  N1858   1.366   .     A
C1790  H1815   1.081   .     S
C1791  H1826   1.081   .     S
C1791  N1857   1.366   .     A
C1791  C2189   1.413   .     S
C1792  O1863   1.383   .     S
H1806  C562    1.107   1_556 S
H1811  C1904   1.109   .     S
H1821  C2176   1.108   .     S
H1822  C1908   1.111   .     S
H1829  C2180   1.110   .     S
H1849  C1920   1.111   .     S
H1850  C1920   1.108   .     S
H1852  C1922   1.110   .     S
H1856  C556    1.114   1_556 S
N1857  Zn1875  2.004   .     S
N1858  Zn1876  2.004   .     S
O1859  Zn1875  2.014   .     S
O1860  C560    1.416   1_556 S
O1867  Zn1876  2.014   .     S
O1868  Zn1875  2.012   .     S
O1869  Zn1876  2.012   .     S
O1870  Zn1875  1.978   .     S
O1871  Zn1876  1.978   .     S
O1872  Zn1875  1.974   .     S
O1873  Zn1876  1.974   .     S
C1877  C1895   1.438   .     S
C1877  O1993   1.283   .     A
C1877  O2003   1.286   .     A
C1878  C1894   1.407   .     A
C1878  O1998   1.387   .     S
C1878  C1612   1.380   1_655 S
C1879  C1894   1.406   .     A
C1879  O1999   1.385   .     S
C1879  C1658   1.375   1_655 S
C1880  O2000   1.384   .     S
C1880  C1895   1.414   .     A
C1881  C1892   1.412   .     A
C1881  O2008   1.385   .     S
C1881  C1885   1.385   .     A
C1882  C1893   1.418   .     A
C1882  C1886   1.386   .     A
C1882  O1994   1.388   .     S
C1883  C1887   1.382   .     A
C1883  C1893   1.404   .     A
C1883  O1995   1.380   .     S
C1884  C1889   1.387   .     A
C1884  C1892   1.405   .     A
C1884  O1996   1.383   .     S
C1885  C1890   1.395   .     A
C1885  H1971   1.084   .     S
C1886  C1891   1.394   .     A
C1886  H1982   1.084   .     S
C1887  C1891   1.394   .     A
C1887  H1988   1.084   .     S
C1888  O2001   1.281   .     A
C1888  O2002   1.283   .     A
C1888  C1894   1.429   .     S
C1889  C1890   1.398   .     A
C1889  H1989   1.084   .     S
C1890  C1899   1.440   .     S
C1891  C1910   1.432   .     S
C1893  C686    1.451   1_556 S
C1895  C1926   1.406   .     A
C1896  O2008   1.412   .     S
C1896  H1928   1.115   .     S
C1897  H1929   1.112   .     S
C1897  C1898   1.525   .     S
C1897  C690    1.529   1_556 S
C1897  H724    1.112   1_556 S
C1898  H1933   1.111   .     S
C1898  H1932   1.110   .     S
C1898  H725    1.110   1_556 S
C1899  O2007   1.286   .     A
C1899  O2004   1.285   .     A
C1900  H1935   1.108   .     S
C1900  H1934   1.111   .     S
C1901  H1936   1.110   .     S
C1901  H1937   1.110   .     S
C1901  C694    1.527   1_556 S
C1901  C696    1.523   1_556 S
C1902  H1939   1.111   .     S
C1902  H1941   1.109   .     S
C1903  O1995   1.410   .     S
C1903  H1942   1.116   .     S
C1903  H1943   1.111   .     S
C1903  C1904   1.525   .     S
C1904  H1944   1.111   .     S
C1904  C699    1.529   1_556 S
C1905  H1948   1.110   .     S
C1905  H1946   1.111   .     S
C1905  H1947   1.107   .     S
C1906  H1950   1.110   .     S
C1906  H1951   1.118   .     S
C1906  C1907   1.529   .     S
C1906  O1996   1.413   .     S
C1907  H1953   1.112   .     S
C1907  C1908   1.525   .     S
C1907  H1952   1.112   .     S
C1908  H1954   1.110   .     S
C1909  H1958   1.119   .     S
C1909  O1997   1.419   .     S
C1909  C1911   1.528   .     S
C1909  H1957   1.113   .     S
C1910  O2005   1.284   .     A
C1910  O2006   1.284   .     A
C1911  C1912   1.518   .     S
C1911  H1959   1.111   .     S
C1911  H1961   1.110   .     S
C1912  H1964   1.107   .     S
C1912  H1962   1.110   .     S
C1913  H1966   1.119   .     S
C1913  C1914   1.530   .     S
C1913  H1965   1.109   .     S
C1913  O1998   1.422   .     S
C1914  C1915   1.527   .     S
C1914  H1968   1.111   .     S
C1914  H1967   1.111   .     S
C1915  H1969   1.109   .     S
C1915  H1972   1.111   .     S
C1915  H2372   1.109   .     S
C1916  H1974   1.115   .     S
C1916  O1999   1.421   .     S
C1916  H1973   1.111   .     S
C1916  C1649   1.542   1_655 S
C1917  H1975   1.109   .     S
C1917  H1976   1.110   .     S
C1918  H1979   1.110   .     S
C1918  H1977   1.110   .     S
C1918  C1649   1.525   1_655 S
C1918  H1710   1.111   1_655 S
C1919  H1981   1.118   .     S
C1919  H1980   1.109   .     S
C1919  C1920   1.536   .     S
C1919  O2000   1.421   .     S
C1920  C1922   1.526   .     S
C1921  H1927   1.081   .     S
C1921  N1992   1.366   .     A
C1922  H1985   1.110   .     S
C1922  H1987   1.111   .     S
C1923  H1938   1.078   .     S
C1923  N1991   1.364   .     A
C1923  C2326   1.414   .     S
C1924  N1992   1.366   .     A
C1924  H1949   1.081   .     S
C1925  H1960   1.081   .     S
C1925  N1991   1.366   .     A
C1925  C2323   1.413   .     S
C1926  O1997   1.383   .     S
H1940  C696    1.107   1_556 S
H1945  C1636   1.109   1_655 S
H1955  C2310   1.108   .     S
H1956  C1640   1.111   1_655 S
H1963  C2314   1.110   .     S
H1983  C1652   1.111   1_655 S
H1984  C1652   1.108   1_655 S
H1986  C1654   1.110   1_655 S
H1990  C690    1.114   1_556 S
N1991  Zn2009  2.004   .     S
N1992  Zn2010  2.004   .     S
O1993  Zn2009  2.014   .     S
O1994  C694    1.416   1_556 S
O2001  Zn2010  2.014   .     S
O2002  Zn2009  2.012   .     S
O2003  Zn2010  2.012   .     S
O2004  Zn2009  1.978   .     S
O2005  Zn2010  1.978   .     S
O2006  Zn2009  1.974   .     S
O2007  Zn2010  1.974   .     S
C2011  C2029   1.438   .     S
C2011  O2127   1.283   .     A
C2011  O2137   1.286   .     A
C2012  C2028   1.407   .     A
C2012  O2132   1.387   .     S
C2012  C2148   1.380   .     S
C2013  C2028   1.406   .     A
C2013  O2133   1.385   .     S
C2013  C2194   1.375   .     S
C2014  O2134   1.384   .     S
C2014  C2029   1.414   .     A
C2014  C2280   1.380   1_455 S
C2015  C2026   1.412   .     A
C2015  O2142   1.385   .     S
C2015  C2019   1.385   .     A
C2016  C2027   1.418   .     A
C2016  C2020   1.386   .     A
C2016  O2128   1.388   .     S
C2017  C2021   1.382   .     A
C2017  C2027   1.404   .     A
C2017  O2129   1.380   .     S
C2018  C2023   1.387   .     A
C2018  C2026   1.405   .     A
C2018  O2130   1.383   .     S
C2019  C2024   1.395   .     A
C2019  H2105   1.084   .     S
C2020  C2025   1.394   .     A
C2020  H2116   1.084   .     S
C2021  C2025   1.394   .     A
C2021  H2122   1.084   .     S
C2022  O2135   1.281   .     A
C2022  O2136   1.283   .     A
C2022  C2028   1.429   .     S
C2023  C2024   1.398   .     A
C2023  H2123   1.084   .     S
C2024  C2033   1.440   .     S
C2025  C2044   1.432   .     S
C2027  C820    1.451   1_556 S
C2029  C2060   1.406   .     A
C2030  O2142   1.412   .     S
C2030  H2062   1.115   .     S
C2031  H2063   1.112   .     S
C2031  C2032   1.525   .     S
C2031  C824    1.529   1_556 S
C2031  H858    1.112   1_556 S
C2032  H2067   1.111   .     S
C2032  H2066   1.110   .     S
C2032  H859    1.110   1_556 S
C2033  O2141   1.286   .     A
C2033  O2138   1.285   .     A
C2034  H2069   1.108   .     S
C2034  H2068   1.111   .     S
C2035  H2070   1.110   .     S
C2035  H2071   1.110   .     S
C2035  C828    1.527   1_556 S
C2035  C830    1.523   1_556 S
C2036  H2073   1.111   .     S
C2036  H2075   1.109   .     S
C2037  O2129   1.410   .     S
C2037  H2076   1.116   .     S
C2037  H2077   1.111   .     S
C2037  C2038   1.525   .     S
C2038  H2078   1.111   .     S
C2038  C833    1.529   1_556 S
C2038  H2347   1.109   1_455 S
C2039  H2082   1.110   .     S
C2039  H2080   1.111   .     S
C2039  H2081   1.107   .     S
C2040  H2084   1.110   .     S
C2040  H2085   1.118   .     S
C2040  C2041   1.529   .     S
C2040  O2130   1.413   .     S
C2041  H2087   1.112   .     S
C2041  C2042   1.525   .     S
C2041  H2086   1.112   .     S
C2042  H2088   1.110   .     S
C2042  H2358   1.111   1_455 S
C2043  H2092   1.119   .     S
C2043  O2131   1.419   .     S
C2043  C2045   1.528   .     S
C2043  H2091   1.113   .     S
C2044  O2139   1.284   .     A
C2044  O2140   1.284   .     A
C2045  C2046   1.518   .     S
C2045  H2093   1.111   .     S
C2045  H2095   1.110   .     S
C2046  H2098   1.107   .     S
C2046  H2096   1.110   .     S
C2047  H2100   1.119   .     S
C2047  C2048   1.530   .     S
C2047  H2099   1.109   .     S
C2047  O2132   1.422   .     S
C2048  C2049   1.527   .     S
C2048  H2102   1.111   .     S
C2048  H2101   1.111   .     S
C2049  H2103   1.109   .     S
C2049  H2106   1.111   .     S
C2049  H1300   1.109   1_565 S
C2050  H2108   1.115   .     S
C2050  O2133   1.421   .     S
C2050  H2107   1.111   .     S
C2050  C2185   1.542   .     S
C2051  H2109   1.109   .     S
C2051  H2110   1.110   .     S
C2051  C2318   1.542   1_455 S
C2051  C2320   1.525   1_455 S
C2052  H2113   1.110   .     S
C2052  H2111   1.110   .     S
C2052  C2185   1.525   .     S
C2052  H2246   1.111   .     S
C2053  H2115   1.118   .     S
C2053  H2114   1.109   .     S
C2053  C2054   1.536   .     S
C2053  O2134   1.421   .     S
C2054  C2056   1.526   .     S
C2054  H2385   1.111   1_455 S
C2054  H2386   1.108   1_455 S
C2055  H2061   1.081   .     S
C2055  N2126   1.366   .     A
C2056  H2119   1.110   .     S
C2056  H2121   1.111   .     S
C2056  H2388   1.110   1_455 S
C2057  H2072   1.078   .     S
C2057  N2125   1.364   .     A
C2057  C1254   1.414   1_565 S
C2058  N2126   1.366   .     A
C2058  H2083   1.081   .     S
C2059  H2094   1.081   .     S
C2059  N2125   1.366   .     A
C2059  C1251   1.413   1_565 S
C2060  O2131   1.383   .     S
C2060  C2281   1.375   1_455 S
H2074  C830    1.107   1_556 S
H2079  C2172   1.109   .     S
H2089  C1238   1.108   1_565 S
H2090  C2176   1.111   .     S
H2097  C1242   1.110   1_565 S
H2112  C2320   1.111   1_455 S
H2117  C2188   1.111   .     S
H2118  C2188   1.108   .     S
H2120  C2190   1.110   .     S
H2124  C824    1.114   1_556 S
N2125  Zn2143  2.004   .     S
N2126  Zn2144  2.004   .     S
O2127  Zn2143  2.014   .     S
O2128  C828    1.416   1_556 S
O2135  Zn2144  2.014   .     S
O2136  Zn2143  2.012   .     S
O2137  Zn2144  2.012   .     S
O2138  Zn2143  1.978   .     S
O2139  Zn2144  1.978   .     S
O2140  Zn2143  1.974   .     S
O2141  Zn2144  1.974   .     S
C2145  C2163   1.438   .     S
C2145  O2261   1.283   .     A
C2145  O2271   1.286   .     A
C2146  C2162   1.407   .     A
C2146  O2266   1.387   .     S
C2146  C2282   1.380   .     S
C2147  C2162   1.406   .     A
C2147  O2267   1.385   .     S
C2147  C2328   1.375   .     S
C2148  O2268   1.384   .     S
C2148  C2163   1.414   .     A
C2149  C2160   1.412   .     A
C2149  O2276   1.385   .     S
C2149  C2153   1.385   .     A
C2150  C2161   1.418   .     A
C2150  C2154   1.386   .     A
C2150  O2262   1.388   .     S
C2151  C2155   1.382   .     A
C2151  C2161   1.404   .     A
C2151  O2263   1.380   .     S
C2152  C2157   1.387   .     A
C2152  C2160   1.405   .     A
C2152  O2264   1.383   .     S
C2153  C2158   1.395   .     A
C2153  H2239   1.084   .     S
C2154  C2159   1.394   .     A
C2154  H2250   1.084   .     S
C2155  C2159   1.394   .     A
C2155  H2256   1.084   .     S
C2156  O2269   1.281   .     A
C2156  O2270   1.283   .     A
C2156  C2162   1.429   .     S
C2157  C2158   1.398   .     A
C2157  H2257   1.084   .     S
C2158  C2167   1.440   .     S
C2159  C2178   1.432   .     S
C2161  C954    1.451   1_556 S
C2163  C2194   1.406   .     A
C2164  O2276   1.412   .     S
C2164  H2196   1.115   .     S
C2165  H2197   1.112   .     S
C2165  C2166   1.525   .     S
C2165  C958    1.529   1_556 S
C2165  H992    1.112   1_556 S
C2166  H2201   1.111   .     S
C2166  H2200   1.110   .     S
C2166  H993    1.110   1_556 S
C2167  O2275   1.286   .     A
C2167  O2272   1.285   .     A
C2168  H2203   1.108   .     S
C2168  H2202   1.111   .     S
C2169  H2204   1.110   .     S
C2169  H2205   1.110   .     S
C2169  C962    1.527   1_556 S
C2169  C964    1.523   1_556 S
C2170  H2207   1.111   .     S
C2170  H2209   1.109   .     S
C2171  O2263   1.410   .     S
C2171  H2210   1.116   .     S
C2171  H2211   1.111   .     S
C2171  C2172   1.525   .     S
C2172  H2212   1.111   .     S
C2172  C967    1.529   1_556 S
C2173  H2216   1.110   .     S
C2173  H2214   1.111   .     S
C2173  H2215   1.107   .     S
C2174  H2218   1.110   .     S
C2174  H2219   1.118   .     S
C2174  C2175   1.529   .     S
C2174  O2264   1.413   .     S
C2175  H2221   1.112   .     S
C2175  C2176   1.525   .     S
C2175  H2220   1.112   .     S
C2176  H2222   1.110   .     S
C2177  H2226   1.119   .     S
C2177  O2265   1.419   .     S
C2177  C2179   1.528   .     S
C2177  H2225   1.113   .     S
C2178  O2273   1.284   .     A
C2178  O2274   1.284   .     A
C2179  C2180   1.518   .     S
C2179  H2227   1.111   .     S
C2179  H2229   1.110   .     S
C2180  H2232   1.107   .     S
C2180  H2230   1.110   .     S
C2181  H2234   1.119   .     S
C2181  C2182   1.530   .     S
C2181  H2233   1.109   .     S
C2181  O2266   1.422   .     S
C2182  C2183   1.527   .     S
C2182  H2236   1.111   .     S
C2182  H2235   1.111   .     S
C2183  H2237   1.109   .     S
C2183  H2240   1.111   .     S
C2183  H1434   1.109   1_565 S
C2184  H2242   1.115   .     S
C2184  O2267   1.421   .     S
C2184  H2241   1.111   .     S
C2184  C2319   1.542   .     S
C2185  H2243   1.109   .     S
C2185  H2244   1.110   .     S
C2186  H2247   1.110   .     S
C2186  H2245   1.110   .     S
C2186  C2319   1.525   .     S
C2186  H2380   1.111   .     S
C2187  H2249   1.118   .     S
C2187  H2248   1.109   .     S
C2187  C2188   1.536   .     S
C2187  O2268   1.421   .     S
C2188  C2190   1.526   .     S
C2189  H2195   1.081   .     S
C2189  N2260   1.366   .     A
C2190  H2253   1.110   .     S
C2190  H2255   1.111   .     S
C2191  H2206   1.078   .     S
C2191  N2259   1.364   .     A
C2191  C1388   1.414   1_565 S
C2192  N2260   1.366   .     A
C2192  H2217   1.081   .     S
C2193  H2228   1.081   .     S
C2193  N2259   1.366   .     A
C2193  C1385   1.413   1_565 S
C2194  O2265   1.383   .     S
H2208  C964    1.107   1_556 S
H2213  C2306   1.109   .     S
H2223  C1372   1.108   1_565 S
H2224  C2310   1.111   .     S
H2231  C1376   1.110   1_565 S
H2251  C2322   1.111   .     S
H2252  C2322   1.108   .     S
H2254  C2324   1.110   .     S
H2258  C958    1.114   1_556 S
N2259  Zn2277  2.004   .     S
N2260  Zn2278  2.004   .     S
O2261  Zn2277  2.014   .     S
O2262  C962    1.416   1_556 S
O2269  Zn2278  2.014   .     S
O2270  Zn2277  2.012   .     S
O2271  Zn2278  2.012   .     S
O2272  Zn2277  1.978   .     S
O2273  Zn2278  1.978   .     S
O2274  Zn2277  1.974   .     S
O2275  Zn2278  1.974   .     S
C2279  C2297   1.438   .     S
C2279  O2395   1.283   .     A
C2279  O2405   1.286   .     A
C2280  C2296   1.407   .     A
C2280  O2400   1.387   .     S
C2280  C2014   1.380   1_655 S
C2281  C2296   1.406   .     A
C2281  O2401   1.385   .     S
C2281  C2060   1.375   1_655 S
C2282  O2402   1.384   .     S
C2282  C2297   1.414   .     A
C2283  C2294   1.412   .     A
C2283  O2410   1.385   .     S
C2283  C2287   1.385   .     A
C2284  C2295   1.418   .     A
C2284  C2288   1.386   .     A
C2284  O2396   1.388   .     S
C2285  C2289   1.382   .     A
C2285  C2295   1.404   .     A
C2285  O2397   1.380   .     S
C2286  C2291   1.387   .     A
C2286  C2294   1.405   .     A
C2286  O2398   1.383   .     S
C2287  C2292   1.395   .     A
C2287  H2373   1.084   .     S
C2288  C2293   1.394   .     A
C2288  H2384   1.084   .     S
C2289  C2293   1.394   .     A
C2289  H2390   1.084   .     S
C2290  O2403   1.281   .     A
C2290  O2404   1.283   .     A
C2290  C2296   1.429   .     S
C2291  C2292   1.398   .     A
C2291  H2391   1.084   .     S
C2292  C2301   1.440   .     S
C2293  C2312   1.432   .     S
C2295  C1088   1.451   1_556 S
C2297  C2328   1.406   .     A
C2298  O2410   1.412   .     S
C2298  H2330   1.115   .     S
C2299  H2331   1.112   .     S
C2299  C2300   1.525   .     S
C2299  C1092   1.529   1_556 S
C2299  H1126   1.112   1_556 S
C2300  H2335   1.111   .     S
C2300  H2334   1.110   .     S
C2300  H1127   1.110   1_556 S
C2301  O2409   1.286   .     A
C2301  O2406   1.285   .     A
C2302  H2337   1.108   .     S
C2302  H2336   1.111   .     S
C2303  H2338   1.110   .     S
C2303  H2339   1.110   .     S
C2303  C1096   1.527   1_556 S
C2303  C1098   1.523   1_556 S
C2304  H2341   1.111   .     S
C2304  H2343   1.109   .     S
C2305  O2397   1.410   .     S
C2305  H2344   1.116   .     S
C2305  H2345   1.111   .     S
C2305  C2306   1.525   .     S
C2306  H2346   1.111   .     S
C2306  C1101   1.529   1_556 S
C2307  H2350   1.110   .     S
C2307  H2348   1.111   .     S
C2307  H2349   1.107   .     S
C2308  H2352   1.110   .     S
C2308  H2353   1.118   .     S
C2308  C2309   1.529   .     S
C2308  O2398   1.413   .     S
C2309  H2355   1.112   .     S
C2309  C2310   1.525   .     S
C2309  H2354   1.112   .     S
C2310  H2356   1.110   .     S
C2311  H2360   1.119   .     S
C2311  O2399   1.419   .     S
C2311  C2313   1.528   .     S
C2311  H2359   1.113   .     S
C2312  O2407   1.284   .     A
C2312  O2408   1.284   .     A
C2313  C2314   1.518   .     S
C2313  H2361   1.111   .     S
C2313  H2363   1.110   .     S
C2314  H2366   1.107   .     S
C2314  H2364   1.110   .     S
C2315  H2368   1.119   .     S
C2315  C2316   1.530   .     S
C2315  H2367   1.109   .     S
C2315  O2400   1.422   .     S
C2316  C2317   1.527   .     S
C2316  H2370   1.111   .     S
C2316  H2369   1.111   .     S
C2317  H2371   1.109   .     S
C2317  H2374   1.111   .     S
C2317  H1568   1.109   1_565 S
C2318  H2376   1.115   .     S
C2318  O2401   1.421   .     S
C2318  H2375   1.111   .     S
C2318  C2051   1.542   1_655 S
C2319  H2377   1.109   .     S
C2319  H2378   1.110   .     S
C2320  H2381   1.110   .     S
C2320  H2379   1.110   .     S
C2320  C2051   1.525   1_655 S
C2320  H2112   1.111   1_655 S
C2321  H2383   1.118   .     S
C2321  H2382   1.109   .     S
C2321  C2322   1.536   .     S
C2321  O2402   1.421   .     S
C2322  C2324   1.526   .     S
C2323  H2329   1.081   .     S
C2323  N2394   1.366   .     A
C2324  H2387   1.110   .     S
C2324  H2389   1.111   .     S
C2325  H2340   1.078   .     S
C2325  N2393   1.364   .     A
C2325  C1522   1.414   1_565 S
C2326  N2394   1.366   .     A
C2326  H2351   1.081   .     S
C2327  H2362   1.081   .     S
C2327  N2393   1.366   .     A
C2327  C1519   1.413   1_565 S
C2328  O2399   1.383   .     S
H2342  C1098   1.107   1_556 S
H2347  C2038   1.109   1_655 S
H2357  C1506   1.108   1_565 S
H2358  C2042   1.111   1_655 S
H2365  C1510   1.110   1_565 S
H2385  C2054   1.111   1_655 S
H2386  C2054   1.108   1_655 S
H2388  C2056   1.110   1_655 S
H2392  C1092   1.114   1_556 S
N2393  Zn2411  2.004   .     S
N2394  Zn2412  2.004   .     S
O2395  Zn2411  2.014   .     S
O2396  C1096   1.416   1_556 S
O2403  Zn2412  2.014   .     S
O2404  Zn2411  2.012   .     S
O2405  Zn2412  2.012   .     S
O2406  Zn2411  1.978   .     S
O2407  Zn2412  1.978   .     S
O2408  Zn2411  1.974   .     S
O2409  Zn2412  1.974   .     S
