data_str_m3_o1_o2_pcu_sym.9
_audit_creation_date              2020-01-03
_audit_creation_method            'Materials Studio'
_symmetry_space_group_name_H-M    'P1'
_symmetry_Int_Tables_number       1
_symmetry_cell_setting            triclinic
loop_
_symmetry_equiv_pos_as_xyz
  x,y,z
_cell_length_a                    32.0278
_cell_length_b                    29.7188
_cell_length_c                    29.7374
_cell_angle_alpha                 90.6095
_cell_angle_beta                  91.8847
_cell_angle_gamma                 92.4167
loop_
_atom_site_label
_atom_site_type_symbol
_atom_site_fract_x
_atom_site_fract_y
_atom_site_fract_z
_atom_site_U_iso_or_equiv
_atom_site_adp_type
_atom_site_occupancy
C1     C     0.08679   0.16581   0.24975   0.00000  Uiso   1.00
C2     C     0.31481   0.20080   0.26993   0.00000  Uiso   1.00
C3     C     0.30963   0.14018   0.21327   0.00000  Uiso   1.00
C4     C     0.02350   0.19404   0.27736   0.00000  Uiso   1.00
C5     C     0.21270   0.19965   0.05311   0.00000  Uiso   1.00
C6     C     0.20966   0.13830   0.45080   0.00000  Uiso   1.00
C7     C     0.16696   0.20419   0.45807   0.00000  Uiso   1.00
C8     C     0.16930   0.13034   0.04309   0.00000  Uiso   1.00
C9     C     0.20319   0.20121   0.09884   0.00000  Uiso   1.00
C10    C     0.19646   0.13387   0.40588   0.00000  Uiso   1.00
C11    C     0.15917   0.20407   0.41111   0.00000  Uiso   1.00
C12    C     0.24659   0.16759   0.24730   0.00000  Uiso   1.00
C13    C     0.16375   0.12887   0.08927   0.00000  Uiso   1.00
C14    C     0.17765   0.16606   0.11635   0.00000  Uiso   1.00
C15    C     0.17338   0.16793   0.38539   0.00000  Uiso   1.00
C16    C     0.19313   0.16625   0.02535   0.00000  Uiso   1.00
C17    C     0.19255   0.17156   0.47706   0.00000  Uiso   1.00
C18    C     0.29097   0.16977   0.24300   0.00000  Uiso   1.00
C19    C     0.04257   0.16463   0.24843   0.00000  Uiso   1.00
C20    C     0.26797   0.04497   0.28407   0.00000  Uiso   1.00
C21    C     0.10298   0.28763   0.16024   0.00000  Uiso   1.00
C22    C     0.06508   0.03170   0.24162   0.00000  Uiso   1.00
C23    C     0.16861   0.16648   0.16385   0.00000  Uiso   1.00
C24    C     0.22867   0.29223   0.34176   0.00000  Uiso   1.00
C25    C     0.28075   0.21869   0.04205   0.00000  Uiso   1.00
C26    C     0.27453   0.10954   0.45528   0.00000  Uiso   1.00
C27    C     0.10950   0.22347   0.49638   0.00000  Uiso   1.00
C28    C     0.11173   0.10063   0.00428   0.00000  Uiso   1.00
C29    C     0.21533   0.27746   0.11428   0.00000  Uiso   1.00
C30    C     0.17203   0.06214   0.39256   0.00000  Uiso   1.00
C31    C     0.14145   0.27913   0.40322   0.00000  Uiso   1.00
C32    C     0.16956   0.05658   0.11167   0.00000  Uiso   1.00
C33    C     0.04748   0.15029   0.14439   0.00000  Uiso   1.00
C34    C     0.16697   0.16692   0.33654   0.00000  Uiso   1.00
C35    C     0.30409   0.27165   0.24644   0.00000  Uiso   1.00
C36    C     0.29740   0.07388   0.17049   0.00000  Uiso   1.00
C37    C     0.05223   0.25986   0.30979   0.00000  Uiso   1.00
C38    C     0.19780   0.02597   0.27250   0.00000  Uiso   1.00
C39    C     0.13564   0.30748   0.22752   0.00000  Uiso   1.00
C40    C     0.13426   0.02233   0.23014   0.00000  Uiso   1.00
C41    C     0.19686   0.31078   0.27396   0.00000  Uiso   1.00
C42    C     0.02023   0.14136   0.21329   0.00000  Uiso   1.00
H43    H     0.28609   0.07758   0.28531   0.00000  Uiso   1.00
H44    H     0.26136   0.29192   0.35522   0.00000  Uiso   1.00
H45    H     0.21209   0.26242   0.35550   0.00000  Uiso   1.00
H46    H     0.21521   0.32342   0.35447   0.00000  Uiso   1.00
H47    H     0.28543   0.18454   0.02787   0.00000  Uiso   1.00
H48    H     0.28984   0.21975   0.07849   0.00000  Uiso   1.00
H49    H     0.30204   0.24276   0.02477   0.00000  Uiso   1.00
H50    H     0.28735   0.14499   0.45590   0.00000  Uiso   1.00
H51    H     0.27593   0.09501   0.42083   0.00000  Uiso   1.00
H52    H     0.29510   0.08988   0.47765   0.00000  Uiso   1.00
H53    H     0.10963   0.19732   0.02272   0.00000  Uiso   1.00
H54    H     0.26927   0.03115   0.24927   0.00000  Uiso   1.00
H55    H     0.09008   0.21158   0.46647   0.00000  Uiso   1.00
H56    H     0.09439   0.25310   0.01061   0.00000  Uiso   1.00
H57    H     0.10863   0.12720   0.47858   0.00000  Uiso   1.00
H58    H     0.09293   0.10828   0.03405   0.00000  Uiso   1.00
H59    H     0.09842   0.06875   0.48899   0.00000  Uiso   1.00
H60    H     0.18669   0.28035   0.09231   0.00000  Uiso   1.00
H61    H     0.24297   0.29159   0.09689   0.00000  Uiso   1.00
H62    H     0.21156   0.29864   0.14472   0.00000  Uiso   1.00
H63    H     0.18306   0.04021   0.42011   0.00000  Uiso   1.00
H64    H     0.16498   0.04127   0.36203   0.00000  Uiso   1.00
H65    H     0.28382   0.02282   0.30834   0.00000  Uiso   1.00
H66    H     0.14169   0.07646   0.40167   0.00000  Uiso   1.00
H67    H     0.17358   0.28573   0.41797   0.00000  Uiso   1.00
H68    H     0.11804   0.29040   0.42711   0.00000  Uiso   1.00
H69    H     0.13855   0.30013   0.37285   0.00000  Uiso   1.00
H70    H     0.17467   0.04067   0.07845   0.00000  Uiso   1.00
H71    H     0.15510   0.03058   0.13323   0.00000  Uiso   1.00
H72    H     0.20010   0.06736   0.12825   0.00000  Uiso   1.00
H73    H     0.06814   0.17965   0.15537   0.00000  Uiso   1.00
H74    H     0.01721   0.16185   0.13021   0.00000  Uiso   1.00
H75    H     0.06322   0.13271   0.11701   0.00000  Uiso   1.00
H76    H     0.08049   0.26235   0.14441   0.00000  Uiso   1.00
H77    H     0.31387   0.30509   0.26056   0.00000  Uiso   1.00
H78    H     0.27415   0.27443   0.22704   0.00000  Uiso   1.00
H79    H     0.32854   0.26306   0.22215   0.00000  Uiso   1.00
H80    H     0.31590   0.05858   0.19817   0.00000  Uiso   1.00
H81    H     0.31549   0.07487   0.13930   0.00000  Uiso   1.00
H82    H     0.26939   0.05133   0.16371   0.00000  Uiso   1.00
H83    H     0.05461   0.27057   0.27428   0.00000  Uiso   1.00
H84    H     0.08234   0.27020   0.32683   0.00000  Uiso   1.00
H85    H     0.02739   0.27791   0.32673   0.00000  Uiso   1.00
H86    H     0.13404   0.28171   0.14644   0.00000  Uiso   1.00
H87    H     0.09218   0.32132   0.15068   0.00000  Uiso   1.00
H88    H     0.04479   0.06062   0.24468   0.00000  Uiso   1.00
H89    H     0.07412   0.02247   0.27681   0.00000  Uiso   1.00
H90    H     0.04608   0.00385   0.22500   0.00000  Uiso   1.00
N91    N     0.16667   0.28573   0.25000   0.00000  Uiso   1.00
N92    N     0.16667   0.04760   0.25000   0.00000  Uiso   1.00
O93    O     0.10559   0.20487   0.25000   0.00000  Uiso   1.00
O94    O     0.10311   0.28187   0.20718   0.00000  Uiso   1.00
O95    O     0.09937   0.04408   0.21481   0.00000  Uiso   1.00
O96    O     0.22909   0.28840   0.29450   0.00000  Uiso   1.00
O97    O     0.23930   0.23181   0.03469   0.00000  Uiso   1.00
O98    O     0.23349   0.10587   0.47115   0.00000  Uiso   1.00
O99    O     0.15074   0.23669   0.48553   0.00000  Uiso   1.00
O100   O     0.15420   0.09484   0.01573   0.00000  Uiso   1.00
O101   O     0.22259   0.23302   0.12816   0.00000  Uiso   1.00
O102   O     0.20393   0.09464   0.38281   0.00000  Uiso   1.00
O103   O     0.13225   0.23374   0.39044   0.00000  Uiso   1.00
O104   O     0.22774   0.12846   0.25000   0.00000  Uiso   1.00
O105   O     0.14218   0.09244   0.10747   0.00000  Uiso   1.00
O106   O     0.04139   0.11993   0.17993   0.00000  Uiso   1.00
O107   O     0.29894   0.24116   0.28262   0.00000  Uiso   1.00
O108   O     0.28404   0.11739   0.18082   0.00000  Uiso   1.00
O109   O     0.04571   0.21292   0.31441   0.00000  Uiso   1.00
O110   O     0.22774   0.20487   0.25000   0.00000  Uiso   1.00
O111   O     0.10559   0.12846   0.25000   0.00000  Uiso   1.00
O112   O     0.16666   0.20489   0.18453   0.00000  Uiso   1.00
O113   O     0.16667   0.12845   0.31547   0.00000  Uiso   1.00
O114   O     0.16667   0.20489   0.31547   0.00000  Uiso   1.00
O115   O     0.16666   0.12845   0.18453   0.00000  Uiso   1.00
O116   O     0.22700   0.05213   0.29770   0.00000  Uiso   1.00
Zn117  Zn    0.16667   0.21771   0.25000   0.00000  Uiso   1.00
Zn118  Zn    0.16667   0.11563   0.25000   0.00000  Uiso   1.00
C119   C     0.42012   0.16581   0.24975   0.00000  Uiso   1.00
C120   C     0.64814   0.20080   0.26993   0.00000  Uiso   1.00
C121   C     0.64297   0.14018   0.21327   0.00000  Uiso   1.00
C122   C     0.35683   0.19404   0.27736   0.00000  Uiso   1.00
C123   C     0.54603   0.19965   0.05311   0.00000  Uiso   1.00
C124   C     0.54299   0.13830   0.45080   0.00000  Uiso   1.00
C125   C     0.50029   0.20419   0.45807   0.00000  Uiso   1.00
C126   C     0.50264   0.13034   0.04309   0.00000  Uiso   1.00
C127   C     0.53652   0.20121   0.09884   0.00000  Uiso   1.00
C128   C     0.52980   0.13387   0.40588   0.00000  Uiso   1.00
C129   C     0.49251   0.20407   0.41111   0.00000  Uiso   1.00
C130   C     0.57992   0.16759   0.24730   0.00000  Uiso   1.00
C131   C     0.49708   0.12887   0.08927   0.00000  Uiso   1.00
C132   C     0.51098   0.16606   0.11635   0.00000  Uiso   1.00
C133   C     0.50672   0.16793   0.38539   0.00000  Uiso   1.00
C134   C     0.52647   0.16625   0.02535   0.00000  Uiso   1.00
C135   C     0.52589   0.17156   0.47706   0.00000  Uiso   1.00
C136   C     0.62430   0.16977   0.24300   0.00000  Uiso   1.00
C137   C     0.37591   0.16463   0.24843   0.00000  Uiso   1.00
C138   C     0.60131   0.04497   0.28407   0.00000  Uiso   1.00
C139   C     0.43631   0.28763   0.16024   0.00000  Uiso   1.00
C140   C     0.39842   0.03170   0.24162   0.00000  Uiso   1.00
C141   C     0.50195   0.16648   0.16385   0.00000  Uiso   1.00
C142   C     0.56200   0.29223   0.34176   0.00000  Uiso   1.00
C143   C     0.61409   0.21869   0.04205   0.00000  Uiso   1.00
C144   C     0.60786   0.10954   0.45528   0.00000  Uiso   1.00
C145   C     0.44283   0.22347   0.49638   0.00000  Uiso   1.00
C146   C     0.44506   0.10063   0.00428   0.00000  Uiso   1.00
C147   C     0.54866   0.27746   0.11428   0.00000  Uiso   1.00
C148   C     0.50537   0.06214   0.39256   0.00000  Uiso   1.00
C149   C     0.47479   0.27913   0.40322   0.00000  Uiso   1.00
C150   C     0.50289   0.05658   0.11167   0.00000  Uiso   1.00
C151   C     0.38082   0.15029   0.14439   0.00000  Uiso   1.00
C152   C     0.50030   0.16692   0.33654   0.00000  Uiso   1.00
C153   C     0.63742   0.27165   0.24644   0.00000  Uiso   1.00
C154   C     0.63073   0.07388   0.17049   0.00000  Uiso   1.00
C155   C     0.38557   0.25986   0.30979   0.00000  Uiso   1.00
C156   C     0.53113   0.02597   0.27250   0.00000  Uiso   1.00
C157   C     0.46897   0.30748   0.22752   0.00000  Uiso   1.00
C158   C     0.46759   0.02233   0.23014   0.00000  Uiso   1.00
C159   C     0.53020   0.31078   0.27396   0.00000  Uiso   1.00
C160   C     0.35357   0.14136   0.21329   0.00000  Uiso   1.00
H161   H     0.61942   0.07758   0.28531   0.00000  Uiso   1.00
H162   H     0.59470   0.29192   0.35522   0.00000  Uiso   1.00
H163   H     0.54542   0.26242   0.35550   0.00000  Uiso   1.00
H164   H     0.54854   0.32342   0.35447   0.00000  Uiso   1.00
H165   H     0.61876   0.18454   0.02787   0.00000  Uiso   1.00
H166   H     0.62317   0.21975   0.07849   0.00000  Uiso   1.00
H167   H     0.63537   0.24276   0.02477   0.00000  Uiso   1.00
H168   H     0.62069   0.14499   0.45590   0.00000  Uiso   1.00
H169   H     0.60926   0.09501   0.42083   0.00000  Uiso   1.00
H170   H     0.62844   0.08988   0.47765   0.00000  Uiso   1.00
H171   H     0.44297   0.19732   0.02272   0.00000  Uiso   1.00
H172   H     0.60261   0.03115   0.24927   0.00000  Uiso   1.00
H173   H     0.42341   0.21158   0.46647   0.00000  Uiso   1.00
H174   H     0.42772   0.25310   0.01061   0.00000  Uiso   1.00
H175   H     0.44197   0.12720   0.47858   0.00000  Uiso   1.00
H176   H     0.42626   0.10828   0.03405   0.00000  Uiso   1.00
H177   H     0.43175   0.06875   0.48899   0.00000  Uiso   1.00
H178   H     0.52002   0.28035   0.09231   0.00000  Uiso   1.00
H179   H     0.57630   0.29159   0.09689   0.00000  Uiso   1.00
H180   H     0.54490   0.29864   0.14472   0.00000  Uiso   1.00
H181   H     0.51639   0.04021   0.42011   0.00000  Uiso   1.00
H182   H     0.49831   0.04127   0.36203   0.00000  Uiso   1.00
H183   H     0.61715   0.02282   0.30834   0.00000  Uiso   1.00
H184   H     0.47503   0.07646   0.40167   0.00000  Uiso   1.00
H185   H     0.50691   0.28573   0.41797   0.00000  Uiso   1.00
H186   H     0.45137   0.29040   0.42711   0.00000  Uiso   1.00
H187   H     0.47188   0.30013   0.37285   0.00000  Uiso   1.00
H188   H     0.50800   0.04067   0.07845   0.00000  Uiso   1.00
H189   H     0.48844   0.03058   0.13323   0.00000  Uiso   1.00
H190   H     0.53344   0.06736   0.12825   0.00000  Uiso   1.00
H191   H     0.40148   0.17965   0.15537   0.00000  Uiso   1.00
H192   H     0.35054   0.16185   0.13021   0.00000  Uiso   1.00
H193   H     0.39655   0.13271   0.11701   0.00000  Uiso   1.00
H194   H     0.41383   0.26235   0.14441   0.00000  Uiso   1.00
H195   H     0.64720   0.30509   0.26056   0.00000  Uiso   1.00
H196   H     0.60748   0.27443   0.22704   0.00000  Uiso   1.00
H197   H     0.66187   0.26306   0.22215   0.00000  Uiso   1.00
H198   H     0.64923   0.05858   0.19817   0.00000  Uiso   1.00
H199   H     0.64882   0.07487   0.13930   0.00000  Uiso   1.00
H200   H     0.60272   0.05133   0.16371   0.00000  Uiso   1.00
H201   H     0.38794   0.27057   0.27428   0.00000  Uiso   1.00
H202   H     0.41567   0.27020   0.32683   0.00000  Uiso   1.00
H203   H     0.36072   0.27791   0.32673   0.00000  Uiso   1.00
H204   H     0.46738   0.28171   0.14644   0.00000  Uiso   1.00
H205   H     0.42552   0.32132   0.15068   0.00000  Uiso   1.00
H206   H     0.37812   0.06062   0.24468   0.00000  Uiso   1.00
H207   H     0.40746   0.02247   0.27681   0.00000  Uiso   1.00
H208   H     0.37941   0.00385   0.22500   0.00000  Uiso   1.00
N209   N     0.50000   0.28573   0.25000   0.00000  Uiso   1.00
N210   N     0.50000   0.04760   0.25000   0.00000  Uiso   1.00
O211   O     0.43892   0.20487   0.25000   0.00000  Uiso   1.00
O212   O     0.43644   0.28187   0.20718   0.00000  Uiso   1.00
O213   O     0.43270   0.04408   0.21481   0.00000  Uiso   1.00
O214   O     0.56242   0.28840   0.29450   0.00000  Uiso   1.00
O215   O     0.57263   0.23181   0.03469   0.00000  Uiso   1.00
O216   O     0.56683   0.10587   0.47115   0.00000  Uiso   1.00
O217   O     0.48407   0.23669   0.48553   0.00000  Uiso   1.00
O218   O     0.48754   0.09484   0.01573   0.00000  Uiso   1.00
O219   O     0.55593   0.23302   0.12816   0.00000  Uiso   1.00
O220   O     0.53726   0.09464   0.38281   0.00000  Uiso   1.00
O221   O     0.46558   0.23374   0.39044   0.00000  Uiso   1.00
O222   O     0.56108   0.12846   0.25000   0.00000  Uiso   1.00
O223   O     0.47551   0.09244   0.10747   0.00000  Uiso   1.00
O224   O     0.37472   0.11993   0.17993   0.00000  Uiso   1.00
O225   O     0.63227   0.24116   0.28262   0.00000  Uiso   1.00
O226   O     0.61737   0.11739   0.18082   0.00000  Uiso   1.00
O227   O     0.37904   0.21292   0.31441   0.00000  Uiso   1.00
O228   O     0.56108   0.20487   0.25000   0.00000  Uiso   1.00
O229   O     0.43892   0.12846   0.25000   0.00000  Uiso   1.00
O230   O     0.50000   0.20489   0.18453   0.00000  Uiso   1.00
O231   O     0.50000   0.12845   0.31547   0.00000  Uiso   1.00
O232   O     0.50000   0.20489   0.31547   0.00000  Uiso   1.00
O233   O     0.50000   0.12845   0.18453   0.00000  Uiso   1.00
O234   O     0.56033   0.05213   0.29770   0.00000  Uiso   1.00
Zn235  Zn    0.50000   0.21771   0.25000   0.00000  Uiso   1.00
Zn236  Zn    0.50000   0.11563   0.25000   0.00000  Uiso   1.00
C237   C     0.75345   0.16581   0.24975   0.00000  Uiso   1.00
C238   C     0.98147   0.20080   0.26993   0.00000  Uiso   1.00
C239   C     0.97630   0.14018   0.21327   0.00000  Uiso   1.00
C240   C     0.69017   0.19404   0.27736   0.00000  Uiso   1.00
C241   C     0.87936   0.19965   0.05311   0.00000  Uiso   1.00
C242   C     0.87633   0.13830   0.45080   0.00000  Uiso   1.00
C243   C     0.83363   0.20419   0.45807   0.00000  Uiso   1.00
C244   C     0.83597   0.13034   0.04309   0.00000  Uiso   1.00
C245   C     0.86985   0.20121   0.09884   0.00000  Uiso   1.00
C246   C     0.86313   0.13387   0.40588   0.00000  Uiso   1.00
C247   C     0.82584   0.20407   0.41111   0.00000  Uiso   1.00
C248   C     0.91325   0.16759   0.24730   0.00000  Uiso   1.00
C249   C     0.83041   0.12887   0.08927   0.00000  Uiso   1.00
C250   C     0.84431   0.16606   0.11635   0.00000  Uiso   1.00
C251   C     0.84005   0.16793   0.38539   0.00000  Uiso   1.00
C252   C     0.85980   0.16625   0.02535   0.00000  Uiso   1.00
C253   C     0.85922   0.17156   0.47706   0.00000  Uiso   1.00
C254   C     0.95763   0.16977   0.24300   0.00000  Uiso   1.00
C255   C     0.70924   0.16463   0.24843   0.00000  Uiso   1.00
C256   C     0.93464   0.04497   0.28407   0.00000  Uiso   1.00
C257   C     0.76965   0.28763   0.16024   0.00000  Uiso   1.00
C258   C     0.73175   0.03170   0.24162   0.00000  Uiso   1.00
C259   C     0.83528   0.16648   0.16385   0.00000  Uiso   1.00
C260   C     0.89534   0.29223   0.34176   0.00000  Uiso   1.00
C261   C     0.94742   0.21869   0.04205   0.00000  Uiso   1.00
C262   C     0.94119   0.10954   0.45528   0.00000  Uiso   1.00
C263   C     0.77616   0.22347   0.49638   0.00000  Uiso   1.00
C264   C     0.77839   0.10063   0.00428   0.00000  Uiso   1.00
C265   C     0.88199   0.27746   0.11428   0.00000  Uiso   1.00
C266   C     0.83870   0.06214   0.39256   0.00000  Uiso   1.00
C267   C     0.80812   0.27913   0.40322   0.00000  Uiso   1.00
C268   C     0.83622   0.05658   0.11167   0.00000  Uiso   1.00
C269   C     0.71415   0.15029   0.14439   0.00000  Uiso   1.00
C270   C     0.83363   0.16692   0.33654   0.00000  Uiso   1.00
C271   C     0.97076   0.27165   0.24644   0.00000  Uiso   1.00
C272   C     0.96407   0.07388   0.17049   0.00000  Uiso   1.00
C273   C     0.71890   0.25986   0.30979   0.00000  Uiso   1.00
C274   C     0.86447   0.02597   0.27250   0.00000  Uiso   1.00
C275   C     0.80230   0.30748   0.22752   0.00000  Uiso   1.00
C276   C     0.80093   0.02233   0.23014   0.00000  Uiso   1.00
C277   C     0.86353   0.31078   0.27396   0.00000  Uiso   1.00
C278   C     0.68690   0.14136   0.21329   0.00000  Uiso   1.00
H279   H     0.95275   0.07758   0.28531   0.00000  Uiso   1.00
H280   H     0.92803   0.29192   0.35522   0.00000  Uiso   1.00
H281   H     0.87875   0.26242   0.35550   0.00000  Uiso   1.00
H282   H     0.88188   0.32342   0.35447   0.00000  Uiso   1.00
H283   H     0.95210   0.18454   0.02787   0.00000  Uiso   1.00
H284   H     0.95650   0.21975   0.07849   0.00000  Uiso   1.00
H285   H     0.96870   0.24276   0.02477   0.00000  Uiso   1.00
H286   H     0.95402   0.14499   0.45590   0.00000  Uiso   1.00
H287   H     0.94260   0.09501   0.42083   0.00000  Uiso   1.00
H288   H     0.96177   0.08988   0.47765   0.00000  Uiso   1.00
H289   H     0.77630   0.19732   0.02272   0.00000  Uiso   1.00
H290   H     0.93594   0.03115   0.24927   0.00000  Uiso   1.00
H291   H     0.75674   0.21158   0.46647   0.00000  Uiso   1.00
H292   H     0.76105   0.25310   0.01061   0.00000  Uiso   1.00
H293   H     0.77530   0.12720   0.47858   0.00000  Uiso   1.00
H294   H     0.75959   0.10828   0.03405   0.00000  Uiso   1.00
H295   H     0.76509   0.06875   0.48899   0.00000  Uiso   1.00
H296   H     0.85336   0.28035   0.09231   0.00000  Uiso   1.00
H297   H     0.90963   0.29159   0.09689   0.00000  Uiso   1.00
H298   H     0.87823   0.29864   0.14472   0.00000  Uiso   1.00
H299   H     0.84973   0.04021   0.42011   0.00000  Uiso   1.00
H300   H     0.83164   0.04127   0.36203   0.00000  Uiso   1.00
H301   H     0.95048   0.02282   0.30834   0.00000  Uiso   1.00
H302   H     0.80836   0.07646   0.40167   0.00000  Uiso   1.00
H303   H     0.84025   0.28573   0.41797   0.00000  Uiso   1.00
H304   H     0.78470   0.29040   0.42711   0.00000  Uiso   1.00
H305   H     0.80522   0.30013   0.37285   0.00000  Uiso   1.00
H306   H     0.84133   0.04067   0.07845   0.00000  Uiso   1.00
H307   H     0.82177   0.03058   0.13323   0.00000  Uiso   1.00
H308   H     0.86677   0.06736   0.12825   0.00000  Uiso   1.00
H309   H     0.73481   0.17965   0.15537   0.00000  Uiso   1.00
H310   H     0.68388   0.16185   0.13021   0.00000  Uiso   1.00
H311   H     0.72988   0.13271   0.11701   0.00000  Uiso   1.00
H312   H     0.74716   0.26235   0.14441   0.00000  Uiso   1.00
H313   H     0.98054   0.30509   0.26056   0.00000  Uiso   1.00
H314   H     0.94082   0.27443   0.22704   0.00000  Uiso   1.00
H315   H     0.99520   0.26306   0.22215   0.00000  Uiso   1.00
H316   H     0.98257   0.05858   0.19817   0.00000  Uiso   1.00
H317   H     0.98216   0.07487   0.13930   0.00000  Uiso   1.00
H318   H     0.93605   0.05133   0.16371   0.00000  Uiso   1.00
H319   H     0.72128   0.27057   0.27428   0.00000  Uiso   1.00
H320   H     0.74901   0.27020   0.32683   0.00000  Uiso   1.00
H321   H     0.69406   0.27791   0.32673   0.00000  Uiso   1.00
H322   H     0.80071   0.28171   0.14644   0.00000  Uiso   1.00
H323   H     0.75885   0.32132   0.15068   0.00000  Uiso   1.00
H324   H     0.71146   0.06062   0.24468   0.00000  Uiso   1.00
H325   H     0.74079   0.02247   0.27681   0.00000  Uiso   1.00
H326   H     0.71274   0.00385   0.22500   0.00000  Uiso   1.00
N327   N     0.83333   0.28573   0.25000   0.00000  Uiso   1.00
N328   N     0.83333   0.04760   0.25000   0.00000  Uiso   1.00
O329   O     0.77226   0.20487   0.25000   0.00000  Uiso   1.00
O330   O     0.76978   0.28187   0.20718   0.00000  Uiso   1.00
O331   O     0.76603   0.04408   0.21481   0.00000  Uiso   1.00
O332   O     0.89576   0.28840   0.29450   0.00000  Uiso   1.00
O333   O     0.90596   0.23181   0.03469   0.00000  Uiso   1.00
O334   O     0.90016   0.10587   0.47115   0.00000  Uiso   1.00
O335   O     0.81741   0.23669   0.48553   0.00000  Uiso   1.00
O336   O     0.82087   0.09484   0.01573   0.00000  Uiso   1.00
O337   O     0.88926   0.23302   0.12816   0.00000  Uiso   1.00
O338   O     0.87060   0.09464   0.38281   0.00000  Uiso   1.00
O339   O     0.79891   0.23374   0.39044   0.00000  Uiso   1.00
O340   O     0.89441   0.12846   0.25000   0.00000  Uiso   1.00
O341   O     0.80885   0.09244   0.10747   0.00000  Uiso   1.00
O342   O     0.70806   0.11993   0.17993   0.00000  Uiso   1.00
O343   O     0.96560   0.24116   0.28262   0.00000  Uiso   1.00
O344   O     0.95071   0.11739   0.18082   0.00000  Uiso   1.00
O345   O     0.71237   0.21292   0.31441   0.00000  Uiso   1.00
O346   O     0.89441   0.20487   0.25000   0.00000  Uiso   1.00
O347   O     0.77226   0.12846   0.25000   0.00000  Uiso   1.00
O348   O     0.83333   0.20489   0.18453   0.00000  Uiso   1.00
O349   O     0.83334   0.12845   0.31547   0.00000  Uiso   1.00
O350   O     0.83334   0.20489   0.31547   0.00000  Uiso   1.00
O351   O     0.83333   0.12845   0.18453   0.00000  Uiso   1.00
O352   O     0.89366   0.05213   0.29770   0.00000  Uiso   1.00
Zn353  Zn    0.83333   0.21771   0.25000   0.00000  Uiso   1.00
Zn354  Zn    0.83333   0.11563   0.25000   0.00000  Uiso   1.00
C355   C     0.08679   0.49914   0.24975   0.00000  Uiso   1.00
C356   C     0.31481   0.53414   0.26993   0.00000  Uiso   1.00
C357   C     0.30963   0.47352   0.21327   0.00000  Uiso   1.00
C358   C     0.02350   0.52738   0.27736   0.00000  Uiso   1.00
C359   C     0.21270   0.53298   0.05311   0.00000  Uiso   1.00
C360   C     0.20966   0.47163   0.45080   0.00000  Uiso   1.00
C361   C     0.16696   0.53752   0.45807   0.00000  Uiso   1.00
C362   C     0.16930   0.46367   0.04309   0.00000  Uiso   1.00
C363   C     0.20319   0.53455   0.09884   0.00000  Uiso   1.00
C364   C     0.19646   0.46721   0.40588   0.00000  Uiso   1.00
C365   C     0.15917   0.53741   0.41111   0.00000  Uiso   1.00
C366   C     0.24659   0.50093   0.24730   0.00000  Uiso   1.00
C367   C     0.16375   0.46221   0.08927   0.00000  Uiso   1.00
C368   C     0.17765   0.49939   0.11635   0.00000  Uiso   1.00
C369   C     0.17338   0.50126   0.38539   0.00000  Uiso   1.00
C370   C     0.19313   0.49958   0.02535   0.00000  Uiso   1.00
C371   C     0.19255   0.50489   0.47706   0.00000  Uiso   1.00
C372   C     0.29097   0.50310   0.24300   0.00000  Uiso   1.00
C373   C     0.04257   0.49797   0.24843   0.00000  Uiso   1.00
C374   C     0.26797   0.37830   0.28407   0.00000  Uiso   1.00
C375   C     0.10298   0.62097   0.16024   0.00000  Uiso   1.00
C376   C     0.06508   0.36504   0.24162   0.00000  Uiso   1.00
C377   C     0.16861   0.49982   0.16385   0.00000  Uiso   1.00
C378   C     0.22867   0.62556   0.34176   0.00000  Uiso   1.00
C379   C     0.28075   0.55202   0.04205   0.00000  Uiso   1.00
C380   C     0.27453   0.44288   0.45528   0.00000  Uiso   1.00
C381   C     0.10950   0.55680   0.49638   0.00000  Uiso   1.00
C382   C     0.11173   0.43397   0.00428   0.00000  Uiso   1.00
C383   C     0.21533   0.61079   0.11428   0.00000  Uiso   1.00
C384   C     0.17203   0.39547   0.39256   0.00000  Uiso   1.00
C385   C     0.14145   0.61246   0.40322   0.00000  Uiso   1.00
C386   C     0.16956   0.38991   0.11167   0.00000  Uiso   1.00
C387   C     0.04748   0.48362   0.14439   0.00000  Uiso   1.00
C388   C     0.16697   0.50025   0.33654   0.00000  Uiso   1.00
C389   C     0.30409   0.60499   0.24644   0.00000  Uiso   1.00
C390   C     0.29740   0.40722   0.17049   0.00000  Uiso   1.00
C391   C     0.05223   0.59320   0.30979   0.00000  Uiso   1.00
C392   C     0.19780   0.35930   0.27250   0.00000  Uiso   1.00
C393   C     0.13564   0.64081   0.22752   0.00000  Uiso   1.00
C394   C     0.13426   0.35566   0.23014   0.00000  Uiso   1.00
C395   C     0.19686   0.64411   0.27396   0.00000  Uiso   1.00
C396   C     0.02023   0.47470   0.21329   0.00000  Uiso   1.00
H397   H     0.28609   0.41092   0.28531   0.00000  Uiso   1.00
H398   H     0.26136   0.62526   0.35522   0.00000  Uiso   1.00
H399   H     0.21209   0.59575   0.35550   0.00000  Uiso   1.00
H400   H     0.21521   0.65675   0.35447   0.00000  Uiso   1.00
H401   H     0.28543   0.51787   0.02787   0.00000  Uiso   1.00
H402   H     0.28984   0.55308   0.07849   0.00000  Uiso   1.00
H403   H     0.30204   0.57609   0.02477   0.00000  Uiso   1.00
H404   H     0.28735   0.47833   0.45590   0.00000  Uiso   1.00
H405   H     0.27593   0.42834   0.42083   0.00000  Uiso   1.00
H406   H     0.29510   0.42321   0.47765   0.00000  Uiso   1.00
H407   H     0.10963   0.53065   0.02272   0.00000  Uiso   1.00
H408   H     0.26927   0.36448   0.24927   0.00000  Uiso   1.00
H409   H     0.09008   0.54491   0.46647   0.00000  Uiso   1.00
H410   H     0.09439   0.58643   0.01061   0.00000  Uiso   1.00
H411   H     0.10863   0.46053   0.47858   0.00000  Uiso   1.00
H412   H     0.09293   0.44162   0.03405   0.00000  Uiso   1.00
H413   H     0.09842   0.40209   0.48899   0.00000  Uiso   1.00
H414   H     0.18669   0.61369   0.09231   0.00000  Uiso   1.00
H415   H     0.24297   0.62492   0.09689   0.00000  Uiso   1.00
H416   H     0.21156   0.63198   0.14472   0.00000  Uiso   1.00
H417   H     0.18306   0.37354   0.42011   0.00000  Uiso   1.00
H418   H     0.16498   0.37460   0.36203   0.00000  Uiso   1.00
H419   H     0.28382   0.35615   0.30834   0.00000  Uiso   1.00
H420   H     0.14169   0.40980   0.40167   0.00000  Uiso   1.00
H421   H     0.17358   0.61907   0.41797   0.00000  Uiso   1.00
H422   H     0.11804   0.62374   0.42711   0.00000  Uiso   1.00
H423   H     0.13855   0.63347   0.37285   0.00000  Uiso   1.00
H424   H     0.17467   0.37400   0.07845   0.00000  Uiso   1.00
H425   H     0.15510   0.36392   0.13323   0.00000  Uiso   1.00
H426   H     0.20010   0.40069   0.12825   0.00000  Uiso   1.00
H427   H     0.06814   0.51298   0.15537   0.00000  Uiso   1.00
H428   H     0.01721   0.49518   0.13021   0.00000  Uiso   1.00
H429   H     0.06322   0.46605   0.11701   0.00000  Uiso   1.00
H430   H     0.08049   0.59568   0.14441   0.00000  Uiso   1.00
H431   H     0.31387   0.63843   0.26056   0.00000  Uiso   1.00
H432   H     0.27415   0.60776   0.22704   0.00000  Uiso   1.00
H433   H     0.32854   0.59639   0.22215   0.00000  Uiso   1.00
H434   H     0.31590   0.39191   0.19817   0.00000  Uiso   1.00
H435   H     0.31549   0.40820   0.13930   0.00000  Uiso   1.00
H436   H     0.26939   0.38466   0.16371   0.00000  Uiso   1.00
H437   H     0.05461   0.60390   0.27428   0.00000  Uiso   1.00
H438   H     0.08234   0.60354   0.32683   0.00000  Uiso   1.00
H439   H     0.02739   0.61124   0.32673   0.00000  Uiso   1.00
H440   H     0.13404   0.61505   0.14644   0.00000  Uiso   1.00
H441   H     0.09218   0.65465   0.15068   0.00000  Uiso   1.00
H442   H     0.04479   0.39395   0.24468   0.00000  Uiso   1.00
H443   H     0.07412   0.35581   0.27681   0.00000  Uiso   1.00
H444   H     0.04608   0.33718   0.22500   0.00000  Uiso   1.00
N445   N     0.16667   0.61907   0.25000   0.00000  Uiso   1.00
N446   N     0.16667   0.38093   0.25000   0.00000  Uiso   1.00
O447   O     0.10559   0.53821   0.25000   0.00000  Uiso   1.00
O448   O     0.10311   0.61520   0.20718   0.00000  Uiso   1.00
O449   O     0.09937   0.37741   0.21481   0.00000  Uiso   1.00
O450   O     0.22909   0.62173   0.29450   0.00000  Uiso   1.00
O451   O     0.23930   0.56514   0.03469   0.00000  Uiso   1.00
O452   O     0.23349   0.43921   0.47115   0.00000  Uiso   1.00
O453   O     0.15074   0.57003   0.48553   0.00000  Uiso   1.00
O454   O     0.15420   0.42818   0.01573   0.00000  Uiso   1.00
O455   O     0.22259   0.56636   0.12816   0.00000  Uiso   1.00
O456   O     0.20393   0.42798   0.38281   0.00000  Uiso   1.00
O457   O     0.13225   0.56708   0.39044   0.00000  Uiso   1.00
O458   O     0.22774   0.46179   0.25000   0.00000  Uiso   1.00
O459   O     0.14218   0.42578   0.10747   0.00000  Uiso   1.00
O460   O     0.04139   0.45326   0.17993   0.00000  Uiso   1.00
O461   O     0.29894   0.57449   0.28262   0.00000  Uiso   1.00
O462   O     0.28404   0.45072   0.18082   0.00000  Uiso   1.00
O463   O     0.04571   0.54625   0.31441   0.00000  Uiso   1.00
O464   O     0.22774   0.53821   0.25000   0.00000  Uiso   1.00
O465   O     0.10559   0.46179   0.25000   0.00000  Uiso   1.00
O466   O     0.16666   0.53822   0.18453   0.00000  Uiso   1.00
O467   O     0.16667   0.46178   0.31547   0.00000  Uiso   1.00
O468   O     0.16667   0.53822   0.31547   0.00000  Uiso   1.00
O469   O     0.16666   0.46178   0.18453   0.00000  Uiso   1.00
O470   O     0.22700   0.38546   0.29770   0.00000  Uiso   1.00
Zn471  Zn    0.16667   0.55104   0.25000   0.00000  Uiso   1.00
Zn472  Zn    0.16667   0.44896   0.25000   0.00000  Uiso   1.00
C473   C     0.42012   0.49914   0.24975   0.00000  Uiso   1.00
C474   C     0.64814   0.53414   0.26993   0.00000  Uiso   1.00
C475   C     0.64297   0.47352   0.21327   0.00000  Uiso   1.00
C476   C     0.35683   0.52738   0.27736   0.00000  Uiso   1.00
C477   C     0.54603   0.53298   0.05311   0.00000  Uiso   1.00
C478   C     0.54299   0.47163   0.45080   0.00000  Uiso   1.00
C479   C     0.50029   0.53752   0.45807   0.00000  Uiso   1.00
C480   C     0.50264   0.46367   0.04309   0.00000  Uiso   1.00
C481   C     0.53652   0.53455   0.09884   0.00000  Uiso   1.00
C482   C     0.52980   0.46721   0.40588   0.00000  Uiso   1.00
C483   C     0.49251   0.53741   0.41111   0.00000  Uiso   1.00
C484   C     0.57992   0.50093   0.24730   0.00000  Uiso   1.00
C485   C     0.49708   0.46221   0.08927   0.00000  Uiso   1.00
C486   C     0.51098   0.49939   0.11635   0.00000  Uiso   1.00
C487   C     0.50672   0.50126   0.38539   0.00000  Uiso   1.00
C488   C     0.52647   0.49958   0.02535   0.00000  Uiso   1.00
C489   C     0.52589   0.50489   0.47706   0.00000  Uiso   1.00
C490   C     0.62430   0.50310   0.24300   0.00000  Uiso   1.00
C491   C     0.37591   0.49797   0.24843   0.00000  Uiso   1.00
C492   C     0.60131   0.37830   0.28407   0.00000  Uiso   1.00
C493   C     0.43631   0.62097   0.16024   0.00000  Uiso   1.00
C494   C     0.39842   0.36504   0.24162   0.00000  Uiso   1.00
C495   C     0.50195   0.49982   0.16385   0.00000  Uiso   1.00
C496   C     0.56200   0.62556   0.34176   0.00000  Uiso   1.00
C497   C     0.61409   0.55202   0.04205   0.00000  Uiso   1.00
C498   C     0.60786   0.44288   0.45528   0.00000  Uiso   1.00
C499   C     0.44283   0.55680   0.49638   0.00000  Uiso   1.00
C500   C     0.44506   0.43397   0.00428   0.00000  Uiso   1.00
C501   C     0.54866   0.61079   0.11428   0.00000  Uiso   1.00
C502   C     0.50537   0.39547   0.39256   0.00000  Uiso   1.00
C503   C     0.47479   0.61246   0.40322   0.00000  Uiso   1.00
C504   C     0.50289   0.38991   0.11167   0.00000  Uiso   1.00
C505   C     0.38082   0.48362   0.14439   0.00000  Uiso   1.00
C506   C     0.50030   0.50025   0.33654   0.00000  Uiso   1.00
C507   C     0.63742   0.60499   0.24644   0.00000  Uiso   1.00
C508   C     0.63073   0.40722   0.17049   0.00000  Uiso   1.00
C509   C     0.38557   0.59320   0.30979   0.00000  Uiso   1.00
C510   C     0.53113   0.35930   0.27250   0.00000  Uiso   1.00
C511   C     0.46897   0.64081   0.22752   0.00000  Uiso   1.00
C512   C     0.46759   0.35566   0.23014   0.00000  Uiso   1.00
C513   C     0.53020   0.64411   0.27396   0.00000  Uiso   1.00
C514   C     0.35357   0.47470   0.21329   0.00000  Uiso   1.00
H515   H     0.61942   0.41092   0.28531   0.00000  Uiso   1.00
H516   H     0.59470   0.62526   0.35522   0.00000  Uiso   1.00
H517   H     0.54542   0.59575   0.35550   0.00000  Uiso   1.00
H518   H     0.54854   0.65675   0.35447   0.00000  Uiso   1.00
H519   H     0.61876   0.51787   0.02787   0.00000  Uiso   1.00
H520   H     0.62317   0.55308   0.07849   0.00000  Uiso   1.00
H521   H     0.63537   0.57609   0.02477   0.00000  Uiso   1.00
H522   H     0.62069   0.47833   0.45590   0.00000  Uiso   1.00
H523   H     0.60926   0.42834   0.42083   0.00000  Uiso   1.00
H524   H     0.62844   0.42321   0.47765   0.00000  Uiso   1.00
H525   H     0.44297   0.53065   0.02272   0.00000  Uiso   1.00
H526   H     0.60261   0.36448   0.24927   0.00000  Uiso   1.00
H527   H     0.42341   0.54491   0.46647   0.00000  Uiso   1.00
H528   H     0.42772   0.58643   0.01061   0.00000  Uiso   1.00
H529   H     0.44197   0.46053   0.47858   0.00000  Uiso   1.00
H530   H     0.42626   0.44162   0.03405   0.00000  Uiso   1.00
H531   H     0.43175   0.40209   0.48899   0.00000  Uiso   1.00
H532   H     0.52002   0.61369   0.09231   0.00000  Uiso   1.00
H533   H     0.57630   0.62492   0.09689   0.00000  Uiso   1.00
H534   H     0.54490   0.63198   0.14472   0.00000  Uiso   1.00
H535   H     0.51639   0.37354   0.42011   0.00000  Uiso   1.00
H536   H     0.49831   0.37460   0.36203   0.00000  Uiso   1.00
H537   H     0.61715   0.35615   0.30834   0.00000  Uiso   1.00
H538   H     0.47503   0.40980   0.40167   0.00000  Uiso   1.00
H539   H     0.50691   0.61907   0.41797   0.00000  Uiso   1.00
H540   H     0.45137   0.62374   0.42711   0.00000  Uiso   1.00
H541   H     0.47188   0.63347   0.37285   0.00000  Uiso   1.00
H542   H     0.50800   0.37400   0.07845   0.00000  Uiso   1.00
H543   H     0.48844   0.36392   0.13323   0.00000  Uiso   1.00
H544   H     0.53344   0.40069   0.12825   0.00000  Uiso   1.00
H545   H     0.40148   0.51298   0.15537   0.00000  Uiso   1.00
H546   H     0.35054   0.49518   0.13021   0.00000  Uiso   1.00
H547   H     0.39655   0.46605   0.11701   0.00000  Uiso   1.00
H548   H     0.41383   0.59568   0.14441   0.00000  Uiso   1.00
H549   H     0.64720   0.63843   0.26056   0.00000  Uiso   1.00
H550   H     0.60748   0.60776   0.22704   0.00000  Uiso   1.00
H551   H     0.66187   0.59639   0.22215   0.00000  Uiso   1.00
H552   H     0.64923   0.39191   0.19817   0.00000  Uiso   1.00
H553   H     0.64882   0.40820   0.13930   0.00000  Uiso   1.00
H554   H     0.60272   0.38466   0.16371   0.00000  Uiso   1.00
H555   H     0.38794   0.60390   0.27428   0.00000  Uiso   1.00
H556   H     0.41567   0.60354   0.32683   0.00000  Uiso   1.00
H557   H     0.36072   0.61124   0.32673   0.00000  Uiso   1.00
H558   H     0.46738   0.61505   0.14644   0.00000  Uiso   1.00
H559   H     0.42552   0.65465   0.15068   0.00000  Uiso   1.00
H560   H     0.37812   0.39395   0.24468   0.00000  Uiso   1.00
H561   H     0.40746   0.35581   0.27681   0.00000  Uiso   1.00
H562   H     0.37941   0.33718   0.22500   0.00000  Uiso   1.00
N563   N     0.50000   0.61907   0.25000   0.00000  Uiso   1.00
N564   N     0.50000   0.38093   0.25000   0.00000  Uiso   1.00
O565   O     0.43892   0.53821   0.25000   0.00000  Uiso   1.00
O566   O     0.43644   0.61520   0.20718   0.00000  Uiso   1.00
O567   O     0.43270   0.37741   0.21481   0.00000  Uiso   1.00
O568   O     0.56242   0.62173   0.29450   0.00000  Uiso   1.00
O569   O     0.57263   0.56514   0.03469   0.00000  Uiso   1.00
O570   O     0.56683   0.43921   0.47115   0.00000  Uiso   1.00
O571   O     0.48407   0.57003   0.48553   0.00000  Uiso   1.00
O572   O     0.48754   0.42818   0.01573   0.00000  Uiso   1.00
O573   O     0.55593   0.56636   0.12816   0.00000  Uiso   1.00
O574   O     0.53726   0.42798   0.38281   0.00000  Uiso   1.00
O575   O     0.46558   0.56708   0.39044   0.00000  Uiso   1.00
O576   O     0.56108   0.46179   0.25000   0.00000  Uiso   1.00
O577   O     0.47551   0.42578   0.10747   0.00000  Uiso   1.00
O578   O     0.37472   0.45326   0.17993   0.00000  Uiso   1.00
O579   O     0.63227   0.57449   0.28262   0.00000  Uiso   1.00
O580   O     0.61737   0.45072   0.18082   0.00000  Uiso   1.00
O581   O     0.37904   0.54625   0.31441   0.00000  Uiso   1.00
O582   O     0.56108   0.53821   0.25000   0.00000  Uiso   1.00
O583   O     0.43892   0.46179   0.25000   0.00000  Uiso   1.00
O584   O     0.50000   0.53822   0.18453   0.00000  Uiso   1.00
O585   O     0.50000   0.46178   0.31547   0.00000  Uiso   1.00
O586   O     0.50000   0.53822   0.31547   0.00000  Uiso   1.00
O587   O     0.50000   0.46178   0.18453   0.00000  Uiso   1.00
O588   O     0.56033   0.38546   0.29770   0.00000  Uiso   1.00
Zn589  Zn    0.50000   0.55104   0.25000   0.00000  Uiso   1.00
Zn590  Zn    0.50000   0.44896   0.25000   0.00000  Uiso   1.00
C591   C     0.75345   0.49914   0.24975   0.00000  Uiso   1.00
C592   C     0.98147   0.53414   0.26993   0.00000  Uiso   1.00
C593   C     0.97630   0.47352   0.21327   0.00000  Uiso   1.00
C594   C     0.69017   0.52738   0.27736   0.00000  Uiso   1.00
C595   C     0.87936   0.53298   0.05311   0.00000  Uiso   1.00
C596   C     0.87633   0.47163   0.45080   0.00000  Uiso   1.00
C597   C     0.83363   0.53752   0.45807   0.00000  Uiso   1.00
C598   C     0.83597   0.46367   0.04309   0.00000  Uiso   1.00
C599   C     0.86985   0.53455   0.09884   0.00000  Uiso   1.00
C600   C     0.86313   0.46721   0.40588   0.00000  Uiso   1.00
C601   C     0.82584   0.53741   0.41111   0.00000  Uiso   1.00
C602   C     0.91325   0.50093   0.24730   0.00000  Uiso   1.00
C603   C     0.83041   0.46221   0.08927   0.00000  Uiso   1.00
C604   C     0.84431   0.49939   0.11635   0.00000  Uiso   1.00
C605   C     0.84005   0.50126   0.38539   0.00000  Uiso   1.00
C606   C     0.85980   0.49958   0.02535   0.00000  Uiso   1.00
C607   C     0.85922   0.50489   0.47706   0.00000  Uiso   1.00
C608   C     0.95763   0.50310   0.24300   0.00000  Uiso   1.00
C609   C     0.70924   0.49797   0.24843   0.00000  Uiso   1.00
C610   C     0.93464   0.37830   0.28407   0.00000  Uiso   1.00
C611   C     0.76965   0.62097   0.16024   0.00000  Uiso   1.00
C612   C     0.73175   0.36504   0.24162   0.00000  Uiso   1.00
C613   C     0.83528   0.49982   0.16385   0.00000  Uiso   1.00
C614   C     0.89534   0.62556   0.34176   0.00000  Uiso   1.00
C615   C     0.94742   0.55202   0.04205   0.00000  Uiso   1.00
C616   C     0.94119   0.44288   0.45528   0.00000  Uiso   1.00
C617   C     0.77616   0.55680   0.49638   0.00000  Uiso   1.00
C618   C     0.77839   0.43397   0.00428   0.00000  Uiso   1.00
C619   C     0.88199   0.61079   0.11428   0.00000  Uiso   1.00
C620   C     0.83870   0.39547   0.39256   0.00000  Uiso   1.00
C621   C     0.80812   0.61246   0.40322   0.00000  Uiso   1.00
C622   C     0.83622   0.38991   0.11167   0.00000  Uiso   1.00
C623   C     0.71415   0.48362   0.14439   0.00000  Uiso   1.00
C624   C     0.83363   0.50025   0.33654   0.00000  Uiso   1.00
C625   C     0.97076   0.60499   0.24644   0.00000  Uiso   1.00
C626   C     0.96407   0.40722   0.17049   0.00000  Uiso   1.00
C627   C     0.71890   0.59320   0.30979   0.00000  Uiso   1.00
C628   C     0.86447   0.35930   0.27250   0.00000  Uiso   1.00
C629   C     0.80230   0.64081   0.22752   0.00000  Uiso   1.00
C630   C     0.80093   0.35566   0.23014   0.00000  Uiso   1.00
C631   C     0.86353   0.64411   0.27396   0.00000  Uiso   1.00
C632   C     0.68690   0.47470   0.21329   0.00000  Uiso   1.00
H633   H     0.95275   0.41092   0.28531   0.00000  Uiso   1.00
H634   H     0.92803   0.62526   0.35522   0.00000  Uiso   1.00
H635   H     0.87875   0.59575   0.35550   0.00000  Uiso   1.00
H636   H     0.88188   0.65675   0.35447   0.00000  Uiso   1.00
H637   H     0.95210   0.51787   0.02787   0.00000  Uiso   1.00
H638   H     0.95650   0.55308   0.07849   0.00000  Uiso   1.00
H639   H     0.96870   0.57609   0.02477   0.00000  Uiso   1.00
H640   H     0.95402   0.47833   0.45590   0.00000  Uiso   1.00
H641   H     0.94260   0.42834   0.42083   0.00000  Uiso   1.00
H642   H     0.96177   0.42321   0.47765   0.00000  Uiso   1.00
H643   H     0.77630   0.53065   0.02272   0.00000  Uiso   1.00
H644   H     0.93594   0.36448   0.24927   0.00000  Uiso   1.00
H645   H     0.75674   0.54491   0.46647   0.00000  Uiso   1.00
H646   H     0.76105   0.58643   0.01061   0.00000  Uiso   1.00
H647   H     0.77530   0.46053   0.47858   0.00000  Uiso   1.00
H648   H     0.75959   0.44162   0.03405   0.00000  Uiso   1.00
H649   H     0.76509   0.40209   0.48899   0.00000  Uiso   1.00
H650   H     0.85336   0.61369   0.09231   0.00000  Uiso   1.00
H651   H     0.90963   0.62492   0.09689   0.00000  Uiso   1.00
H652   H     0.87823   0.63198   0.14472   0.00000  Uiso   1.00
H653   H     0.84973   0.37354   0.42011   0.00000  Uiso   1.00
H654   H     0.83164   0.37460   0.36203   0.00000  Uiso   1.00
H655   H     0.95048   0.35615   0.30834   0.00000  Uiso   1.00
H656   H     0.80836   0.40980   0.40167   0.00000  Uiso   1.00
H657   H     0.84025   0.61907   0.41797   0.00000  Uiso   1.00
H658   H     0.78470   0.62374   0.42711   0.00000  Uiso   1.00
H659   H     0.80522   0.63347   0.37285   0.00000  Uiso   1.00
H660   H     0.84133   0.37400   0.07845   0.00000  Uiso   1.00
H661   H     0.82177   0.36392   0.13323   0.00000  Uiso   1.00
H662   H     0.86677   0.40069   0.12825   0.00000  Uiso   1.00
H663   H     0.73481   0.51298   0.15537   0.00000  Uiso   1.00
H664   H     0.68388   0.49518   0.13021   0.00000  Uiso   1.00
H665   H     0.72988   0.46605   0.11701   0.00000  Uiso   1.00
H666   H     0.74716   0.59568   0.14441   0.00000  Uiso   1.00
H667   H     0.98054   0.63843   0.26056   0.00000  Uiso   1.00
H668   H     0.94082   0.60776   0.22704   0.00000  Uiso   1.00
H669   H     0.99520   0.59639   0.22215   0.00000  Uiso   1.00
H670   H     0.98257   0.39191   0.19817   0.00000  Uiso   1.00
H671   H     0.98216   0.40820   0.13930   0.00000  Uiso   1.00
H672   H     0.93605   0.38466   0.16371   0.00000  Uiso   1.00
H673   H     0.72128   0.60390   0.27428   0.00000  Uiso   1.00
H674   H     0.74901   0.60354   0.32683   0.00000  Uiso   1.00
H675   H     0.69406   0.61124   0.32673   0.00000  Uiso   1.00
H676   H     0.80071   0.61505   0.14644   0.00000  Uiso   1.00
H677   H     0.75885   0.65465   0.15068   0.00000  Uiso   1.00
H678   H     0.71146   0.39395   0.24468   0.00000  Uiso   1.00
H679   H     0.74079   0.35581   0.27681   0.00000  Uiso   1.00
H680   H     0.71274   0.33718   0.22500   0.00000  Uiso   1.00
N681   N     0.83333   0.61907   0.25000   0.00000  Uiso   1.00
N682   N     0.83333   0.38093   0.25000   0.00000  Uiso   1.00
O683   O     0.77226   0.53821   0.25000   0.00000  Uiso   1.00
O684   O     0.76978   0.61520   0.20718   0.00000  Uiso   1.00
O685   O     0.76603   0.37741   0.21481   0.00000  Uiso   1.00
O686   O     0.89576   0.62173   0.29450   0.00000  Uiso   1.00
O687   O     0.90596   0.56514   0.03469   0.00000  Uiso   1.00
O688   O     0.90016   0.43921   0.47115   0.00000  Uiso   1.00
O689   O     0.81741   0.57003   0.48553   0.00000  Uiso   1.00
O690   O     0.82087   0.42818   0.01573   0.00000  Uiso   1.00
O691   O     0.88926   0.56636   0.12816   0.00000  Uiso   1.00
O692   O     0.87060   0.42798   0.38281   0.00000  Uiso   1.00
O693   O     0.79891   0.56708   0.39044   0.00000  Uiso   1.00
O694   O     0.89441   0.46179   0.25000   0.00000  Uiso   1.00
O695   O     0.80885   0.42578   0.10747   0.00000  Uiso   1.00
O696   O     0.70806   0.45326   0.17993   0.00000  Uiso   1.00
O697   O     0.96560   0.57449   0.28262   0.00000  Uiso   1.00
O698   O     0.95071   0.45072   0.18082   0.00000  Uiso   1.00
O699   O     0.71237   0.54625   0.31441   0.00000  Uiso   1.00
O700   O     0.89441   0.53821   0.25000   0.00000  Uiso   1.00
O701   O     0.77226   0.46179   0.25000   0.00000  Uiso   1.00
O702   O     0.83333   0.53822   0.18453   0.00000  Uiso   1.00
O703   O     0.83334   0.46178   0.31547   0.00000  Uiso   1.00
O704   O     0.83334   0.53822   0.31547   0.00000  Uiso   1.00
O705   O     0.83333   0.46178   0.18453   0.00000  Uiso   1.00
O706   O     0.89366   0.38546   0.29770   0.00000  Uiso   1.00
Zn707  Zn    0.83333   0.55104   0.25000   0.00000  Uiso   1.00
Zn708  Zn    0.83333   0.44896   0.25000   0.00000  Uiso   1.00
C709   C     0.08679   0.83247   0.24975   0.00000  Uiso   1.00
C710   C     0.31481   0.86747   0.26993   0.00000  Uiso   1.00
C711   C     0.30963   0.80685   0.21327   0.00000  Uiso   1.00
C712   C     0.02350   0.86071   0.27736   0.00000  Uiso   1.00
C713   C     0.21270   0.86631   0.05311   0.00000  Uiso   1.00
C714   C     0.20966   0.80497   0.45080   0.00000  Uiso   1.00
C715   C     0.16696   0.87085   0.45807   0.00000  Uiso   1.00
C716   C     0.16930   0.79701   0.04309   0.00000  Uiso   1.00
C717   C     0.20319   0.86788   0.09884   0.00000  Uiso   1.00
C718   C     0.19646   0.80054   0.40588   0.00000  Uiso   1.00
C719   C     0.15917   0.87074   0.41111   0.00000  Uiso   1.00
C720   C     0.24659   0.83426   0.24730   0.00000  Uiso   1.00
C721   C     0.16375   0.79554   0.08927   0.00000  Uiso   1.00
C722   C     0.17765   0.83273   0.11635   0.00000  Uiso   1.00
C723   C     0.17338   0.83459   0.38539   0.00000  Uiso   1.00
C724   C     0.19313   0.83292   0.02535   0.00000  Uiso   1.00
C725   C     0.19255   0.83823   0.47706   0.00000  Uiso   1.00
C726   C     0.29097   0.83643   0.24300   0.00000  Uiso   1.00
C727   C     0.04257   0.83130   0.24843   0.00000  Uiso   1.00
C728   C     0.26797   0.71163   0.28407   0.00000  Uiso   1.00
C729   C     0.10298   0.95430   0.16024   0.00000  Uiso   1.00
C730   C     0.06508   0.69837   0.24162   0.00000  Uiso   1.00
C731   C     0.16861   0.83315   0.16385   0.00000  Uiso   1.00
C732   C     0.22867   0.95889   0.34176   0.00000  Uiso   1.00
C733   C     0.28075   0.88535   0.04205   0.00000  Uiso   1.00
C734   C     0.27453   0.77621   0.45528   0.00000  Uiso   1.00
C735   C     0.10950   0.89013   0.49638   0.00000  Uiso   1.00
C736   C     0.11173   0.76730   0.00428   0.00000  Uiso   1.00
C737   C     0.21533   0.94412   0.11428   0.00000  Uiso   1.00
C738   C     0.17203   0.72881   0.39256   0.00000  Uiso   1.00
C739   C     0.14145   0.94579   0.40322   0.00000  Uiso   1.00
C740   C     0.16956   0.72324   0.11167   0.00000  Uiso   1.00
C741   C     0.04748   0.81695   0.14439   0.00000  Uiso   1.00
C742   C     0.16697   0.83358   0.33654   0.00000  Uiso   1.00
C743   C     0.30409   0.93832   0.24644   0.00000  Uiso   1.00
C744   C     0.29740   0.74055   0.17049   0.00000  Uiso   1.00
C745   C     0.05223   0.92653   0.30979   0.00000  Uiso   1.00
C746   C     0.19780   0.69263   0.27250   0.00000  Uiso   1.00
C747   C     0.13564   0.97415   0.22752   0.00000  Uiso   1.00
C748   C     0.13426   0.68900   0.23014   0.00000  Uiso   1.00
C749   C     0.19686   0.97745   0.27396   0.00000  Uiso   1.00
C750   C     0.02023   0.80803   0.21329   0.00000  Uiso   1.00
H751   H     0.28609   0.74425   0.28531   0.00000  Uiso   1.00
H752   H     0.26136   0.95859   0.35522   0.00000  Uiso   1.00
H753   H     0.21209   0.92909   0.35550   0.00000  Uiso   1.00
H754   H     0.21521   0.99008   0.35447   0.00000  Uiso   1.00
H755   H     0.28543   0.85121   0.02787   0.00000  Uiso   1.00
H756   H     0.28984   0.88642   0.07849   0.00000  Uiso   1.00
H757   H     0.30204   0.90943   0.02477   0.00000  Uiso   1.00
H758   H     0.28735   0.81166   0.45590   0.00000  Uiso   1.00
H759   H     0.27593   0.76168   0.42083   0.00000  Uiso   1.00
H760   H     0.29510   0.75655   0.47765   0.00000  Uiso   1.00
H761   H     0.10963   0.86398   0.02272   0.00000  Uiso   1.00
H762   H     0.26927   0.69782   0.24927   0.00000  Uiso   1.00
H763   H     0.09008   0.87825   0.46647   0.00000  Uiso   1.00
H764   H     0.09439   0.91976   0.01061   0.00000  Uiso   1.00
H765   H     0.10863   0.79387   0.47858   0.00000  Uiso   1.00
H766   H     0.09293   0.77495   0.03405   0.00000  Uiso   1.00
H767   H     0.09842   0.73542   0.48899   0.00000  Uiso   1.00
H768   H     0.18669   0.94702   0.09231   0.00000  Uiso   1.00
H769   H     0.24297   0.95826   0.09689   0.00000  Uiso   1.00
H770   H     0.21156   0.96531   0.14472   0.00000  Uiso   1.00
H771   H     0.18306   0.70688   0.42011   0.00000  Uiso   1.00
H772   H     0.16498   0.70794   0.36203   0.00000  Uiso   1.00
H773   H     0.28382   0.68949   0.30834   0.00000  Uiso   1.00
H774   H     0.14169   0.74313   0.40167   0.00000  Uiso   1.00
H775   H     0.17358   0.95240   0.41797   0.00000  Uiso   1.00
H776   H     0.11804   0.95707   0.42711   0.00000  Uiso   1.00
H777   H     0.13855   0.96680   0.37285   0.00000  Uiso   1.00
H778   H     0.17467   0.70733   0.07845   0.00000  Uiso   1.00
H779   H     0.15510   0.69725   0.13323   0.00000  Uiso   1.00
H780   H     0.20010   0.73402   0.12825   0.00000  Uiso   1.00
H781   H     0.06814   0.84631   0.15537   0.00000  Uiso   1.00
H782   H     0.01721   0.82851   0.13021   0.00000  Uiso   1.00
H783   H     0.06322   0.79938   0.11701   0.00000  Uiso   1.00
H784   H     0.08049   0.92902   0.14441   0.00000  Uiso   1.00
H785   H     0.31387   0.97176   0.26056   0.00000  Uiso   1.00
H786   H     0.27415   0.94110   0.22704   0.00000  Uiso   1.00
H787   H     0.32854   0.92973   0.22215   0.00000  Uiso   1.00
H788   H     0.31590   0.72525   0.19817   0.00000  Uiso   1.00
H789   H     0.31549   0.74153   0.13930   0.00000  Uiso   1.00
H790   H     0.26939   0.71799   0.16371   0.00000  Uiso   1.00
H791   H     0.05461   0.93724   0.27428   0.00000  Uiso   1.00
H792   H     0.08234   0.93687   0.32683   0.00000  Uiso   1.00
H793   H     0.02739   0.94458   0.32673   0.00000  Uiso   1.00
H794   H     0.13404   0.94838   0.14644   0.00000  Uiso   1.00
H795   H     0.09218   0.98798   0.15068   0.00000  Uiso   1.00
H796   H     0.04479   0.72729   0.24468   0.00000  Uiso   1.00
H797   H     0.07412   0.68914   0.27681   0.00000  Uiso   1.00
H798   H     0.04608   0.67051   0.22500   0.00000  Uiso   1.00
N799   N     0.16667   0.95240   0.25000   0.00000  Uiso   1.00
N800   N     0.16667   0.71427   0.25000   0.00000  Uiso   1.00
O801   O     0.10559   0.87154   0.25000   0.00000  Uiso   1.00
O802   O     0.10311   0.94853   0.20718   0.00000  Uiso   1.00
O803   O     0.09937   0.71074   0.21481   0.00000  Uiso   1.00
O804   O     0.22909   0.95506   0.29450   0.00000  Uiso   1.00
O805   O     0.23930   0.89847   0.03469   0.00000  Uiso   1.00
O806   O     0.23349   0.77254   0.47115   0.00000  Uiso   1.00
O807   O     0.15074   0.90336   0.48553   0.00000  Uiso   1.00
O808   O     0.15420   0.76151   0.01573   0.00000  Uiso   1.00
O809   O     0.22259   0.89969   0.12816   0.00000  Uiso   1.00
O810   O     0.20393   0.76131   0.38281   0.00000  Uiso   1.00
O811   O     0.13225   0.90041   0.39044   0.00000  Uiso   1.00
O812   O     0.22774   0.79513   0.25000   0.00000  Uiso   1.00
O813   O     0.14218   0.75911   0.10747   0.00000  Uiso   1.00
O814   O     0.04139   0.78659   0.17993   0.00000  Uiso   1.00
O815   O     0.29894   0.90783   0.28262   0.00000  Uiso   1.00
O816   O     0.28404   0.78405   0.18082   0.00000  Uiso   1.00
O817   O     0.04571   0.87958   0.31441   0.00000  Uiso   1.00
O818   O     0.22774   0.87154   0.25000   0.00000  Uiso   1.00
O819   O     0.10559   0.79513   0.25000   0.00000  Uiso   1.00
O820   O     0.16666   0.87155   0.18453   0.00000  Uiso   1.00
O821   O     0.16667   0.79511   0.31547   0.00000  Uiso   1.00
O822   O     0.16667   0.87155   0.31547   0.00000  Uiso   1.00
O823   O     0.16666   0.79511   0.18453   0.00000  Uiso   1.00
O824   O     0.22700   0.71879   0.29770   0.00000  Uiso   1.00
Zn825  Zn    0.16667   0.88437   0.25000   0.00000  Uiso   1.00
Zn826  Zn    0.16667   0.78229   0.25000   0.00000  Uiso   1.00
C827   C     0.42012   0.83247   0.24975   0.00000  Uiso   1.00
C828   C     0.64814   0.86747   0.26993   0.00000  Uiso   1.00
C829   C     0.64297   0.80685   0.21327   0.00000  Uiso   1.00
C830   C     0.35683   0.86071   0.27736   0.00000  Uiso   1.00
C831   C     0.54603   0.86631   0.05311   0.00000  Uiso   1.00
C832   C     0.54299   0.80497   0.45080   0.00000  Uiso   1.00
C833   C     0.50029   0.87085   0.45807   0.00000  Uiso   1.00
C834   C     0.50264   0.79701   0.04309   0.00000  Uiso   1.00
C835   C     0.53652   0.86788   0.09884   0.00000  Uiso   1.00
C836   C     0.52980   0.80054   0.40588   0.00000  Uiso   1.00
C837   C     0.49251   0.87074   0.41111   0.00000  Uiso   1.00
C838   C     0.57992   0.83426   0.24730   0.00000  Uiso   1.00
C839   C     0.49708   0.79554   0.08927   0.00000  Uiso   1.00
C840   C     0.51098   0.83273   0.11635   0.00000  Uiso   1.00
C841   C     0.50672   0.83459   0.38539   0.00000  Uiso   1.00
C842   C     0.52647   0.83292   0.02535   0.00000  Uiso   1.00
C843   C     0.52589   0.83823   0.47706   0.00000  Uiso   1.00
C844   C     0.62430   0.83643   0.24300   0.00000  Uiso   1.00
C845   C     0.37591   0.83130   0.24843   0.00000  Uiso   1.00
C846   C     0.60131   0.71163   0.28407   0.00000  Uiso   1.00
C847   C     0.43631   0.95430   0.16024   0.00000  Uiso   1.00
C848   C     0.39842   0.69837   0.24162   0.00000  Uiso   1.00
C849   C     0.50195   0.83315   0.16385   0.00000  Uiso   1.00
C850   C     0.56200   0.95889   0.34176   0.00000  Uiso   1.00
C851   C     0.61409   0.88535   0.04205   0.00000  Uiso   1.00
C852   C     0.60786   0.77621   0.45528   0.00000  Uiso   1.00
C853   C     0.44283   0.89013   0.49638   0.00000  Uiso   1.00
C854   C     0.44506   0.76730   0.00428   0.00000  Uiso   1.00
C855   C     0.54866   0.94412   0.11428   0.00000  Uiso   1.00
C856   C     0.50537   0.72881   0.39256   0.00000  Uiso   1.00
C857   C     0.47479   0.94579   0.40322   0.00000  Uiso   1.00
C858   C     0.50289   0.72324   0.11167   0.00000  Uiso   1.00
C859   C     0.38082   0.81695   0.14439   0.00000  Uiso   1.00
C860   C     0.50030   0.83358   0.33654   0.00000  Uiso   1.00
C861   C     0.63742   0.93832   0.24644   0.00000  Uiso   1.00
C862   C     0.63073   0.74055   0.17049   0.00000  Uiso   1.00
C863   C     0.38557   0.92653   0.30979   0.00000  Uiso   1.00
C864   C     0.53113   0.69263   0.27250   0.00000  Uiso   1.00
C865   C     0.46897   0.97415   0.22752   0.00000  Uiso   1.00
C866   C     0.46759   0.68900   0.23014   0.00000  Uiso   1.00
C867   C     0.53020   0.97745   0.27396   0.00000  Uiso   1.00
C868   C     0.35357   0.80803   0.21329   0.00000  Uiso   1.00
H869   H     0.61942   0.74425   0.28531   0.00000  Uiso   1.00
H870   H     0.59470   0.95859   0.35522   0.00000  Uiso   1.00
H871   H     0.54542   0.92909   0.35550   0.00000  Uiso   1.00
H872   H     0.54854   0.99008   0.35447   0.00000  Uiso   1.00
H873   H     0.61876   0.85121   0.02787   0.00000  Uiso   1.00
H874   H     0.62317   0.88642   0.07849   0.00000  Uiso   1.00
H875   H     0.63537   0.90943   0.02477   0.00000  Uiso   1.00
H876   H     0.62069   0.81166   0.45590   0.00000  Uiso   1.00
H877   H     0.60926   0.76168   0.42083   0.00000  Uiso   1.00
H878   H     0.62844   0.75655   0.47765   0.00000  Uiso   1.00
H879   H     0.44297   0.86398   0.02272   0.00000  Uiso   1.00
H880   H     0.60261   0.69782   0.24927   0.00000  Uiso   1.00
H881   H     0.42341   0.87825   0.46647   0.00000  Uiso   1.00
H882   H     0.42772   0.91976   0.01061   0.00000  Uiso   1.00
H883   H     0.44197   0.79387   0.47858   0.00000  Uiso   1.00
H884   H     0.42626   0.77495   0.03405   0.00000  Uiso   1.00
H885   H     0.43175   0.73542   0.48899   0.00000  Uiso   1.00
H886   H     0.52002   0.94702   0.09231   0.00000  Uiso   1.00
H887   H     0.57630   0.95826   0.09689   0.00000  Uiso   1.00
H888   H     0.54490   0.96531   0.14472   0.00000  Uiso   1.00
H889   H     0.51639   0.70688   0.42011   0.00000  Uiso   1.00
H890   H     0.49831   0.70794   0.36203   0.00000  Uiso   1.00
H891   H     0.61715   0.68949   0.30834   0.00000  Uiso   1.00
H892   H     0.47503   0.74313   0.40167   0.00000  Uiso   1.00
H893   H     0.50691   0.95240   0.41797   0.00000  Uiso   1.00
H894   H     0.45137   0.95707   0.42711   0.00000  Uiso   1.00
H895   H     0.47188   0.96680   0.37285   0.00000  Uiso   1.00
H896   H     0.50800   0.70733   0.07845   0.00000  Uiso   1.00
H897   H     0.48844   0.69725   0.13323   0.00000  Uiso   1.00
H898   H     0.53344   0.73402   0.12825   0.00000  Uiso   1.00
H899   H     0.40148   0.84631   0.15537   0.00000  Uiso   1.00
H900   H     0.35054   0.82851   0.13021   0.00000  Uiso   1.00
H901   H     0.39655   0.79938   0.11701   0.00000  Uiso   1.00
H902   H     0.41383   0.92902   0.14441   0.00000  Uiso   1.00
H903   H     0.64720   0.97176   0.26056   0.00000  Uiso   1.00
H904   H     0.60748   0.94110   0.22704   0.00000  Uiso   1.00
H905   H     0.66187   0.92973   0.22215   0.00000  Uiso   1.00
H906   H     0.64923   0.72525   0.19817   0.00000  Uiso   1.00
H907   H     0.64882   0.74153   0.13930   0.00000  Uiso   1.00
H908   H     0.60272   0.71799   0.16371   0.00000  Uiso   1.00
H909   H     0.38794   0.93724   0.27428   0.00000  Uiso   1.00
H910   H     0.41567   0.93687   0.32683   0.00000  Uiso   1.00
H911   H     0.36072   0.94458   0.32673   0.00000  Uiso   1.00
H912   H     0.46738   0.94838   0.14644   0.00000  Uiso   1.00
H913   H     0.42552   0.98798   0.15068   0.00000  Uiso   1.00
H914   H     0.37812   0.72729   0.24468   0.00000  Uiso   1.00
H915   H     0.40746   0.68914   0.27681   0.00000  Uiso   1.00
H916   H     0.37941   0.67051   0.22500   0.00000  Uiso   1.00
N917   N     0.50000   0.95240   0.25000   0.00000  Uiso   1.00
N918   N     0.50000   0.71427   0.25000   0.00000  Uiso   1.00
O919   O     0.43892   0.87154   0.25000   0.00000  Uiso   1.00
O920   O     0.43644   0.94853   0.20718   0.00000  Uiso   1.00
O921   O     0.43270   0.71074   0.21481   0.00000  Uiso   1.00
O922   O     0.56242   0.95506   0.29450   0.00000  Uiso   1.00
O923   O     0.57263   0.89847   0.03469   0.00000  Uiso   1.00
O924   O     0.56683   0.77254   0.47115   0.00000  Uiso   1.00
O925   O     0.48407   0.90336   0.48553   0.00000  Uiso   1.00
O926   O     0.48754   0.76151   0.01573   0.00000  Uiso   1.00
O927   O     0.55593   0.89969   0.12816   0.00000  Uiso   1.00
O928   O     0.53726   0.76131   0.38281   0.00000  Uiso   1.00
O929   O     0.46558   0.90041   0.39044   0.00000  Uiso   1.00
O930   O     0.56108   0.79513   0.25000   0.00000  Uiso   1.00
O931   O     0.47551   0.75911   0.10747   0.00000  Uiso   1.00
O932   O     0.37472   0.78659   0.17993   0.00000  Uiso   1.00
O933   O     0.63227   0.90783   0.28262   0.00000  Uiso   1.00
O934   O     0.61737   0.78405   0.18082   0.00000  Uiso   1.00
O935   O     0.37904   0.87958   0.31441   0.00000  Uiso   1.00
O936   O     0.56108   0.87154   0.25000   0.00000  Uiso   1.00
O937   O     0.43892   0.79513   0.25000   0.00000  Uiso   1.00
O938   O     0.50000   0.87155   0.18453   0.00000  Uiso   1.00
O939   O     0.50000   0.79511   0.31547   0.00000  Uiso   1.00
O940   O     0.50000   0.87155   0.31547   0.00000  Uiso   1.00
O941   O     0.50000   0.79511   0.18453   0.00000  Uiso   1.00
O942   O     0.56033   0.71879   0.29770   0.00000  Uiso   1.00
Zn943  Zn    0.50000   0.88437   0.25000   0.00000  Uiso   1.00
Zn944  Zn    0.50000   0.78229   0.25000   0.00000  Uiso   1.00
C945   C     0.75345   0.83247   0.24975   0.00000  Uiso   1.00
C946   C     0.98147   0.86747   0.26993   0.00000  Uiso   1.00
C947   C     0.97630   0.80685   0.21327   0.00000  Uiso   1.00
C948   C     0.69017   0.86071   0.27736   0.00000  Uiso   1.00
C949   C     0.87936   0.86631   0.05311   0.00000  Uiso   1.00
C950   C     0.87633   0.80497   0.45080   0.00000  Uiso   1.00
C951   C     0.83363   0.87085   0.45807   0.00000  Uiso   1.00
C952   C     0.83597   0.79701   0.04309   0.00000  Uiso   1.00
C953   C     0.86985   0.86788   0.09884   0.00000  Uiso   1.00
C954   C     0.86313   0.80054   0.40588   0.00000  Uiso   1.00
C955   C     0.82584   0.87074   0.41111   0.00000  Uiso   1.00
C956   C     0.91325   0.83426   0.24730   0.00000  Uiso   1.00
C957   C     0.83041   0.79554   0.08927   0.00000  Uiso   1.00
C958   C     0.84431   0.83273   0.11635   0.00000  Uiso   1.00
C959   C     0.84005   0.83459   0.38539   0.00000  Uiso   1.00
C960   C     0.85980   0.83292   0.02535   0.00000  Uiso   1.00
C961   C     0.85922   0.83823   0.47706   0.00000  Uiso   1.00
C962   C     0.95763   0.83643   0.24300   0.00000  Uiso   1.00
C963   C     0.70924   0.83130   0.24843   0.00000  Uiso   1.00
C964   C     0.93464   0.71163   0.28407   0.00000  Uiso   1.00
C965   C     0.76965   0.95430   0.16024   0.00000  Uiso   1.00
C966   C     0.73175   0.69837   0.24162   0.00000  Uiso   1.00
C967   C     0.83528   0.83315   0.16385   0.00000  Uiso   1.00
C968   C     0.89534   0.95889   0.34176   0.00000  Uiso   1.00
C969   C     0.94742   0.88535   0.04205   0.00000  Uiso   1.00
C970   C     0.94119   0.77621   0.45528   0.00000  Uiso   1.00
C971   C     0.77616   0.89013   0.49638   0.00000  Uiso   1.00
C972   C     0.77839   0.76730   0.00428   0.00000  Uiso   1.00
C973   C     0.88199   0.94412   0.11428   0.00000  Uiso   1.00
C974   C     0.83870   0.72881   0.39256   0.00000  Uiso   1.00
C975   C     0.80812   0.94579   0.40322   0.00000  Uiso   1.00
C976   C     0.83622   0.72324   0.11167   0.00000  Uiso   1.00
C977   C     0.71415   0.81695   0.14439   0.00000  Uiso   1.00
C978   C     0.83363   0.83358   0.33654   0.00000  Uiso   1.00
C979   C     0.97076   0.93832   0.24644   0.00000  Uiso   1.00
C980   C     0.96407   0.74055   0.17049   0.00000  Uiso   1.00
C981   C     0.71890   0.92653   0.30979   0.00000  Uiso   1.00
C982   C     0.86447   0.69263   0.27250   0.00000  Uiso   1.00
C983   C     0.80230   0.97415   0.22752   0.00000  Uiso   1.00
C984   C     0.80093   0.68900   0.23014   0.00000  Uiso   1.00
C985   C     0.86353   0.97745   0.27396   0.00000  Uiso   1.00
C986   C     0.68690   0.80803   0.21329   0.00000  Uiso   1.00
H987   H     0.95275   0.74425   0.28531   0.00000  Uiso   1.00
H988   H     0.92803   0.95859   0.35522   0.00000  Uiso   1.00
H989   H     0.87875   0.92909   0.35550   0.00000  Uiso   1.00
H990   H     0.88188   0.99008   0.35447   0.00000  Uiso   1.00
H991   H     0.95210   0.85121   0.02787   0.00000  Uiso   1.00
H992   H     0.95650   0.88642   0.07849   0.00000  Uiso   1.00
H993   H     0.96870   0.90943   0.02477   0.00000  Uiso   1.00
H994   H     0.95402   0.81166   0.45590   0.00000  Uiso   1.00
H995   H     0.94260   0.76168   0.42083   0.00000  Uiso   1.00
H996   H     0.96177   0.75655   0.47765   0.00000  Uiso   1.00
H997   H     0.77630   0.86398   0.02272   0.00000  Uiso   1.00
H998   H     0.93594   0.69782   0.24927   0.00000  Uiso   1.00
H999   H     0.75674   0.87825   0.46647   0.00000  Uiso   1.00
H1000  H     0.76105   0.91976   0.01061   0.00000  Uiso   1.00
H1001  H     0.77530   0.79387   0.47858   0.00000  Uiso   1.00
H1002  H     0.75959   0.77495   0.03405   0.00000  Uiso   1.00
H1003  H     0.76509   0.73542   0.48899   0.00000  Uiso   1.00
H1004  H     0.85336   0.94702   0.09231   0.00000  Uiso   1.00
H1005  H     0.90963   0.95826   0.09689   0.00000  Uiso   1.00
H1006  H     0.87823   0.96531   0.14472   0.00000  Uiso   1.00
H1007  H     0.84973   0.70688   0.42011   0.00000  Uiso   1.00
H1008  H     0.83164   0.70794   0.36203   0.00000  Uiso   1.00
H1009  H     0.95048   0.68949   0.30834   0.00000  Uiso   1.00
H1010  H     0.80836   0.74313   0.40167   0.00000  Uiso   1.00
H1011  H     0.84025   0.95240   0.41797   0.00000  Uiso   1.00
H1012  H     0.78470   0.95707   0.42711   0.00000  Uiso   1.00
H1013  H     0.80522   0.96680   0.37285   0.00000  Uiso   1.00
H1014  H     0.84133   0.70733   0.07845   0.00000  Uiso   1.00
H1015  H     0.82177   0.69725   0.13323   0.00000  Uiso   1.00
H1016  H     0.86677   0.73402   0.12825   0.00000  Uiso   1.00
H1017  H     0.73481   0.84631   0.15537   0.00000  Uiso   1.00
H1018  H     0.68388   0.82851   0.13021   0.00000  Uiso   1.00
H1019  H     0.72988   0.79938   0.11701   0.00000  Uiso   1.00
H1020  H     0.74716   0.92902   0.14441   0.00000  Uiso   1.00
H1021  H     0.98054   0.97176   0.26056   0.00000  Uiso   1.00
H1022  H     0.94082   0.94110   0.22704   0.00000  Uiso   1.00
H1023  H     0.99520   0.92973   0.22215   0.00000  Uiso   1.00
H1024  H     0.98257   0.72525   0.19817   0.00000  Uiso   1.00
H1025  H     0.98216   0.74153   0.13930   0.00000  Uiso   1.00
H1026  H     0.93605   0.71799   0.16371   0.00000  Uiso   1.00
H1027  H     0.72128   0.93724   0.27428   0.00000  Uiso   1.00
H1028  H     0.74901   0.93687   0.32683   0.00000  Uiso   1.00
H1029  H     0.69406   0.94458   0.32673   0.00000  Uiso   1.00
H1030  H     0.80071   0.94838   0.14644   0.00000  Uiso   1.00
H1031  H     0.75885   0.98798   0.15068   0.00000  Uiso   1.00
H1032  H     0.71146   0.72729   0.24468   0.00000  Uiso   1.00
H1033  H     0.74079   0.68914   0.27681   0.00000  Uiso   1.00
H1034  H     0.71274   0.67051   0.22500   0.00000  Uiso   1.00
N1035  N     0.83333   0.95240   0.25000   0.00000  Uiso   1.00
N1036  N     0.83333   0.71427   0.25000   0.00000  Uiso   1.00
O1037  O     0.77226   0.87154   0.25000   0.00000  Uiso   1.00
O1038  O     0.76978   0.94853   0.20718   0.00000  Uiso   1.00
O1039  O     0.76603   0.71074   0.21481   0.00000  Uiso   1.00
O1040  O     0.89576   0.95506   0.29450   0.00000  Uiso   1.00
O1041  O     0.90596   0.89847   0.03469   0.00000  Uiso   1.00
O1042  O     0.90016   0.77254   0.47115   0.00000  Uiso   1.00
O1043  O     0.81741   0.90336   0.48553   0.00000  Uiso   1.00
O1044  O     0.82087   0.76151   0.01573   0.00000  Uiso   1.00
O1045  O     0.88926   0.89969   0.12816   0.00000  Uiso   1.00
O1046  O     0.87060   0.76131   0.38281   0.00000  Uiso   1.00
O1047  O     0.79891   0.90041   0.39044   0.00000  Uiso   1.00
O1048  O     0.89441   0.79513   0.25000   0.00000  Uiso   1.00
O1049  O     0.80885   0.75911   0.10747   0.00000  Uiso   1.00
O1050  O     0.70806   0.78659   0.17993   0.00000  Uiso   1.00
O1051  O     0.96560   0.90783   0.28262   0.00000  Uiso   1.00
O1052  O     0.95071   0.78405   0.18082   0.00000  Uiso   1.00
O1053  O     0.71237   0.87958   0.31441   0.00000  Uiso   1.00
O1054  O     0.89441   0.87154   0.25000   0.00000  Uiso   1.00
O1055  O     0.77226   0.79513   0.25000   0.00000  Uiso   1.00
O1056  O     0.83333   0.87155   0.18453   0.00000  Uiso   1.00
O1057  O     0.83334   0.79511   0.31547   0.00000  Uiso   1.00
O1058  O     0.83334   0.87155   0.31547   0.00000  Uiso   1.00
O1059  O     0.83333   0.79511   0.18453   0.00000  Uiso   1.00
O1060  O     0.89366   0.71879   0.29770   0.00000  Uiso   1.00
Zn1061 Zn    0.83333   0.88437   0.25000   0.00000  Uiso   1.00
Zn1062 Zn    0.83333   0.78229   0.25000   0.00000  Uiso   1.00
C1063  C     0.08679   0.16581   0.74975   0.00000  Uiso   1.00
C1064  C     0.31481   0.20080   0.76993   0.00000  Uiso   1.00
C1065  C     0.30963   0.14018   0.71327   0.00000  Uiso   1.00
C1066  C     0.02350   0.19404   0.77736   0.00000  Uiso   1.00
C1067  C     0.21270   0.19965   0.55311   0.00000  Uiso   1.00
C1068  C     0.20966   0.13830   0.95080   0.00000  Uiso   1.00
C1069  C     0.16696   0.20419   0.95807   0.00000  Uiso   1.00
C1070  C     0.16930   0.13034   0.54309   0.00000  Uiso   1.00
C1071  C     0.20319   0.20121   0.59884   0.00000  Uiso   1.00
C1072  C     0.19646   0.13387   0.90588   0.00000  Uiso   1.00
C1073  C     0.15917   0.20407   0.91111   0.00000  Uiso   1.00
C1074  C     0.24659   0.16759   0.74730   0.00000  Uiso   1.00
C1075  C     0.16375   0.12887   0.58927   0.00000  Uiso   1.00
C1076  C     0.17765   0.16606   0.61635   0.00000  Uiso   1.00
C1077  C     0.17338   0.16793   0.88539   0.00000  Uiso   1.00
C1078  C     0.19313   0.16625   0.52535   0.00000  Uiso   1.00
C1079  C     0.19255   0.17156   0.97706   0.00000  Uiso   1.00
C1080  C     0.29097   0.16977   0.74300   0.00000  Uiso   1.00
C1081  C     0.04257   0.16463   0.74843   0.00000  Uiso   1.00
C1082  C     0.26797   0.04497   0.78407   0.00000  Uiso   1.00
C1083  C     0.10298   0.28763   0.66024   0.00000  Uiso   1.00
C1084  C     0.06508   0.03170   0.74162   0.00000  Uiso   1.00
C1085  C     0.16861   0.16648   0.66385   0.00000  Uiso   1.00
C1086  C     0.22867   0.29223   0.84176   0.00000  Uiso   1.00
C1087  C     0.28075   0.21869   0.54205   0.00000  Uiso   1.00
C1088  C     0.27453   0.10954   0.95528   0.00000  Uiso   1.00
C1089  C     0.10950   0.22347   0.99638   0.00000  Uiso   1.00
C1090  C     0.11173   0.10063   0.50428   0.00000  Uiso   1.00
C1091  C     0.21533   0.27746   0.61428   0.00000  Uiso   1.00
C1092  C     0.17203   0.06214   0.89256   0.00000  Uiso   1.00
C1093  C     0.14145   0.27913   0.90322   0.00000  Uiso   1.00
C1094  C     0.16956   0.05658   0.61167   0.00000  Uiso   1.00
C1095  C     0.04748   0.15029   0.64439   0.00000  Uiso   1.00
C1096  C     0.16697   0.16692   0.83654   0.00000  Uiso   1.00
C1097  C     0.30409   0.27165   0.74644   0.00000  Uiso   1.00
C1098  C     0.29740   0.07388   0.67049   0.00000  Uiso   1.00
C1099  C     0.05223   0.25986   0.80979   0.00000  Uiso   1.00
C1100  C     0.19780   0.02597   0.77250   0.00000  Uiso   1.00
C1101  C     0.13564   0.30748   0.72752   0.00000  Uiso   1.00
C1102  C     0.13426   0.02233   0.73014   0.00000  Uiso   1.00
C1103  C     0.19686   0.31078   0.77396   0.00000  Uiso   1.00
C1104  C     0.02023   0.14136   0.71329   0.00000  Uiso   1.00
H1105  H     0.28609   0.07758   0.78531   0.00000  Uiso   1.00
H1106  H     0.26136   0.29192   0.85522   0.00000  Uiso   1.00
H1107  H     0.21209   0.26242   0.85550   0.00000  Uiso   1.00
H1108  H     0.21521   0.32342   0.85447   0.00000  Uiso   1.00
H1109  H     0.28543   0.18454   0.52787   0.00000  Uiso   1.00
H1110  H     0.28984   0.21975   0.57849   0.00000  Uiso   1.00
H1111  H     0.30204   0.24276   0.52477   0.00000  Uiso   1.00
H1112  H     0.28735   0.14499   0.95590   0.00000  Uiso   1.00
H1113  H     0.27593   0.09501   0.92083   0.00000  Uiso   1.00
H1114  H     0.29510   0.08988   0.97765   0.00000  Uiso   1.00
H1115  H     0.10963   0.19732   0.52272   0.00000  Uiso   1.00
H1116  H     0.26927   0.03115   0.74927   0.00000  Uiso   1.00
H1117  H     0.09008   0.21158   0.96647   0.00000  Uiso   1.00
H1118  H     0.09439   0.25310   0.51061   0.00000  Uiso   1.00
H1119  H     0.10863   0.12720   0.97858   0.00000  Uiso   1.00
H1120  H     0.09293   0.10828   0.53405   0.00000  Uiso   1.00
H1121  H     0.09842   0.06875   0.98899   0.00000  Uiso   1.00
H1122  H     0.18669   0.28035   0.59231   0.00000  Uiso   1.00
H1123  H     0.24297   0.29159   0.59689   0.00000  Uiso   1.00
H1124  H     0.21156   0.29864   0.64472   0.00000  Uiso   1.00
H1125  H     0.18306   0.04021   0.92011   0.00000  Uiso   1.00
H1126  H     0.16498   0.04127   0.86203   0.00000  Uiso   1.00
H1127  H     0.28382   0.02282   0.80834   0.00000  Uiso   1.00
H1128  H     0.14169   0.07646   0.90167   0.00000  Uiso   1.00
H1129  H     0.17358   0.28573   0.91797   0.00000  Uiso   1.00
H1130  H     0.11804   0.29040   0.92711   0.00000  Uiso   1.00
H1131  H     0.13855   0.30013   0.87285   0.00000  Uiso   1.00
H1132  H     0.17467   0.04067   0.57845   0.00000  Uiso   1.00
H1133  H     0.15510   0.03058   0.63323   0.00000  Uiso   1.00
H1134  H     0.20010   0.06736   0.62825   0.00000  Uiso   1.00
H1135  H     0.06814   0.17965   0.65537   0.00000  Uiso   1.00
H1136  H     0.01721   0.16185   0.63021   0.00000  Uiso   1.00
H1137  H     0.06322   0.13271   0.61701   0.00000  Uiso   1.00
H1138  H     0.08049   0.26235   0.64441   0.00000  Uiso   1.00
H1139  H     0.31387   0.30509   0.76056   0.00000  Uiso   1.00
H1140  H     0.27415   0.27443   0.72704   0.00000  Uiso   1.00
H1141  H     0.32854   0.26306   0.72215   0.00000  Uiso   1.00
H1142  H     0.31590   0.05858   0.69817   0.00000  Uiso   1.00
H1143  H     0.31549   0.07487   0.63930   0.00000  Uiso   1.00
H1144  H     0.26939   0.05133   0.66371   0.00000  Uiso   1.00
H1145  H     0.05461   0.27057   0.77428   0.00000  Uiso   1.00
H1146  H     0.08234   0.27020   0.82683   0.00000  Uiso   1.00
H1147  H     0.02739   0.27791   0.82673   0.00000  Uiso   1.00
H1148  H     0.13404   0.28171   0.64644   0.00000  Uiso   1.00
H1149  H     0.09218   0.32132   0.65068   0.00000  Uiso   1.00
H1150  H     0.04479   0.06062   0.74468   0.00000  Uiso   1.00
H1151  H     0.07412   0.02247   0.77681   0.00000  Uiso   1.00
H1152  H     0.04608   0.00385   0.72500   0.00000  Uiso   1.00
N1153  N     0.16667   0.28573   0.75000   0.00000  Uiso   1.00
N1154  N     0.16667   0.04760   0.75000   0.00000  Uiso   1.00
O1155  O     0.10559   0.20487   0.75000   0.00000  Uiso   1.00
O1156  O     0.10311   0.28187   0.70718   0.00000  Uiso   1.00
O1157  O     0.09937   0.04408   0.71481   0.00000  Uiso   1.00
O1158  O     0.22909   0.28840   0.79450   0.00000  Uiso   1.00
O1159  O     0.23930   0.23181   0.53469   0.00000  Uiso   1.00
O1160  O     0.23349   0.10587   0.97115   0.00000  Uiso   1.00
O1161  O     0.15074   0.23669   0.98553   0.00000  Uiso   1.00
O1162  O     0.15420   0.09484   0.51573   0.00000  Uiso   1.00
O1163  O     0.22259   0.23302   0.62816   0.00000  Uiso   1.00
O1164  O     0.20393   0.09464   0.88281   0.00000  Uiso   1.00
O1165  O     0.13225   0.23374   0.89044   0.00000  Uiso   1.00
O1166  O     0.22774   0.12846   0.75000   0.00000  Uiso   1.00
O1167  O     0.14218   0.09244   0.60747   0.00000  Uiso   1.00
O1168  O     0.04139   0.11993   0.67993   0.00000  Uiso   1.00
O1169  O     0.29894   0.24116   0.78262   0.00000  Uiso   1.00
O1170  O     0.28404   0.11739   0.68082   0.00000  Uiso   1.00
O1171  O     0.04571   0.21292   0.81441   0.00000  Uiso   1.00
O1172  O     0.22774   0.20487   0.75000   0.00000  Uiso   1.00
O1173  O     0.10559   0.12846   0.75000   0.00000  Uiso   1.00
O1174  O     0.16666   0.20489   0.68453   0.00000  Uiso   1.00
O1175  O     0.16667   0.12845   0.81547   0.00000  Uiso   1.00
O1176  O     0.16667   0.20489   0.81547   0.00000  Uiso   1.00
O1177  O     0.16666   0.12845   0.68453   0.00000  Uiso   1.00
O1178  O     0.22700   0.05213   0.79770   0.00000  Uiso   1.00
Zn1179 Zn    0.16667   0.21771   0.75000   0.00000  Uiso   1.00
Zn1180 Zn    0.16667   0.11563   0.75000   0.00000  Uiso   1.00
C1181  C     0.42012   0.16581   0.74975   0.00000  Uiso   1.00
C1182  C     0.64814   0.20080   0.76993   0.00000  Uiso   1.00
C1183  C     0.64297   0.14018   0.71327   0.00000  Uiso   1.00
C1184  C     0.35683   0.19404   0.77736   0.00000  Uiso   1.00
C1185  C     0.54603   0.19965   0.55311   0.00000  Uiso   1.00
C1186  C     0.54299   0.13830   0.95080   0.00000  Uiso   1.00
C1187  C     0.50029   0.20419   0.95807   0.00000  Uiso   1.00
C1188  C     0.50264   0.13034   0.54309   0.00000  Uiso   1.00
C1189  C     0.53652   0.20121   0.59884   0.00000  Uiso   1.00
C1190  C     0.52980   0.13387   0.90588   0.00000  Uiso   1.00
C1191  C     0.49251   0.20407   0.91111   0.00000  Uiso   1.00
C1192  C     0.57992   0.16759   0.74730   0.00000  Uiso   1.00
C1193  C     0.49708   0.12887   0.58927   0.00000  Uiso   1.00
C1194  C     0.51098   0.16606   0.61635   0.00000  Uiso   1.00
C1195  C     0.50672   0.16793   0.88539   0.00000  Uiso   1.00
C1196  C     0.52647   0.16625   0.52535   0.00000  Uiso   1.00
C1197  C     0.52589   0.17156   0.97706   0.00000  Uiso   1.00
C1198  C     0.62430   0.16977   0.74300   0.00000  Uiso   1.00
C1199  C     0.37591   0.16463   0.74843   0.00000  Uiso   1.00
C1200  C     0.60131   0.04497   0.78407   0.00000  Uiso   1.00
C1201  C     0.43631   0.28763   0.66024   0.00000  Uiso   1.00
C1202  C     0.39842   0.03170   0.74162   0.00000  Uiso   1.00
C1203  C     0.50195   0.16648   0.66385   0.00000  Uiso   1.00
C1204  C     0.56200   0.29223   0.84176   0.00000  Uiso   1.00
C1205  C     0.61409   0.21869   0.54205   0.00000  Uiso   1.00
C1206  C     0.60786   0.10954   0.95528   0.00000  Uiso   1.00
C1207  C     0.44283   0.22347   0.99638   0.00000  Uiso   1.00
C1208  C     0.44506   0.10063   0.50428   0.00000  Uiso   1.00
C1209  C     0.54866   0.27746   0.61428   0.00000  Uiso   1.00
C1210  C     0.50537   0.06214   0.89256   0.00000  Uiso   1.00
C1211  C     0.47479   0.27913   0.90322   0.00000  Uiso   1.00
C1212  C     0.50289   0.05658   0.61167   0.00000  Uiso   1.00
C1213  C     0.38082   0.15029   0.64439   0.00000  Uiso   1.00
C1214  C     0.50030   0.16692   0.83654   0.00000  Uiso   1.00
C1215  C     0.63742   0.27165   0.74644   0.00000  Uiso   1.00
C1216  C     0.63073   0.07388   0.67049   0.00000  Uiso   1.00
C1217  C     0.38557   0.25986   0.80979   0.00000  Uiso   1.00
C1218  C     0.53113   0.02597   0.77250   0.00000  Uiso   1.00
C1219  C     0.46897   0.30748   0.72752   0.00000  Uiso   1.00
C1220  C     0.46759   0.02233   0.73014   0.00000  Uiso   1.00
C1221  C     0.53020   0.31078   0.77396   0.00000  Uiso   1.00
C1222  C     0.35357   0.14136   0.71329   0.00000  Uiso   1.00
H1223  H     0.61942   0.07758   0.78531   0.00000  Uiso   1.00
H1224  H     0.59470   0.29192   0.85522   0.00000  Uiso   1.00
H1225  H     0.54542   0.26242   0.85550   0.00000  Uiso   1.00
H1226  H     0.54854   0.32342   0.85447   0.00000  Uiso   1.00
H1227  H     0.61876   0.18454   0.52787   0.00000  Uiso   1.00
H1228  H     0.62317   0.21975   0.57849   0.00000  Uiso   1.00
H1229  H     0.63537   0.24276   0.52477   0.00000  Uiso   1.00
H1230  H     0.62069   0.14499   0.95590   0.00000  Uiso   1.00
H1231  H     0.60926   0.09501   0.92083   0.00000  Uiso   1.00
H1232  H     0.62844   0.08988   0.97765   0.00000  Uiso   1.00
H1233  H     0.44297   0.19732   0.52272   0.00000  Uiso   1.00
H1234  H     0.60261   0.03115   0.74927   0.00000  Uiso   1.00
H1235  H     0.42341   0.21158   0.96647   0.00000  Uiso   1.00
H1236  H     0.42772   0.25310   0.51061   0.00000  Uiso   1.00
H1237  H     0.44197   0.12720   0.97858   0.00000  Uiso   1.00
H1238  H     0.42626   0.10828   0.53405   0.00000  Uiso   1.00
H1239  H     0.43175   0.06875   0.98899   0.00000  Uiso   1.00
H1240  H     0.52002   0.28035   0.59231   0.00000  Uiso   1.00
H1241  H     0.57630   0.29159   0.59689   0.00000  Uiso   1.00
H1242  H     0.54490   0.29864   0.64472   0.00000  Uiso   1.00
H1243  H     0.51639   0.04021   0.92011   0.00000  Uiso   1.00
H1244  H     0.49831   0.04127   0.86203   0.00000  Uiso   1.00
H1245  H     0.61715   0.02282   0.80834   0.00000  Uiso   1.00
H1246  H     0.47503   0.07646   0.90167   0.00000  Uiso   1.00
H1247  H     0.50691   0.28573   0.91797   0.00000  Uiso   1.00
H1248  H     0.45137   0.29040   0.92711   0.00000  Uiso   1.00
H1249  H     0.47188   0.30013   0.87285   0.00000  Uiso   1.00
H1250  H     0.50800   0.04067   0.57845   0.00000  Uiso   1.00
H1251  H     0.48844   0.03058   0.63323   0.00000  Uiso   1.00
H1252  H     0.53344   0.06736   0.62825   0.00000  Uiso   1.00
H1253  H     0.40148   0.17965   0.65537   0.00000  Uiso   1.00
H1254  H     0.35054   0.16185   0.63021   0.00000  Uiso   1.00
H1255  H     0.39655   0.13271   0.61701   0.00000  Uiso   1.00
H1256  H     0.41383   0.26235   0.64441   0.00000  Uiso   1.00
H1257  H     0.64720   0.30509   0.76056   0.00000  Uiso   1.00
H1258  H     0.60748   0.27443   0.72704   0.00000  Uiso   1.00
H1259  H     0.66187   0.26306   0.72215   0.00000  Uiso   1.00
H1260  H     0.64923   0.05858   0.69817   0.00000  Uiso   1.00
H1261  H     0.64882   0.07487   0.63930   0.00000  Uiso   1.00
H1262  H     0.60272   0.05133   0.66371   0.00000  Uiso   1.00
H1263  H     0.38794   0.27057   0.77428   0.00000  Uiso   1.00
H1264  H     0.41567   0.27020   0.82683   0.00000  Uiso   1.00
H1265  H     0.36072   0.27791   0.82673   0.00000  Uiso   1.00
H1266  H     0.46738   0.28171   0.64644   0.00000  Uiso   1.00
H1267  H     0.42552   0.32132   0.65068   0.00000  Uiso   1.00
H1268  H     0.37812   0.06062   0.74468   0.00000  Uiso   1.00
H1269  H     0.40746   0.02247   0.77681   0.00000  Uiso   1.00
H1270  H     0.37941   0.00385   0.72500   0.00000  Uiso   1.00
N1271  N     0.50000   0.28573   0.75000   0.00000  Uiso   1.00
N1272  N     0.50000   0.04760   0.75000   0.00000  Uiso   1.00
O1273  O     0.43892   0.20487   0.75000   0.00000  Uiso   1.00
O1274  O     0.43644   0.28187   0.70718   0.00000  Uiso   1.00
O1275  O     0.43270   0.04408   0.71481   0.00000  Uiso   1.00
O1276  O     0.56242   0.28840   0.79450   0.00000  Uiso   1.00
O1277  O     0.57263   0.23181   0.53469   0.00000  Uiso   1.00
O1278  O     0.56683   0.10587   0.97115   0.00000  Uiso   1.00
O1279  O     0.48407   0.23669   0.98553   0.00000  Uiso   1.00
O1280  O     0.48754   0.09484   0.51573   0.00000  Uiso   1.00
O1281  O     0.55593   0.23302   0.62816   0.00000  Uiso   1.00
O1282  O     0.53726   0.09464   0.88281   0.00000  Uiso   1.00
O1283  O     0.46558   0.23374   0.89044   0.00000  Uiso   1.00
O1284  O     0.56108   0.12846   0.75000   0.00000  Uiso   1.00
O1285  O     0.47551   0.09244   0.60747   0.00000  Uiso   1.00
O1286  O     0.37472   0.11993   0.67993   0.00000  Uiso   1.00
O1287  O     0.63227   0.24116   0.78262   0.00000  Uiso   1.00
O1288  O     0.61737   0.11739   0.68082   0.00000  Uiso   1.00
O1289  O     0.37904   0.21292   0.81441   0.00000  Uiso   1.00
O1290  O     0.56108   0.20487   0.75000   0.00000  Uiso   1.00
O1291  O     0.43892   0.12846   0.75000   0.00000  Uiso   1.00
O1292  O     0.50000   0.20489   0.68453   0.00000  Uiso   1.00
O1293  O     0.50000   0.12845   0.81547   0.00000  Uiso   1.00
O1294  O     0.50000   0.20489   0.81547   0.00000  Uiso   1.00
O1295  O     0.50000   0.12845   0.68453   0.00000  Uiso   1.00
O1296  O     0.56033   0.05213   0.79770   0.00000  Uiso   1.00
Zn1297 Zn    0.50000   0.21771   0.75000   0.00000  Uiso   1.00
Zn1298 Zn    0.50000   0.11563   0.75000   0.00000  Uiso   1.00
C1299  C     0.75345   0.16581   0.74975   0.00000  Uiso   1.00
C1300  C     0.98147   0.20080   0.76993   0.00000  Uiso   1.00
C1301  C     0.97630   0.14018   0.71327   0.00000  Uiso   1.00
C1302  C     0.69017   0.19404   0.77736   0.00000  Uiso   1.00
C1303  C     0.87936   0.19965   0.55311   0.00000  Uiso   1.00
C1304  C     0.87633   0.13830   0.95080   0.00000  Uiso   1.00
C1305  C     0.83363   0.20419   0.95807   0.00000  Uiso   1.00
C1306  C     0.83597   0.13034   0.54309   0.00000  Uiso   1.00
C1307  C     0.86985   0.20121   0.59884   0.00000  Uiso   1.00
C1308  C     0.86313   0.13387   0.90588   0.00000  Uiso   1.00
C1309  C     0.82584   0.20407   0.91111   0.00000  Uiso   1.00
C1310  C     0.91325   0.16759   0.74730   0.00000  Uiso   1.00
C1311  C     0.83041   0.12887   0.58927   0.00000  Uiso   1.00
C1312  C     0.84431   0.16606   0.61635   0.00000  Uiso   1.00
C1313  C     0.84005   0.16793   0.88539   0.00000  Uiso   1.00
C1314  C     0.85980   0.16625   0.52535   0.00000  Uiso   1.00
C1315  C     0.85922   0.17156   0.97706   0.00000  Uiso   1.00
C1316  C     0.95763   0.16977   0.74300   0.00000  Uiso   1.00
C1317  C     0.70924   0.16463   0.74843   0.00000  Uiso   1.00
C1318  C     0.93464   0.04497   0.78407   0.00000  Uiso   1.00
C1319  C     0.76965   0.28763   0.66024   0.00000  Uiso   1.00
C1320  C     0.73175   0.03170   0.74162   0.00000  Uiso   1.00
C1321  C     0.83528   0.16648   0.66385   0.00000  Uiso   1.00
C1322  C     0.89534   0.29223   0.84176   0.00000  Uiso   1.00
C1323  C     0.94742   0.21869   0.54205   0.00000  Uiso   1.00
C1324  C     0.94119   0.10954   0.95528   0.00000  Uiso   1.00
C1325  C     0.77616   0.22347   0.99638   0.00000  Uiso   1.00
C1326  C     0.77839   0.10063   0.50428   0.00000  Uiso   1.00
C1327  C     0.88199   0.27746   0.61428   0.00000  Uiso   1.00
C1328  C     0.83870   0.06214   0.89256   0.00000  Uiso   1.00
C1329  C     0.80812   0.27913   0.90322   0.00000  Uiso   1.00
C1330  C     0.83622   0.05658   0.61167   0.00000  Uiso   1.00
C1331  C     0.71415   0.15029   0.64439   0.00000  Uiso   1.00
C1332  C     0.83363   0.16692   0.83654   0.00000  Uiso   1.00
C1333  C     0.97076   0.27165   0.74644   0.00000  Uiso   1.00
C1334  C     0.96407   0.07388   0.67049   0.00000  Uiso   1.00
C1335  C     0.71890   0.25986   0.80979   0.00000  Uiso   1.00
C1336  C     0.86447   0.02597   0.77250   0.00000  Uiso   1.00
C1337  C     0.80230   0.30748   0.72752   0.00000  Uiso   1.00
C1338  C     0.80093   0.02233   0.73014   0.00000  Uiso   1.00
C1339  C     0.86353   0.31078   0.77396   0.00000  Uiso   1.00
C1340  C     0.68690   0.14136   0.71329   0.00000  Uiso   1.00
H1341  H     0.95275   0.07758   0.78531   0.00000  Uiso   1.00
H1342  H     0.92803   0.29192   0.85522   0.00000  Uiso   1.00
H1343  H     0.87875   0.26242   0.85550   0.00000  Uiso   1.00
H1344  H     0.88188   0.32342   0.85447   0.00000  Uiso   1.00
H1345  H     0.95210   0.18454   0.52787   0.00000  Uiso   1.00
H1346  H     0.95650   0.21975   0.57849   0.00000  Uiso   1.00
H1347  H     0.96870   0.24276   0.52477   0.00000  Uiso   1.00
H1348  H     0.95402   0.14499   0.95590   0.00000  Uiso   1.00
H1349  H     0.94260   0.09501   0.92083   0.00000  Uiso   1.00
H1350  H     0.96177   0.08988   0.97765   0.00000  Uiso   1.00
H1351  H     0.77630   0.19732   0.52272   0.00000  Uiso   1.00
H1352  H     0.93594   0.03115   0.74927   0.00000  Uiso   1.00
H1353  H     0.75674   0.21158   0.96647   0.00000  Uiso   1.00
H1354  H     0.76105   0.25310   0.51061   0.00000  Uiso   1.00
H1355  H     0.77530   0.12720   0.97858   0.00000  Uiso   1.00
H1356  H     0.75959   0.10828   0.53405   0.00000  Uiso   1.00
H1357  H     0.76509   0.06875   0.98899   0.00000  Uiso   1.00
H1358  H     0.85336   0.28035   0.59231   0.00000  Uiso   1.00
H1359  H     0.90963   0.29159   0.59689   0.00000  Uiso   1.00
H1360  H     0.87823   0.29864   0.64472   0.00000  Uiso   1.00
H1361  H     0.84973   0.04021   0.92011   0.00000  Uiso   1.00
H1362  H     0.83164   0.04127   0.86203   0.00000  Uiso   1.00
H1363  H     0.95048   0.02282   0.80834   0.00000  Uiso   1.00
H1364  H     0.80836   0.07646   0.90167   0.00000  Uiso   1.00
H1365  H     0.84025   0.28573   0.91797   0.00000  Uiso   1.00
H1366  H     0.78470   0.29040   0.92711   0.00000  Uiso   1.00
H1367  H     0.80522   0.30013   0.87285   0.00000  Uiso   1.00
H1368  H     0.84133   0.04067   0.57845   0.00000  Uiso   1.00
H1369  H     0.82177   0.03058   0.63323   0.00000  Uiso   1.00
H1370  H     0.86677   0.06736   0.62825   0.00000  Uiso   1.00
H1371  H     0.73481   0.17965   0.65537   0.00000  Uiso   1.00
H1372  H     0.68388   0.16185   0.63021   0.00000  Uiso   1.00
H1373  H     0.72988   0.13271   0.61701   0.00000  Uiso   1.00
H1374  H     0.74716   0.26235   0.64441   0.00000  Uiso   1.00
H1375  H     0.98054   0.30509   0.76056   0.00000  Uiso   1.00
H1376  H     0.94082   0.27443   0.72704   0.00000  Uiso   1.00
H1377  H     0.99520   0.26306   0.72215   0.00000  Uiso   1.00
H1378  H     0.98257   0.05858   0.69817   0.00000  Uiso   1.00
H1379  H     0.98216   0.07487   0.63930   0.00000  Uiso   1.00
H1380  H     0.93605   0.05133   0.66371   0.00000  Uiso   1.00
H1381  H     0.72128   0.27057   0.77428   0.00000  Uiso   1.00
H1382  H     0.74901   0.27020   0.82683   0.00000  Uiso   1.00
H1383  H     0.69406   0.27791   0.82673   0.00000  Uiso   1.00
H1384  H     0.80071   0.28171   0.64644   0.00000  Uiso   1.00
H1385  H     0.75885   0.32132   0.65068   0.00000  Uiso   1.00
H1386  H     0.71146   0.06062   0.74468   0.00000  Uiso   1.00
H1387  H     0.74079   0.02247   0.77681   0.00000  Uiso   1.00
H1388  H     0.71274   0.00385   0.72500   0.00000  Uiso   1.00
N1389  N     0.83333   0.28573   0.75000   0.00000  Uiso   1.00
N1390  N     0.83333   0.04760   0.75000   0.00000  Uiso   1.00
O1391  O     0.77226   0.20487   0.75000   0.00000  Uiso   1.00
O1392  O     0.76978   0.28187   0.70718   0.00000  Uiso   1.00
O1393  O     0.76603   0.04408   0.71481   0.00000  Uiso   1.00
O1394  O     0.89576   0.28840   0.79450   0.00000  Uiso   1.00
O1395  O     0.90596   0.23181   0.53469   0.00000  Uiso   1.00
O1396  O     0.90016   0.10587   0.97115   0.00000  Uiso   1.00
O1397  O     0.81741   0.23669   0.98553   0.00000  Uiso   1.00
O1398  O     0.82087   0.09484   0.51573   0.00000  Uiso   1.00
O1399  O     0.88926   0.23302   0.62816   0.00000  Uiso   1.00
O1400  O     0.87060   0.09464   0.88281   0.00000  Uiso   1.00
O1401  O     0.79891   0.23374   0.89044   0.00000  Uiso   1.00
O1402  O     0.89441   0.12846   0.75000   0.00000  Uiso   1.00
O1403  O     0.80885   0.09244   0.60747   0.00000  Uiso   1.00
O1404  O     0.70806   0.11993   0.67993   0.00000  Uiso   1.00
O1405  O     0.96560   0.24116   0.78262   0.00000  Uiso   1.00
O1406  O     0.95071   0.11739   0.68082   0.00000  Uiso   1.00
O1407  O     0.71237   0.21292   0.81441   0.00000  Uiso   1.00
O1408  O     0.89441   0.20487   0.75000   0.00000  Uiso   1.00
O1409  O     0.77226   0.12846   0.75000   0.00000  Uiso   1.00
O1410  O     0.83333   0.20489   0.68453   0.00000  Uiso   1.00
O1411  O     0.83334   0.12845   0.81547   0.00000  Uiso   1.00
O1412  O     0.83334   0.20489   0.81547   0.00000  Uiso   1.00
O1413  O     0.83333   0.12845   0.68453   0.00000  Uiso   1.00
O1414  O     0.89366   0.05213   0.79770   0.00000  Uiso   1.00
Zn1415 Zn    0.83333   0.21771   0.75000   0.00000  Uiso   1.00
Zn1416 Zn    0.83333   0.11563   0.75000   0.00000  Uiso   1.00
C1417  C     0.08679   0.49914   0.74975   0.00000  Uiso   1.00
C1418  C     0.31481   0.53414   0.76993   0.00000  Uiso   1.00
C1419  C     0.30963   0.47352   0.71327   0.00000  Uiso   1.00
C1420  C     0.02350   0.52738   0.77736   0.00000  Uiso   1.00
C1421  C     0.21270   0.53298   0.55311   0.00000  Uiso   1.00
C1422  C     0.20966   0.47163   0.95080   0.00000  Uiso   1.00
C1423  C     0.16696   0.53752   0.95807   0.00000  Uiso   1.00
C1424  C     0.16930   0.46367   0.54309   0.00000  Uiso   1.00
C1425  C     0.20319   0.53455   0.59884   0.00000  Uiso   1.00
C1426  C     0.19646   0.46721   0.90588   0.00000  Uiso   1.00
C1427  C     0.15917   0.53741   0.91111   0.00000  Uiso   1.00
C1428  C     0.24659   0.50093   0.74730   0.00000  Uiso   1.00
C1429  C     0.16375   0.46221   0.58927   0.00000  Uiso   1.00
C1430  C     0.17765   0.49939   0.61635   0.00000  Uiso   1.00
C1431  C     0.17338   0.50126   0.88539   0.00000  Uiso   1.00
C1432  C     0.19313   0.49958   0.52535   0.00000  Uiso   1.00
C1433  C     0.19255   0.50489   0.97706   0.00000  Uiso   1.00
C1434  C     0.29097   0.50310   0.74300   0.00000  Uiso   1.00
C1435  C     0.04257   0.49797   0.74843   0.00000  Uiso   1.00
C1436  C     0.26797   0.37830   0.78407   0.00000  Uiso   1.00
C1437  C     0.10298   0.62097   0.66024   0.00000  Uiso   1.00
C1438  C     0.06508   0.36504   0.74162   0.00000  Uiso   1.00
C1439  C     0.16861   0.49982   0.66385   0.00000  Uiso   1.00
C1440  C     0.22867   0.62556   0.84176   0.00000  Uiso   1.00
C1441  C     0.28075   0.55202   0.54205   0.00000  Uiso   1.00
C1442  C     0.27453   0.44288   0.95528   0.00000  Uiso   1.00
C1443  C     0.10950   0.55680   0.99638   0.00000  Uiso   1.00
C1444  C     0.11173   0.43397   0.50428   0.00000  Uiso   1.00
C1445  C     0.21533   0.61079   0.61428   0.00000  Uiso   1.00
C1446  C     0.17203   0.39547   0.89256   0.00000  Uiso   1.00
C1447  C     0.14145   0.61246   0.90322   0.00000  Uiso   1.00
C1448  C     0.16956   0.38991   0.61167   0.00000  Uiso   1.00
C1449  C     0.04748   0.48362   0.64439   0.00000  Uiso   1.00
C1450  C     0.16697   0.50025   0.83654   0.00000  Uiso   1.00
C1451  C     0.30409   0.60499   0.74644   0.00000  Uiso   1.00
C1452  C     0.29740   0.40722   0.67049   0.00000  Uiso   1.00
C1453  C     0.05223   0.59320   0.80979   0.00000  Uiso   1.00
C1454  C     0.19780   0.35930   0.77250   0.00000  Uiso   1.00
C1455  C     0.13564   0.64081   0.72752   0.00000  Uiso   1.00
C1456  C     0.13426   0.35566   0.73014   0.00000  Uiso   1.00
C1457  C     0.19686   0.64411   0.77396   0.00000  Uiso   1.00
C1458  C     0.02023   0.47470   0.71329   0.00000  Uiso   1.00
H1459  H     0.28609   0.41092   0.78531   0.00000  Uiso   1.00
H1460  H     0.26136   0.62526   0.85522   0.00000  Uiso   1.00
H1461  H     0.21209   0.59575   0.85550   0.00000  Uiso   1.00
H1462  H     0.21521   0.65675   0.85447   0.00000  Uiso   1.00
H1463  H     0.28543   0.51787   0.52787   0.00000  Uiso   1.00
H1464  H     0.28984   0.55308   0.57849   0.00000  Uiso   1.00
H1465  H     0.30204   0.57609   0.52477   0.00000  Uiso   1.00
H1466  H     0.28735   0.47833   0.95590   0.00000  Uiso   1.00
H1467  H     0.27593   0.42834   0.92083   0.00000  Uiso   1.00
H1468  H     0.29510   0.42321   0.97765   0.00000  Uiso   1.00
H1469  H     0.10963   0.53065   0.52272   0.00000  Uiso   1.00
H1470  H     0.26927   0.36448   0.74927   0.00000  Uiso   1.00
H1471  H     0.09008   0.54491   0.96647   0.00000  Uiso   1.00
H1472  H     0.09439   0.58643   0.51061   0.00000  Uiso   1.00
H1473  H     0.10863   0.46053   0.97858   0.00000  Uiso   1.00
H1474  H     0.09293   0.44162   0.53405   0.00000  Uiso   1.00
H1475  H     0.09842   0.40209   0.98899   0.00000  Uiso   1.00
H1476  H     0.18669   0.61369   0.59231   0.00000  Uiso   1.00
H1477  H     0.24297   0.62492   0.59689   0.00000  Uiso   1.00
H1478  H     0.21156   0.63198   0.64472   0.00000  Uiso   1.00
H1479  H     0.18306   0.37354   0.92011   0.00000  Uiso   1.00
H1480  H     0.16498   0.37460   0.86203   0.00000  Uiso   1.00
H1481  H     0.28382   0.35615   0.80834   0.00000  Uiso   1.00
H1482  H     0.14169   0.40980   0.90167   0.00000  Uiso   1.00
H1483  H     0.17358   0.61907   0.91797   0.00000  Uiso   1.00
H1484  H     0.11804   0.62374   0.92711   0.00000  Uiso   1.00
H1485  H     0.13855   0.63347   0.87285   0.00000  Uiso   1.00
H1486  H     0.17467   0.37400   0.57845   0.00000  Uiso   1.00
H1487  H     0.15510   0.36392   0.63323   0.00000  Uiso   1.00
H1488  H     0.20010   0.40069   0.62825   0.00000  Uiso   1.00
H1489  H     0.06814   0.51298   0.65537   0.00000  Uiso   1.00
H1490  H     0.01721   0.49518   0.63021   0.00000  Uiso   1.00
H1491  H     0.06322   0.46605   0.61701   0.00000  Uiso   1.00
H1492  H     0.08049   0.59568   0.64441   0.00000  Uiso   1.00
H1493  H     0.31387   0.63843   0.76056   0.00000  Uiso   1.00
H1494  H     0.27415   0.60776   0.72704   0.00000  Uiso   1.00
H1495  H     0.32854   0.59639   0.72215   0.00000  Uiso   1.00
H1496  H     0.31590   0.39191   0.69817   0.00000  Uiso   1.00
H1497  H     0.31549   0.40820   0.63930   0.00000  Uiso   1.00
H1498  H     0.26939   0.38466   0.66371   0.00000  Uiso   1.00
H1499  H     0.05461   0.60390   0.77428   0.00000  Uiso   1.00
H1500  H     0.08234   0.60354   0.82683   0.00000  Uiso   1.00
H1501  H     0.02739   0.61124   0.82673   0.00000  Uiso   1.00
H1502  H     0.13404   0.61505   0.64644   0.00000  Uiso   1.00
H1503  H     0.09218   0.65465   0.65068   0.00000  Uiso   1.00
H1504  H     0.04479   0.39395   0.74468   0.00000  Uiso   1.00
H1505  H     0.07412   0.35581   0.77681   0.00000  Uiso   1.00
H1506  H     0.04608   0.33718   0.72500   0.00000  Uiso   1.00
N1507  N     0.16667   0.61907   0.75000   0.00000  Uiso   1.00
N1508  N     0.16667   0.38093   0.75000   0.00000  Uiso   1.00
O1509  O     0.10559   0.53821   0.75000   0.00000  Uiso   1.00
O1510  O     0.10311   0.61520   0.70718   0.00000  Uiso   1.00
O1511  O     0.09937   0.37741   0.71481   0.00000  Uiso   1.00
O1512  O     0.22909   0.62173   0.79450   0.00000  Uiso   1.00
O1513  O     0.23930   0.56514   0.53469   0.00000  Uiso   1.00
O1514  O     0.23349   0.43921   0.97115   0.00000  Uiso   1.00
O1515  O     0.15074   0.57003   0.98553   0.00000  Uiso   1.00
O1516  O     0.15420   0.42818   0.51573   0.00000  Uiso   1.00
O1517  O     0.22259   0.56636   0.62816   0.00000  Uiso   1.00
O1518  O     0.20393   0.42798   0.88281   0.00000  Uiso   1.00
O1519  O     0.13225   0.56708   0.89044   0.00000  Uiso   1.00
O1520  O     0.22774   0.46179   0.75000   0.00000  Uiso   1.00
O1521  O     0.14218   0.42578   0.60747   0.00000  Uiso   1.00
O1522  O     0.04139   0.45326   0.67993   0.00000  Uiso   1.00
O1523  O     0.29894   0.57449   0.78262   0.00000  Uiso   1.00
O1524  O     0.28404   0.45072   0.68082   0.00000  Uiso   1.00
O1525  O     0.04571   0.54625   0.81441   0.00000  Uiso   1.00
O1526  O     0.22774   0.53821   0.75000   0.00000  Uiso   1.00
O1527  O     0.10559   0.46179   0.75000   0.00000  Uiso   1.00
O1528  O     0.16666   0.53822   0.68453   0.00000  Uiso   1.00
O1529  O     0.16667   0.46178   0.81547   0.00000  Uiso   1.00
O1530  O     0.16667   0.53822   0.81547   0.00000  Uiso   1.00
O1531  O     0.16666   0.46178   0.68453   0.00000  Uiso   1.00
O1532  O     0.22700   0.38546   0.79770   0.00000  Uiso   1.00
Zn1533 Zn    0.16667   0.55104   0.75000   0.00000  Uiso   1.00
Zn1534 Zn    0.16667   0.44896   0.75000   0.00000  Uiso   1.00
C1535  C     0.42012   0.49914   0.74975   0.00000  Uiso   1.00
C1536  C     0.64814   0.53414   0.76993   0.00000  Uiso   1.00
C1537  C     0.64297   0.47352   0.71327   0.00000  Uiso   1.00
C1538  C     0.35683   0.52738   0.77736   0.00000  Uiso   1.00
C1539  C     0.54603   0.53298   0.55311   0.00000  Uiso   1.00
C1540  C     0.54299   0.47163   0.95080   0.00000  Uiso   1.00
C1541  C     0.50029   0.53752   0.95807   0.00000  Uiso   1.00
C1542  C     0.50264   0.46367   0.54309   0.00000  Uiso   1.00
C1543  C     0.53652   0.53455   0.59884   0.00000  Uiso   1.00
C1544  C     0.52980   0.46721   0.90588   0.00000  Uiso   1.00
C1545  C     0.49251   0.53741   0.91111   0.00000  Uiso   1.00
C1546  C     0.57992   0.50093   0.74730   0.00000  Uiso   1.00
C1547  C     0.49708   0.46221   0.58927   0.00000  Uiso   1.00
C1548  C     0.51098   0.49939   0.61635   0.00000  Uiso   1.00
C1549  C     0.50672   0.50126   0.88539   0.00000  Uiso   1.00
C1550  C     0.52647   0.49958   0.52535   0.00000  Uiso   1.00
C1551  C     0.52589   0.50489   0.97706   0.00000  Uiso   1.00
C1552  C     0.62430   0.50310   0.74300   0.00000  Uiso   1.00
C1553  C     0.37591   0.49797   0.74843   0.00000  Uiso   1.00
C1554  C     0.60131   0.37830   0.78407   0.00000  Uiso   1.00
C1555  C     0.43631   0.62097   0.66024   0.00000  Uiso   1.00
C1556  C     0.39842   0.36504   0.74162   0.00000  Uiso   1.00
C1557  C     0.50195   0.49982   0.66385   0.00000  Uiso   1.00
C1558  C     0.56200   0.62556   0.84176   0.00000  Uiso   1.00
C1559  C     0.61409   0.55202   0.54205   0.00000  Uiso   1.00
C1560  C     0.60786   0.44288   0.95528   0.00000  Uiso   1.00
C1561  C     0.44283   0.55680   0.99638   0.00000  Uiso   1.00
C1562  C     0.44506   0.43397   0.50428   0.00000  Uiso   1.00
C1563  C     0.54866   0.61079   0.61428   0.00000  Uiso   1.00
C1564  C     0.50537   0.39547   0.89256   0.00000  Uiso   1.00
C1565  C     0.47479   0.61246   0.90322   0.00000  Uiso   1.00
C1566  C     0.50289   0.38991   0.61167   0.00000  Uiso   1.00
C1567  C     0.38082   0.48362   0.64439   0.00000  Uiso   1.00
C1568  C     0.50030   0.50025   0.83654   0.00000  Uiso   1.00
C1569  C     0.63742   0.60499   0.74644   0.00000  Uiso   1.00
C1570  C     0.63073   0.40722   0.67049   0.00000  Uiso   1.00
C1571  C     0.38557   0.59320   0.80979   0.00000  Uiso   1.00
C1572  C     0.53113   0.35930   0.77250   0.00000  Uiso   1.00
C1573  C     0.46897   0.64081   0.72752   0.00000  Uiso   1.00
C1574  C     0.46759   0.35566   0.73014   0.00000  Uiso   1.00
C1575  C     0.53020   0.64411   0.77396   0.00000  Uiso   1.00
C1576  C     0.35357   0.47470   0.71329   0.00000  Uiso   1.00
H1577  H     0.61942   0.41092   0.78531   0.00000  Uiso   1.00
H1578  H     0.59470   0.62526   0.85522   0.00000  Uiso   1.00
H1579  H     0.54542   0.59575   0.85550   0.00000  Uiso   1.00
H1580  H     0.54854   0.65675   0.85447   0.00000  Uiso   1.00
H1581  H     0.61876   0.51787   0.52787   0.00000  Uiso   1.00
H1582  H     0.62317   0.55308   0.57849   0.00000  Uiso   1.00
H1583  H     0.63537   0.57609   0.52477   0.00000  Uiso   1.00
H1584  H     0.62069   0.47833   0.95590   0.00000  Uiso   1.00
H1585  H     0.60926   0.42834   0.92083   0.00000  Uiso   1.00
H1586  H     0.62844   0.42321   0.97765   0.00000  Uiso   1.00
H1587  H     0.44297   0.53065   0.52272   0.00000  Uiso   1.00
H1588  H     0.60261   0.36448   0.74927   0.00000  Uiso   1.00
H1589  H     0.42341   0.54491   0.96647   0.00000  Uiso   1.00
H1590  H     0.42772   0.58643   0.51061   0.00000  Uiso   1.00
H1591  H     0.44197   0.46053   0.97858   0.00000  Uiso   1.00
H1592  H     0.42626   0.44162   0.53405   0.00000  Uiso   1.00
H1593  H     0.43175   0.40209   0.98899   0.00000  Uiso   1.00
H1594  H     0.52002   0.61369   0.59231   0.00000  Uiso   1.00
H1595  H     0.57630   0.62492   0.59689   0.00000  Uiso   1.00
H1596  H     0.54490   0.63198   0.64472   0.00000  Uiso   1.00
H1597  H     0.51639   0.37354   0.92011   0.00000  Uiso   1.00
H1598  H     0.49831   0.37460   0.86203   0.00000  Uiso   1.00
H1599  H     0.61715   0.35615   0.80834   0.00000  Uiso   1.00
H1600  H     0.47503   0.40980   0.90167   0.00000  Uiso   1.00
H1601  H     0.50691   0.61907   0.91797   0.00000  Uiso   1.00
H1602  H     0.45137   0.62374   0.92711   0.00000  Uiso   1.00
H1603  H     0.47188   0.63347   0.87285   0.00000  Uiso   1.00
H1604  H     0.50800   0.37400   0.57845   0.00000  Uiso   1.00
H1605  H     0.48844   0.36392   0.63323   0.00000  Uiso   1.00
H1606  H     0.53344   0.40069   0.62825   0.00000  Uiso   1.00
H1607  H     0.40148   0.51298   0.65537   0.00000  Uiso   1.00
H1608  H     0.35054   0.49518   0.63021   0.00000  Uiso   1.00
H1609  H     0.39655   0.46605   0.61701   0.00000  Uiso   1.00
H1610  H     0.41383   0.59568   0.64441   0.00000  Uiso   1.00
H1611  H     0.64720   0.63843   0.76056   0.00000  Uiso   1.00
H1612  H     0.60748   0.60776   0.72704   0.00000  Uiso   1.00
H1613  H     0.66187   0.59639   0.72215   0.00000  Uiso   1.00
H1614  H     0.64923   0.39191   0.69817   0.00000  Uiso   1.00
H1615  H     0.64882   0.40820   0.63930   0.00000  Uiso   1.00
H1616  H     0.60272   0.38466   0.66371   0.00000  Uiso   1.00
H1617  H     0.38794   0.60390   0.77428   0.00000  Uiso   1.00
H1618  H     0.41567   0.60354   0.82683   0.00000  Uiso   1.00
H1619  H     0.36072   0.61124   0.82673   0.00000  Uiso   1.00
H1620  H     0.46738   0.61505   0.64644   0.00000  Uiso   1.00
H1621  H     0.42552   0.65465   0.65068   0.00000  Uiso   1.00
H1622  H     0.37812   0.39395   0.74468   0.00000  Uiso   1.00
H1623  H     0.40746   0.35581   0.77681   0.00000  Uiso   1.00
H1624  H     0.37941   0.33718   0.72500   0.00000  Uiso   1.00
N1625  N     0.50000   0.61907   0.75000   0.00000  Uiso   1.00
N1626  N     0.50000   0.38093   0.75000   0.00000  Uiso   1.00
O1627  O     0.43892   0.53821   0.75000   0.00000  Uiso   1.00
O1628  O     0.43644   0.61520   0.70718   0.00000  Uiso   1.00
O1629  O     0.43270   0.37741   0.71481   0.00000  Uiso   1.00
O1630  O     0.56242   0.62173   0.79450   0.00000  Uiso   1.00
O1631  O     0.57263   0.56514   0.53469   0.00000  Uiso   1.00
O1632  O     0.56683   0.43921   0.97115   0.00000  Uiso   1.00
O1633  O     0.48407   0.57003   0.98553   0.00000  Uiso   1.00
O1634  O     0.48754   0.42818   0.51573   0.00000  Uiso   1.00
O1635  O     0.55593   0.56636   0.62816   0.00000  Uiso   1.00
O1636  O     0.53726   0.42798   0.88281   0.00000  Uiso   1.00
O1637  O     0.46558   0.56708   0.89044   0.00000  Uiso   1.00
O1638  O     0.56108   0.46179   0.75000   0.00000  Uiso   1.00
O1639  O     0.47551   0.42578   0.60747   0.00000  Uiso   1.00
O1640  O     0.37472   0.45326   0.67993   0.00000  Uiso   1.00
O1641  O     0.63227   0.57449   0.78262   0.00000  Uiso   1.00
O1642  O     0.61737   0.45072   0.68082   0.00000  Uiso   1.00
O1643  O     0.37904   0.54625   0.81441   0.00000  Uiso   1.00
O1644  O     0.56108   0.53821   0.75000   0.00000  Uiso   1.00
O1645  O     0.43892   0.46179   0.75000   0.00000  Uiso   1.00
O1646  O     0.50000   0.53822   0.68453   0.00000  Uiso   1.00
O1647  O     0.50000   0.46178   0.81547   0.00000  Uiso   1.00
O1648  O     0.50000   0.53822   0.81547   0.00000  Uiso   1.00
O1649  O     0.50000   0.46178   0.68453   0.00000  Uiso   1.00
O1650  O     0.56033   0.38546   0.79770   0.00000  Uiso   1.00
Zn1651 Zn    0.50000   0.55104   0.75000   0.00000  Uiso   1.00
Zn1652 Zn    0.50000   0.44896   0.75000   0.00000  Uiso   1.00
C1653  C     0.75345   0.49914   0.74975   0.00000  Uiso   1.00
C1654  C     0.98147   0.53414   0.76993   0.00000  Uiso   1.00
C1655  C     0.97630   0.47352   0.71327   0.00000  Uiso   1.00
C1656  C     0.69017   0.52738   0.77736   0.00000  Uiso   1.00
C1657  C     0.87936   0.53298   0.55311   0.00000  Uiso   1.00
C1658  C     0.87633   0.47163   0.95080   0.00000  Uiso   1.00
C1659  C     0.83363   0.53752   0.95807   0.00000  Uiso   1.00
C1660  C     0.83597   0.46367   0.54309   0.00000  Uiso   1.00
C1661  C     0.86985   0.53455   0.59884   0.00000  Uiso   1.00
C1662  C     0.86313   0.46721   0.90588   0.00000  Uiso   1.00
C1663  C     0.82584   0.53741   0.91111   0.00000  Uiso   1.00
C1664  C     0.91325   0.50093   0.74730   0.00000  Uiso   1.00
C1665  C     0.83041   0.46221   0.58927   0.00000  Uiso   1.00
C1666  C     0.84431   0.49939   0.61635   0.00000  Uiso   1.00
C1667  C     0.84005   0.50126   0.88539   0.00000  Uiso   1.00
C1668  C     0.85980   0.49958   0.52535   0.00000  Uiso   1.00
C1669  C     0.85922   0.50489   0.97706   0.00000  Uiso   1.00
C1670  C     0.95763   0.50310   0.74300   0.00000  Uiso   1.00
C1671  C     0.70924   0.49797   0.74843   0.00000  Uiso   1.00
C1672  C     0.93464   0.37830   0.78407   0.00000  Uiso   1.00
C1673  C     0.76965   0.62097   0.66024   0.00000  Uiso   1.00
C1674  C     0.73175   0.36504   0.74162   0.00000  Uiso   1.00
C1675  C     0.83528   0.49982   0.66385   0.00000  Uiso   1.00
C1676  C     0.89534   0.62556   0.84176   0.00000  Uiso   1.00
C1677  C     0.94742   0.55202   0.54205   0.00000  Uiso   1.00
C1678  C     0.94119   0.44288   0.95528   0.00000  Uiso   1.00
C1679  C     0.77616   0.55680   0.99638   0.00000  Uiso   1.00
C1680  C     0.77839   0.43397   0.50428   0.00000  Uiso   1.00
C1681  C     0.88199   0.61079   0.61428   0.00000  Uiso   1.00
C1682  C     0.83870   0.39547   0.89256   0.00000  Uiso   1.00
C1683  C     0.80812   0.61246   0.90322   0.00000  Uiso   1.00
C1684  C     0.83622   0.38991   0.61167   0.00000  Uiso   1.00
C1685  C     0.71415   0.48362   0.64439   0.00000  Uiso   1.00
C1686  C     0.83363   0.50025   0.83654   0.00000  Uiso   1.00
C1687  C     0.97076   0.60499   0.74644   0.00000  Uiso   1.00
C1688  C     0.96407   0.40722   0.67049   0.00000  Uiso   1.00
C1689  C     0.71890   0.59320   0.80979   0.00000  Uiso   1.00
C1690  C     0.86447   0.35930   0.77250   0.00000  Uiso   1.00
C1691  C     0.80230   0.64081   0.72752   0.00000  Uiso   1.00
C1692  C     0.80093   0.35566   0.73014   0.00000  Uiso   1.00
C1693  C     0.86353   0.64411   0.77396   0.00000  Uiso   1.00
C1694  C     0.68690   0.47470   0.71329   0.00000  Uiso   1.00
H1695  H     0.95275   0.41092   0.78531   0.00000  Uiso   1.00
H1696  H     0.92803   0.62526   0.85522   0.00000  Uiso   1.00
H1697  H     0.87875   0.59575   0.85550   0.00000  Uiso   1.00
H1698  H     0.88188   0.65675   0.85447   0.00000  Uiso   1.00
H1699  H     0.95210   0.51787   0.52787   0.00000  Uiso   1.00
H1700  H     0.95650   0.55308   0.57849   0.00000  Uiso   1.00
H1701  H     0.96870   0.57609   0.52477   0.00000  Uiso   1.00
H1702  H     0.95402   0.47833   0.95590   0.00000  Uiso   1.00
H1703  H     0.94260   0.42834   0.92083   0.00000  Uiso   1.00
H1704  H     0.96177   0.42321   0.97765   0.00000  Uiso   1.00
H1705  H     0.77630   0.53065   0.52272   0.00000  Uiso   1.00
H1706  H     0.93594   0.36448   0.74927   0.00000  Uiso   1.00
H1707  H     0.75674   0.54491   0.96647   0.00000  Uiso   1.00
H1708  H     0.76105   0.58643   0.51061   0.00000  Uiso   1.00
H1709  H     0.77530   0.46053   0.97858   0.00000  Uiso   1.00
H1710  H     0.75959   0.44162   0.53405   0.00000  Uiso   1.00
H1711  H     0.76509   0.40209   0.98899   0.00000  Uiso   1.00
H1712  H     0.85336   0.61369   0.59231   0.00000  Uiso   1.00
H1713  H     0.90963   0.62492   0.59689   0.00000  Uiso   1.00
H1714  H     0.87823   0.63198   0.64472   0.00000  Uiso   1.00
H1715  H     0.84973   0.37354   0.92011   0.00000  Uiso   1.00
H1716  H     0.83164   0.37460   0.86203   0.00000  Uiso   1.00
H1717  H     0.95048   0.35615   0.80834   0.00000  Uiso   1.00
H1718  H     0.80836   0.40980   0.90167   0.00000  Uiso   1.00
H1719  H     0.84025   0.61907   0.91797   0.00000  Uiso   1.00
H1720  H     0.78470   0.62374   0.92711   0.00000  Uiso   1.00
H1721  H     0.80522   0.63347   0.87285   0.00000  Uiso   1.00
H1722  H     0.84133   0.37400   0.57845   0.00000  Uiso   1.00
H1723  H     0.82177   0.36392   0.63323   0.00000  Uiso   1.00
H1724  H     0.86677   0.40069   0.62825   0.00000  Uiso   1.00
H1725  H     0.73481   0.51298   0.65537   0.00000  Uiso   1.00
H1726  H     0.68388   0.49518   0.63021   0.00000  Uiso   1.00
H1727  H     0.72988   0.46605   0.61701   0.00000  Uiso   1.00
H1728  H     0.74716   0.59568   0.64441   0.00000  Uiso   1.00
H1729  H     0.98054   0.63843   0.76056   0.00000  Uiso   1.00
H1730  H     0.94082   0.60776   0.72704   0.00000  Uiso   1.00
H1731  H     0.99520   0.59639   0.72215   0.00000  Uiso   1.00
H1732  H     0.98257   0.39191   0.69817   0.00000  Uiso   1.00
H1733  H     0.98216   0.40820   0.63930   0.00000  Uiso   1.00
H1734  H     0.93605   0.38466   0.66371   0.00000  Uiso   1.00
H1735  H     0.72128   0.60390   0.77428   0.00000  Uiso   1.00
H1736  H     0.74901   0.60354   0.82683   0.00000  Uiso   1.00
H1737  H     0.69406   0.61124   0.82673   0.00000  Uiso   1.00
H1738  H     0.80071   0.61505   0.64644   0.00000  Uiso   1.00
H1739  H     0.75885   0.65465   0.65068   0.00000  Uiso   1.00
H1740  H     0.71146   0.39395   0.74468   0.00000  Uiso   1.00
H1741  H     0.74079   0.35581   0.77681   0.00000  Uiso   1.00
H1742  H     0.71274   0.33718   0.72500   0.00000  Uiso   1.00
N1743  N     0.83333   0.61907   0.75000   0.00000  Uiso   1.00
N1744  N     0.83333   0.38093   0.75000   0.00000  Uiso   1.00
O1745  O     0.77226   0.53821   0.75000   0.00000  Uiso   1.00
O1746  O     0.76978   0.61520   0.70718   0.00000  Uiso   1.00
O1747  O     0.76603   0.37741   0.71481   0.00000  Uiso   1.00
O1748  O     0.89576   0.62173   0.79450   0.00000  Uiso   1.00
O1749  O     0.90596   0.56514   0.53469   0.00000  Uiso   1.00
O1750  O     0.90016   0.43921   0.97115   0.00000  Uiso   1.00
O1751  O     0.81741   0.57003   0.98553   0.00000  Uiso   1.00
O1752  O     0.82087   0.42818   0.51573   0.00000  Uiso   1.00
O1753  O     0.88926   0.56636   0.62816   0.00000  Uiso   1.00
O1754  O     0.87060   0.42798   0.88281   0.00000  Uiso   1.00
O1755  O     0.79891   0.56708   0.89044   0.00000  Uiso   1.00
O1756  O     0.89441   0.46179   0.75000   0.00000  Uiso   1.00
O1757  O     0.80885   0.42578   0.60747   0.00000  Uiso   1.00
O1758  O     0.70806   0.45326   0.67993   0.00000  Uiso   1.00
O1759  O     0.96560   0.57449   0.78262   0.00000  Uiso   1.00
O1760  O     0.95071   0.45072   0.68082   0.00000  Uiso   1.00
O1761  O     0.71237   0.54625   0.81441   0.00000  Uiso   1.00
O1762  O     0.89441   0.53821   0.75000   0.00000  Uiso   1.00
O1763  O     0.77226   0.46179   0.75000   0.00000  Uiso   1.00
O1764  O     0.83333   0.53822   0.68453   0.00000  Uiso   1.00
O1765  O     0.83334   0.46178   0.81547   0.00000  Uiso   1.00
O1766  O     0.83334   0.53822   0.81547   0.00000  Uiso   1.00
O1767  O     0.83333   0.46178   0.68453   0.00000  Uiso   1.00
O1768  O     0.89366   0.38546   0.79770   0.00000  Uiso   1.00
Zn1769 Zn    0.83333   0.55104   0.75000   0.00000  Uiso   1.00
Zn1770 Zn    0.83333   0.44896   0.75000   0.00000  Uiso   1.00
C1771  C     0.08679   0.83247   0.74975   0.00000  Uiso   1.00
C1772  C     0.31481   0.86747   0.76993   0.00000  Uiso   1.00
C1773  C     0.30963   0.80685   0.71327   0.00000  Uiso   1.00
C1774  C     0.02350   0.86071   0.77736   0.00000  Uiso   1.00
C1775  C     0.21270   0.86631   0.55311   0.00000  Uiso   1.00
C1776  C     0.20966   0.80497   0.95080   0.00000  Uiso   1.00
C1777  C     0.16696   0.87085   0.95807   0.00000  Uiso   1.00
C1778  C     0.16930   0.79701   0.54309   0.00000  Uiso   1.00
C1779  C     0.20319   0.86788   0.59884   0.00000  Uiso   1.00
C1780  C     0.19646   0.80054   0.90588   0.00000  Uiso   1.00
C1781  C     0.15917   0.87074   0.91111   0.00000  Uiso   1.00
C1782  C     0.24659   0.83426   0.74730   0.00000  Uiso   1.00
C1783  C     0.16375   0.79554   0.58927   0.00000  Uiso   1.00
C1784  C     0.17765   0.83273   0.61635   0.00000  Uiso   1.00
C1785  C     0.17338   0.83459   0.88539   0.00000  Uiso   1.00
C1786  C     0.19313   0.83292   0.52535   0.00000  Uiso   1.00
C1787  C     0.19255   0.83823   0.97706   0.00000  Uiso   1.00
C1788  C     0.29097   0.83643   0.74300   0.00000  Uiso   1.00
C1789  C     0.04257   0.83130   0.74843   0.00000  Uiso   1.00
C1790  C     0.26797   0.71163   0.78407   0.00000  Uiso   1.00
C1791  C     0.10298   0.95430   0.66024   0.00000  Uiso   1.00
C1792  C     0.06508   0.69837   0.74162   0.00000  Uiso   1.00
C1793  C     0.16861   0.83315   0.66385   0.00000  Uiso   1.00
C1794  C     0.22867   0.95889   0.84176   0.00000  Uiso   1.00
C1795  C     0.28075   0.88535   0.54205   0.00000  Uiso   1.00
C1796  C     0.27453   0.77621   0.95528   0.00000  Uiso   1.00
C1797  C     0.10950   0.89013   0.99638   0.00000  Uiso   1.00
C1798  C     0.11173   0.76730   0.50428   0.00000  Uiso   1.00
C1799  C     0.21533   0.94412   0.61428   0.00000  Uiso   1.00
C1800  C     0.17203   0.72881   0.89256   0.00000  Uiso   1.00
C1801  C     0.14145   0.94579   0.90322   0.00000  Uiso   1.00
C1802  C     0.16956   0.72324   0.61167   0.00000  Uiso   1.00
C1803  C     0.04748   0.81695   0.64439   0.00000  Uiso   1.00
C1804  C     0.16697   0.83358   0.83654   0.00000  Uiso   1.00
C1805  C     0.30409   0.93832   0.74644   0.00000  Uiso   1.00
C1806  C     0.29740   0.74055   0.67049   0.00000  Uiso   1.00
C1807  C     0.05223   0.92653   0.80979   0.00000  Uiso   1.00
C1808  C     0.19780   0.69263   0.77250   0.00000  Uiso   1.00
C1809  C     0.13564   0.97415   0.72752   0.00000  Uiso   1.00
C1810  C     0.13426   0.68900   0.73014   0.00000  Uiso   1.00
C1811  C     0.19686   0.97745   0.77396   0.00000  Uiso   1.00
C1812  C     0.02023   0.80803   0.71329   0.00000  Uiso   1.00
H1813  H     0.28609   0.74425   0.78531   0.00000  Uiso   1.00
H1814  H     0.26136   0.95859   0.85522   0.00000  Uiso   1.00
H1815  H     0.21209   0.92909   0.85550   0.00000  Uiso   1.00
H1816  H     0.21521   0.99008   0.85447   0.00000  Uiso   1.00
H1817  H     0.28543   0.85121   0.52787   0.00000  Uiso   1.00
H1818  H     0.28984   0.88642   0.57849   0.00000  Uiso   1.00
H1819  H     0.30204   0.90943   0.52477   0.00000  Uiso   1.00
H1820  H     0.28735   0.81166   0.95590   0.00000  Uiso   1.00
H1821  H     0.27593   0.76168   0.92083   0.00000  Uiso   1.00
H1822  H     0.29510   0.75655   0.97765   0.00000  Uiso   1.00
H1823  H     0.10963   0.86398   0.52272   0.00000  Uiso   1.00
H1824  H     0.26927   0.69782   0.74927   0.00000  Uiso   1.00
H1825  H     0.09008   0.87825   0.96647   0.00000  Uiso   1.00
H1826  H     0.09439   0.91976   0.51061   0.00000  Uiso   1.00
H1827  H     0.10863   0.79387   0.97858   0.00000  Uiso   1.00
H1828  H     0.09293   0.77495   0.53405   0.00000  Uiso   1.00
H1829  H     0.09842   0.73542   0.98899   0.00000  Uiso   1.00
H1830  H     0.18669   0.94702   0.59231   0.00000  Uiso   1.00
H1831  H     0.24297   0.95826   0.59689   0.00000  Uiso   1.00
H1832  H     0.21156   0.96531   0.64472   0.00000  Uiso   1.00
H1833  H     0.18306   0.70688   0.92011   0.00000  Uiso   1.00
H1834  H     0.16498   0.70794   0.86203   0.00000  Uiso   1.00
H1835  H     0.28382   0.68949   0.80834   0.00000  Uiso   1.00
H1836  H     0.14169   0.74313   0.90167   0.00000  Uiso   1.00
H1837  H     0.17358   0.95240   0.91797   0.00000  Uiso   1.00
H1838  H     0.11804   0.95707   0.92711   0.00000  Uiso   1.00
H1839  H     0.13855   0.96680   0.87285   0.00000  Uiso   1.00
H1840  H     0.17467   0.70733   0.57845   0.00000  Uiso   1.00
H1841  H     0.15510   0.69725   0.63323   0.00000  Uiso   1.00
H1842  H     0.20010   0.73402   0.62825   0.00000  Uiso   1.00
H1843  H     0.06814   0.84631   0.65537   0.00000  Uiso   1.00
H1844  H     0.01721   0.82851   0.63021   0.00000  Uiso   1.00
H1845  H     0.06322   0.79938   0.61701   0.00000  Uiso   1.00
H1846  H     0.08049   0.92902   0.64441   0.00000  Uiso   1.00
H1847  H     0.31387   0.97176   0.76056   0.00000  Uiso   1.00
H1848  H     0.27415   0.94110   0.72704   0.00000  Uiso   1.00
H1849  H     0.32854   0.92973   0.72215   0.00000  Uiso   1.00
H1850  H     0.31590   0.72525   0.69817   0.00000  Uiso   1.00
H1851  H     0.31549   0.74153   0.63930   0.00000  Uiso   1.00
H1852  H     0.26939   0.71799   0.66371   0.00000  Uiso   1.00
H1853  H     0.05461   0.93724   0.77428   0.00000  Uiso   1.00
H1854  H     0.08234   0.93687   0.82683   0.00000  Uiso   1.00
H1855  H     0.02739   0.94458   0.82673   0.00000  Uiso   1.00
H1856  H     0.13404   0.94838   0.64644   0.00000  Uiso   1.00
H1857  H     0.09218   0.98798   0.65068   0.00000  Uiso   1.00
H1858  H     0.04479   0.72729   0.74468   0.00000  Uiso   1.00
H1859  H     0.07412   0.68914   0.77681   0.00000  Uiso   1.00
H1860  H     0.04608   0.67051   0.72500   0.00000  Uiso   1.00
N1861  N     0.16667   0.95240   0.75000   0.00000  Uiso   1.00
N1862  N     0.16667   0.71427   0.75000   0.00000  Uiso   1.00
O1863  O     0.10559   0.87154   0.75000   0.00000  Uiso   1.00
O1864  O     0.10311   0.94853   0.70718   0.00000  Uiso   1.00
O1865  O     0.09937   0.71074   0.71481   0.00000  Uiso   1.00
O1866  O     0.22909   0.95506   0.79450   0.00000  Uiso   1.00
O1867  O     0.23930   0.89847   0.53469   0.00000  Uiso   1.00
O1868  O     0.23349   0.77254   0.97115   0.00000  Uiso   1.00
O1869  O     0.15074   0.90336   0.98553   0.00000  Uiso   1.00
O1870  O     0.15420   0.76151   0.51573   0.00000  Uiso   1.00
O1871  O     0.22259   0.89969   0.62816   0.00000  Uiso   1.00
O1872  O     0.20393   0.76131   0.88281   0.00000  Uiso   1.00
O1873  O     0.13225   0.90041   0.89044   0.00000  Uiso   1.00
O1874  O     0.22774   0.79513   0.75000   0.00000  Uiso   1.00
O1875  O     0.14218   0.75911   0.60747   0.00000  Uiso   1.00
O1876  O     0.04139   0.78659   0.67993   0.00000  Uiso   1.00
O1877  O     0.29894   0.90783   0.78262   0.00000  Uiso   1.00
O1878  O     0.28404   0.78405   0.68082   0.00000  Uiso   1.00
O1879  O     0.04571   0.87958   0.81441   0.00000  Uiso   1.00
O1880  O     0.22774   0.87154   0.75000   0.00000  Uiso   1.00
O1881  O     0.10559   0.79513   0.75000   0.00000  Uiso   1.00
O1882  O     0.16666   0.87155   0.68453   0.00000  Uiso   1.00
O1883  O     0.16667   0.79511   0.81547   0.00000  Uiso   1.00
O1884  O     0.16667   0.87155   0.81547   0.00000  Uiso   1.00
O1885  O     0.16666   0.79511   0.68453   0.00000  Uiso   1.00
O1886  O     0.22700   0.71879   0.79770   0.00000  Uiso   1.00
Zn1887 Zn    0.16667   0.88437   0.75000   0.00000  Uiso   1.00
Zn1888 Zn    0.16667   0.78229   0.75000   0.00000  Uiso   1.00
C1889  C     0.42012   0.83247   0.74975   0.00000  Uiso   1.00
C1890  C     0.64814   0.86747   0.76993   0.00000  Uiso   1.00
C1891  C     0.64297   0.80685   0.71327   0.00000  Uiso   1.00
C1892  C     0.35683   0.86071   0.77736   0.00000  Uiso   1.00
C1893  C     0.54603   0.86631   0.55311   0.00000  Uiso   1.00
C1894  C     0.54299   0.80497   0.95080   0.00000  Uiso   1.00
C1895  C     0.50029   0.87085   0.95807   0.00000  Uiso   1.00
C1896  C     0.50264   0.79701   0.54309   0.00000  Uiso   1.00
C1897  C     0.53652   0.86788   0.59884   0.00000  Uiso   1.00
C1898  C     0.52980   0.80054   0.90588   0.00000  Uiso   1.00
C1899  C     0.49251   0.87074   0.91111   0.00000  Uiso   1.00
C1900  C     0.57992   0.83426   0.74730   0.00000  Uiso   1.00
C1901  C     0.49708   0.79554   0.58927   0.00000  Uiso   1.00
C1902  C     0.51098   0.83273   0.61635   0.00000  Uiso   1.00
C1903  C     0.50672   0.83459   0.88539   0.00000  Uiso   1.00
C1904  C     0.52647   0.83292   0.52535   0.00000  Uiso   1.00
C1905  C     0.52589   0.83823   0.97706   0.00000  Uiso   1.00
C1906  C     0.62430   0.83643   0.74300   0.00000  Uiso   1.00
C1907  C     0.37591   0.83130   0.74843   0.00000  Uiso   1.00
C1908  C     0.60131   0.71163   0.78407   0.00000  Uiso   1.00
C1909  C     0.43631   0.95430   0.66024   0.00000  Uiso   1.00
C1910  C     0.39842   0.69837   0.74162   0.00000  Uiso   1.00
C1911  C     0.50195   0.83315   0.66385   0.00000  Uiso   1.00
C1912  C     0.56200   0.95889   0.84176   0.00000  Uiso   1.00
C1913  C     0.61409   0.88535   0.54205   0.00000  Uiso   1.00
C1914  C     0.60786   0.77621   0.95528   0.00000  Uiso   1.00
C1915  C     0.44283   0.89013   0.99638   0.00000  Uiso   1.00
C1916  C     0.44506   0.76730   0.50428   0.00000  Uiso   1.00
C1917  C     0.54866   0.94412   0.61428   0.00000  Uiso   1.00
C1918  C     0.50537   0.72881   0.89256   0.00000  Uiso   1.00
C1919  C     0.47479   0.94579   0.90322   0.00000  Uiso   1.00
C1920  C     0.50289   0.72324   0.61167   0.00000  Uiso   1.00
C1921  C     0.38082   0.81695   0.64439   0.00000  Uiso   1.00
C1922  C     0.50030   0.83358   0.83654   0.00000  Uiso   1.00
C1923  C     0.63742   0.93832   0.74644   0.00000  Uiso   1.00
C1924  C     0.63073   0.74055   0.67049   0.00000  Uiso   1.00
C1925  C     0.38557   0.92653   0.80979   0.00000  Uiso   1.00
C1926  C     0.53113   0.69263   0.77250   0.00000  Uiso   1.00
C1927  C     0.46897   0.97415   0.72752   0.00000  Uiso   1.00
C1928  C     0.46759   0.68900   0.73014   0.00000  Uiso   1.00
C1929  C     0.53020   0.97745   0.77396   0.00000  Uiso   1.00
C1930  C     0.35357   0.80803   0.71329   0.00000  Uiso   1.00
H1931  H     0.61942   0.74425   0.78531   0.00000  Uiso   1.00
H1932  H     0.59470   0.95859   0.85522   0.00000  Uiso   1.00
H1933  H     0.54542   0.92909   0.85550   0.00000  Uiso   1.00
H1934  H     0.54854   0.99008   0.85447   0.00000  Uiso   1.00
H1935  H     0.61876   0.85121   0.52787   0.00000  Uiso   1.00
H1936  H     0.62317   0.88642   0.57849   0.00000  Uiso   1.00
H1937  H     0.63537   0.90943   0.52477   0.00000  Uiso   1.00
H1938  H     0.62069   0.81166   0.95590   0.00000  Uiso   1.00
H1939  H     0.60926   0.76168   0.92083   0.00000  Uiso   1.00
H1940  H     0.62844   0.75655   0.97765   0.00000  Uiso   1.00
H1941  H     0.44297   0.86398   0.52272   0.00000  Uiso   1.00
H1942  H     0.60261   0.69782   0.74927   0.00000  Uiso   1.00
H1943  H     0.42341   0.87825   0.96647   0.00000  Uiso   1.00
H1944  H     0.42772   0.91976   0.51061   0.00000  Uiso   1.00
H1945  H     0.44197   0.79387   0.97858   0.00000  Uiso   1.00
H1946  H     0.42626   0.77495   0.53405   0.00000  Uiso   1.00
H1947  H     0.43175   0.73542   0.98899   0.00000  Uiso   1.00
H1948  H     0.52002   0.94702   0.59231   0.00000  Uiso   1.00
H1949  H     0.57630   0.95826   0.59689   0.00000  Uiso   1.00
H1950  H     0.54490   0.96531   0.64472   0.00000  Uiso   1.00
H1951  H     0.51639   0.70688   0.92011   0.00000  Uiso   1.00
H1952  H     0.49831   0.70794   0.86203   0.00000  Uiso   1.00
H1953  H     0.61715   0.68949   0.80834   0.00000  Uiso   1.00
H1954  H     0.47503   0.74313   0.90167   0.00000  Uiso   1.00
H1955  H     0.50691   0.95240   0.91797   0.00000  Uiso   1.00
H1956  H     0.45137   0.95707   0.92711   0.00000  Uiso   1.00
H1957  H     0.47188   0.96680   0.87285   0.00000  Uiso   1.00
H1958  H     0.50800   0.70733   0.57845   0.00000  Uiso   1.00
H1959  H     0.48844   0.69725   0.63323   0.00000  Uiso   1.00
H1960  H     0.53344   0.73402   0.62825   0.00000  Uiso   1.00
H1961  H     0.40148   0.84631   0.65537   0.00000  Uiso   1.00
H1962  H     0.35054   0.82851   0.63021   0.00000  Uiso   1.00
H1963  H     0.39655   0.79938   0.61701   0.00000  Uiso   1.00
H1964  H     0.41383   0.92902   0.64441   0.00000  Uiso   1.00
H1965  H     0.64720   0.97176   0.76056   0.00000  Uiso   1.00
H1966  H     0.60748   0.94110   0.72704   0.00000  Uiso   1.00
H1967  H     0.66187   0.92973   0.72215   0.00000  Uiso   1.00
H1968  H     0.64923   0.72525   0.69817   0.00000  Uiso   1.00
H1969  H     0.64882   0.74153   0.63930   0.00000  Uiso   1.00
H1970  H     0.60272   0.71799   0.66371   0.00000  Uiso   1.00
H1971  H     0.38794   0.93724   0.77428   0.00000  Uiso   1.00
H1972  H     0.41567   0.93687   0.82683   0.00000  Uiso   1.00
H1973  H     0.36072   0.94458   0.82673   0.00000  Uiso   1.00
H1974  H     0.46738   0.94838   0.64644   0.00000  Uiso   1.00
H1975  H     0.42552   0.98798   0.65068   0.00000  Uiso   1.00
H1976  H     0.37812   0.72729   0.74468   0.00000  Uiso   1.00
H1977  H     0.40746   0.68914   0.77681   0.00000  Uiso   1.00
H1978  H     0.37941   0.67051   0.72500   0.00000  Uiso   1.00
N1979  N     0.50000   0.95240   0.75000   0.00000  Uiso   1.00
N1980  N     0.50000   0.71427   0.75000   0.00000  Uiso   1.00
O1981  O     0.43892   0.87154   0.75000   0.00000  Uiso   1.00
O1982  O     0.43644   0.94853   0.70718   0.00000  Uiso   1.00
O1983  O     0.43270   0.71074   0.71481   0.00000  Uiso   1.00
O1984  O     0.56242   0.95506   0.79450   0.00000  Uiso   1.00
O1985  O     0.57263   0.89847   0.53469   0.00000  Uiso   1.00
O1986  O     0.56683   0.77254   0.97115   0.00000  Uiso   1.00
O1987  O     0.48407   0.90336   0.98553   0.00000  Uiso   1.00
O1988  O     0.48754   0.76151   0.51573   0.00000  Uiso   1.00
O1989  O     0.55593   0.89969   0.62816   0.00000  Uiso   1.00
O1990  O     0.53726   0.76131   0.88281   0.00000  Uiso   1.00
O1991  O     0.46558   0.90041   0.89044   0.00000  Uiso   1.00
O1992  O     0.56108   0.79513   0.75000   0.00000  Uiso   1.00
O1993  O     0.47551   0.75911   0.60747   0.00000  Uiso   1.00
O1994  O     0.37472   0.78659   0.67993   0.00000  Uiso   1.00
O1995  O     0.63227   0.90783   0.78262   0.00000  Uiso   1.00
O1996  O     0.61737   0.78405   0.68082   0.00000  Uiso   1.00
O1997  O     0.37904   0.87958   0.81441   0.00000  Uiso   1.00
O1998  O     0.56108   0.87154   0.75000   0.00000  Uiso   1.00
O1999  O     0.43892   0.79513   0.75000   0.00000  Uiso   1.00
O2000  O     0.50000   0.87155   0.68453   0.00000  Uiso   1.00
O2001  O     0.50000   0.79511   0.81547   0.00000  Uiso   1.00
O2002  O     0.50000   0.87155   0.81547   0.00000  Uiso   1.00
O2003  O     0.50000   0.79511   0.68453   0.00000  Uiso   1.00
O2004  O     0.56033   0.71879   0.79770   0.00000  Uiso   1.00
Zn2005 Zn    0.50000   0.88437   0.75000   0.00000  Uiso   1.00
Zn2006 Zn    0.50000   0.78229   0.75000   0.00000  Uiso   1.00
C2007  C     0.75345   0.83247   0.74975   0.00000  Uiso   1.00
C2008  C     0.98147   0.86747   0.76993   0.00000  Uiso   1.00
C2009  C     0.97630   0.80685   0.71327   0.00000  Uiso   1.00
C2010  C     0.69017   0.86071   0.77736   0.00000  Uiso   1.00
C2011  C     0.87936   0.86631   0.55311   0.00000  Uiso   1.00
C2012  C     0.87633   0.80497   0.95080   0.00000  Uiso   1.00
C2013  C     0.83363   0.87085   0.95807   0.00000  Uiso   1.00
C2014  C     0.83597   0.79701   0.54309   0.00000  Uiso   1.00
C2015  C     0.86985   0.86788   0.59884   0.00000  Uiso   1.00
C2016  C     0.86313   0.80054   0.90588   0.00000  Uiso   1.00
C2017  C     0.82584   0.87074   0.91111   0.00000  Uiso   1.00
C2018  C     0.91325   0.83426   0.74730   0.00000  Uiso   1.00
C2019  C     0.83041   0.79554   0.58927   0.00000  Uiso   1.00
C2020  C     0.84431   0.83273   0.61635   0.00000  Uiso   1.00
C2021  C     0.84005   0.83459   0.88539   0.00000  Uiso   1.00
C2022  C     0.85980   0.83292   0.52535   0.00000  Uiso   1.00
C2023  C     0.85922   0.83823   0.97706   0.00000  Uiso   1.00
C2024  C     0.95763   0.83643   0.74300   0.00000  Uiso   1.00
C2025  C     0.70924   0.83130   0.74843   0.00000  Uiso   1.00
C2026  C     0.93464   0.71163   0.78407   0.00000  Uiso   1.00
C2027  C     0.76965   0.95430   0.66024   0.00000  Uiso   1.00
C2028  C     0.73175   0.69837   0.74162   0.00000  Uiso   1.00
C2029  C     0.83528   0.83315   0.66385   0.00000  Uiso   1.00
C2030  C     0.89534   0.95889   0.84176   0.00000  Uiso   1.00
C2031  C     0.94742   0.88535   0.54205   0.00000  Uiso   1.00
C2032  C     0.94119   0.77621   0.95528   0.00000  Uiso   1.00
C2033  C     0.77616   0.89013   0.99638   0.00000  Uiso   1.00
C2034  C     0.77839   0.76730   0.50428   0.00000  Uiso   1.00
C2035  C     0.88199   0.94412   0.61428   0.00000  Uiso   1.00
C2036  C     0.83870   0.72881   0.89256   0.00000  Uiso   1.00
C2037  C     0.80812   0.94579   0.90322   0.00000  Uiso   1.00
C2038  C     0.83622   0.72324   0.61167   0.00000  Uiso   1.00
C2039  C     0.71415   0.81695   0.64439   0.00000  Uiso   1.00
C2040  C     0.83363   0.83358   0.83654   0.00000  Uiso   1.00
C2041  C     0.97076   0.93832   0.74644   0.00000  Uiso   1.00
C2042  C     0.96407   0.74055   0.67049   0.00000  Uiso   1.00
C2043  C     0.71890   0.92653   0.80979   0.00000  Uiso   1.00
C2044  C     0.86447   0.69263   0.77250   0.00000  Uiso   1.00
C2045  C     0.80230   0.97415   0.72752   0.00000  Uiso   1.00
C2046  C     0.80093   0.68900   0.73014   0.00000  Uiso   1.00
C2047  C     0.86353   0.97745   0.77396   0.00000  Uiso   1.00
C2048  C     0.68690   0.80803   0.71329   0.00000  Uiso   1.00
H2049  H     0.95275   0.74425   0.78531   0.00000  Uiso   1.00
H2050  H     0.92803   0.95859   0.85522   0.00000  Uiso   1.00
H2051  H     0.87875   0.92909   0.85550   0.00000  Uiso   1.00
H2052  H     0.88188   0.99008   0.85447   0.00000  Uiso   1.00
H2053  H     0.95210   0.85121   0.52787   0.00000  Uiso   1.00
H2054  H     0.95650   0.88642   0.57849   0.00000  Uiso   1.00
H2055  H     0.96870   0.90943   0.52477   0.00000  Uiso   1.00
H2056  H     0.95402   0.81166   0.95590   0.00000  Uiso   1.00
H2057  H     0.94260   0.76168   0.92083   0.00000  Uiso   1.00
H2058  H     0.96177   0.75655   0.97765   0.00000  Uiso   1.00
H2059  H     0.77630   0.86398   0.52272   0.00000  Uiso   1.00
H2060  H     0.93594   0.69782   0.74927   0.00000  Uiso   1.00
H2061  H     0.75674   0.87825   0.96647   0.00000  Uiso   1.00
H2062  H     0.76105   0.91976   0.51061   0.00000  Uiso   1.00
H2063  H     0.77530   0.79387   0.97858   0.00000  Uiso   1.00
H2064  H     0.75959   0.77495   0.53405   0.00000  Uiso   1.00
H2065  H     0.76509   0.73542   0.98899   0.00000  Uiso   1.00
H2066  H     0.85336   0.94702   0.59231   0.00000  Uiso   1.00
H2067  H     0.90963   0.95826   0.59689   0.00000  Uiso   1.00
H2068  H     0.87823   0.96531   0.64472   0.00000  Uiso   1.00
H2069  H     0.84973   0.70688   0.92011   0.00000  Uiso   1.00
H2070  H     0.83164   0.70794   0.86203   0.00000  Uiso   1.00
H2071  H     0.95048   0.68949   0.80834   0.00000  Uiso   1.00
H2072  H     0.80836   0.74313   0.90167   0.00000  Uiso   1.00
H2073  H     0.84025   0.95240   0.91797   0.00000  Uiso   1.00
H2074  H     0.78470   0.95707   0.92711   0.00000  Uiso   1.00
H2075  H     0.80522   0.96680   0.87285   0.00000  Uiso   1.00
H2076  H     0.84133   0.70733   0.57845   0.00000  Uiso   1.00
H2077  H     0.82177   0.69725   0.63323   0.00000  Uiso   1.00
H2078  H     0.86677   0.73402   0.62825   0.00000  Uiso   1.00
H2079  H     0.73481   0.84631   0.65537   0.00000  Uiso   1.00
H2080  H     0.68388   0.82851   0.63021   0.00000  Uiso   1.00
H2081  H     0.72988   0.79938   0.61701   0.00000  Uiso   1.00
H2082  H     0.74716   0.92902   0.64441   0.00000  Uiso   1.00
H2083  H     0.98054   0.97176   0.76056   0.00000  Uiso   1.00
H2084  H     0.94082   0.94110   0.72704   0.00000  Uiso   1.00
H2085  H     0.99520   0.92973   0.72215   0.00000  Uiso   1.00
H2086  H     0.98257   0.72525   0.69817   0.00000  Uiso   1.00
H2087  H     0.98216   0.74153   0.63930   0.00000  Uiso   1.00
H2088  H     0.93605   0.71799   0.66371   0.00000  Uiso   1.00
H2089  H     0.72128   0.93724   0.77428   0.00000  Uiso   1.00
H2090  H     0.74901   0.93687   0.82683   0.00000  Uiso   1.00
H2091  H     0.69406   0.94458   0.82673   0.00000  Uiso   1.00
H2092  H     0.80071   0.94838   0.64644   0.00000  Uiso   1.00
H2093  H     0.75885   0.98798   0.65068   0.00000  Uiso   1.00
H2094  H     0.71146   0.72729   0.74468   0.00000  Uiso   1.00
H2095  H     0.74079   0.68914   0.77681   0.00000  Uiso   1.00
H2096  H     0.71274   0.67051   0.72500   0.00000  Uiso   1.00
N2097  N     0.83333   0.95240   0.75000   0.00000  Uiso   1.00
N2098  N     0.83333   0.71427   0.75000   0.00000  Uiso   1.00
O2099  O     0.77226   0.87154   0.75000   0.00000  Uiso   1.00
O2100  O     0.76978   0.94853   0.70718   0.00000  Uiso   1.00
O2101  O     0.76603   0.71074   0.71481   0.00000  Uiso   1.00
O2102  O     0.89576   0.95506   0.79450   0.00000  Uiso   1.00
O2103  O     0.90596   0.89847   0.53469   0.00000  Uiso   1.00
O2104  O     0.90016   0.77254   0.97115   0.00000  Uiso   1.00
O2105  O     0.81741   0.90336   0.98553   0.00000  Uiso   1.00
O2106  O     0.82087   0.76151   0.51573   0.00000  Uiso   1.00
O2107  O     0.88926   0.89969   0.62816   0.00000  Uiso   1.00
O2108  O     0.87060   0.76131   0.88281   0.00000  Uiso   1.00
O2109  O     0.79891   0.90041   0.89044   0.00000  Uiso   1.00
O2110  O     0.89441   0.79513   0.75000   0.00000  Uiso   1.00
O2111  O     0.80885   0.75911   0.60747   0.00000  Uiso   1.00
O2112  O     0.70806   0.78659   0.67993   0.00000  Uiso   1.00
O2113  O     0.96560   0.90783   0.78262   0.00000  Uiso   1.00
O2114  O     0.95071   0.78405   0.68082   0.00000  Uiso   1.00
O2115  O     0.71237   0.87958   0.81441   0.00000  Uiso   1.00
O2116  O     0.89441   0.87154   0.75000   0.00000  Uiso   1.00
O2117  O     0.77226   0.79513   0.75000   0.00000  Uiso   1.00
O2118  O     0.83333   0.87155   0.68453   0.00000  Uiso   1.00
O2119  O     0.83334   0.79511   0.81547   0.00000  Uiso   1.00
O2120  O     0.83334   0.87155   0.81547   0.00000  Uiso   1.00
O2121  O     0.83333   0.79511   0.68453   0.00000  Uiso   1.00
O2122  O     0.89366   0.71879   0.79770   0.00000  Uiso   1.00
Zn2123 Zn    0.83333   0.88437   0.75000   0.00000  Uiso   1.00
Zn2124 Zn    0.83333   0.78229   0.75000   0.00000  Uiso   1.00
loop_
_geom_bond_atom_site_label_1
_geom_bond_atom_site_label_2
_geom_bond_distance
_geom_bond_site_symmetry_2
_ccdc_geom_bond_type
C1     C19     1.414   .     S
C1     O111    1.285   .     A
C1     O93     1.285   .     A
C2     C18     1.400   .     A
C2     O107    1.376   .     S
C2     C122    1.380   .     S
C3     C18     1.405   .     A
C3     O108    1.396   .     S
C3     C160    1.406   .     S
C4     O109    1.391   .     S
C4     C19     1.393   .     A
C4     C238    1.380   1_455 S
C5     C16     1.398   .     A
C5     C9      1.404   .     A
C5     O97     1.383   .     S
C6     O98     1.386   .     S
C6     C17     1.394   .     A
C6     C10     1.391   .     A
C7     C11     1.411   .     A
C7     O99     1.387   .     S
C7     C17     1.407   .     A
C8     C13     1.391   .     A
C8     C16     1.403   .     A
C8     O100    1.386   .     S
C9     O101    1.392   .     S
C9     C14     1.414   .     A
C10    C15     1.410   .     A
C10    O102    1.380   .     S
C11    C15     1.412   .     A
C11    O103    1.393   .     S
C12    O110    1.287   .     A
C12    O104    1.292   .     A
C12    C18     1.430   .     S
C13    C14     1.409   .     A
C13    O105    1.384   .     S
C14    C23     1.451   .     S
C15    C34     1.460   .     S
C16    C1079   1.446   1_554 S
C17    C1078   1.446   .     S
C19    C42     1.406   .     A
C20    H65     1.107   .     S
C20    O116    1.410   .     S
C20    H54     1.112   .     S
C20    H43     1.108   .     S
C21    H87     1.110   .     S
C21    H76     1.109   .     S
C21    O94     1.408   .     S
C21    H86     1.109   .     S
C22    O95     1.416   .     S
C22    H88     1.104   .     S
C22    H90     1.109   .     S
C22    H89     1.117   .     S
C23    O112    1.296   .     A
C23    O115    1.293   .     A
C24    H45     1.103   .     S
C24    H44     1.109   .     S
C24    H46     1.107   .     S
C24    O96     1.409   .     S
C25    H47     1.113   .     S
C25    H48     1.112   .     S
C25    O97     1.410   .     S
C25    H49     1.109   .     S
C26    H50     1.114   .     S
C26    H52     1.109   .     S
C26    O98     1.411   .     S
C26    H51     1.111   .     S
C27    O99     1.411   .     S
C27    H55     1.114   .     S
C27    H1115   1.109   .     S
C27    H1118   1.109   .     S
C28    O100    1.410   .     S
C28    H58     1.114   .     S
C28    H1119   1.110   1_554 S
C28    H1121   1.109   1_554 S
C29    H62     1.110   .     S
C29    H61     1.109   .     S
C29    H60     1.115   .     S
C29    O101    1.414   .     S
C30    H64     1.106   .     S
C30    O102    1.415   .     S
C30    H66     1.117   .     S
C30    H63     1.110   .     S
C31    H68     1.109   .     S
C31    O103    1.414   .     S
C31    H67     1.114   .     S
C31    H69     1.107   .     S
C32    H72     1.114   .     S
C32    H71     1.105   .     S
C32    H70     1.111   .     S
C32    O105    1.413   .     S
C33    H75     1.109   .     S
C33    O106    1.410   .     S
C33    H73     1.112   .     S
C33    H74     1.114   .     S
C34    O113    1.297   .     A
C34    O114    1.297   .     A
C35    H77     1.104   .     S
C35    H78     1.109   .     S
C35    H79     1.118   .     S
C35    O107    1.423   .     S
C36    O108    1.413   .     S
C36    H82     1.109   .     S
C36    H80     1.111   .     S
C36    H81     1.110   .     S
C37    H85     1.110   .     S
C37    H84     1.105   .     S
C37    O109    1.411   .     S
C37    H83     1.110   .     S
C38    N92     1.369   .     A
C38    O116    1.386   .     S
C38    C749    1.442   1_545 S
C39    N91     1.368   .     A
C39    O94     1.383   .     S
C39    C394    1.436   .     S
C40    N92     1.369   .     A
C40    O95     1.381   .     S
C40    C747    1.436   1_545 S
C41    O96     1.381   .     S
C41    N91     1.371   .     A
C41    C392    1.442   .     S
C42    O106    1.384   .     S
C42    C239    1.406   1_455 S
H53    C1089   1.109   1_554 S
H56    C1089   1.109   1_554 S
H57    C1090   1.110   .     S
H59    C1090   1.109   .     S
N91    Zn117   2.022   .     S
N92    Zn118   2.022   .     S
O93    Zn117   1.977   .     S
O104   Zn118   1.977   .     S
O110   Zn117   2.009   .     S
O111   Zn118   2.009   .     S
O112   Zn117   1.980   .     S
O113   Zn118   1.980   .     S
O114   Zn117   1.988   .     S
O115   Zn118   1.988   .     S
C119   C137    1.414   .     S
C119   O229    1.285   .     A
C119   O211    1.285   .     A
C120   C136    1.400   .     A
C120   O225    1.376   .     S
C120   C240    1.380   .     S
C121   C136    1.405   .     A
C121   O226    1.396   .     S
C121   C278    1.406   .     S
C122   O227    1.391   .     S
C122   C137    1.393   .     A
C123   C134    1.398   .     A
C123   C127    1.404   .     A
C123   O215    1.383   .     S
C124   O216    1.386   .     S
C124   C135    1.394   .     A
C124   C128    1.391   .     A
C125   C129    1.411   .     A
C125   O217    1.387   .     S
C125   C135    1.407   .     A
C126   C131    1.391   .     A
C126   C134    1.403   .     A
C126   O218    1.386   .     S
C127   O219    1.392   .     S
C127   C132    1.414   .     A
C128   C133    1.410   .     A
C128   O220    1.380   .     S
C129   C133    1.412   .     A
C129   O221    1.393   .     S
C130   O228    1.287   .     A
C130   O222    1.292   .     A
C130   C136    1.430   .     S
C131   C132    1.409   .     A
C131   O223    1.384   .     S
C132   C141    1.451   .     S
C133   C152    1.460   .     S
C134   C1197   1.446   1_554 S
C135   C1196   1.446   .     S
C137   C160    1.406   .     A
C138   H183    1.107   .     S
C138   O234    1.410   .     S
C138   H172    1.112   .     S
C138   H161    1.108   .     S
C139   H205    1.110   .     S
C139   H194    1.109   .     S
C139   O212    1.408   .     S
C139   H204    1.109   .     S
C140   O213    1.416   .     S
C140   H206    1.104   .     S
C140   H208    1.109   .     S
C140   H207    1.117   .     S
C141   O230    1.296   .     A
C141   O233    1.293   .     A
C142   H163    1.103   .     S
C142   H162    1.109   .     S
C142   H164    1.107   .     S
C142   O214    1.409   .     S
C143   H165    1.113   .     S
C143   H166    1.112   .     S
C143   O215    1.410   .     S
C143   H167    1.109   .     S
C144   H168    1.114   .     S
C144   H170    1.109   .     S
C144   O216    1.411   .     S
C144   H169    1.111   .     S
C145   O217    1.411   .     S
C145   H173    1.114   .     S
C145   H1233   1.109   .     S
C145   H1236   1.109   .     S
C146   O218    1.410   .     S
C146   H176    1.114   .     S
C146   H1237   1.110   1_554 S
C146   H1239   1.109   1_554 S
C147   H180    1.110   .     S
C147   H179    1.109   .     S
C147   H178    1.115   .     S
C147   O219    1.414   .     S
C148   H182    1.106   .     S
C148   O220    1.415   .     S
C148   H184    1.117   .     S
C148   H181    1.110   .     S
C149   H186    1.109   .     S
C149   O221    1.414   .     S
C149   H185    1.114   .     S
C149   H187    1.107   .     S
C150   H190    1.114   .     S
C150   H189    1.105   .     S
C150   H188    1.111   .     S
C150   O223    1.413   .     S
C151   H193    1.109   .     S
C151   O224    1.410   .     S
C151   H191    1.112   .     S
C151   H192    1.114   .     S
C152   O231    1.297   .     A
C152   O232    1.297   .     A
C153   H195    1.104   .     S
C153   H196    1.109   .     S
C153   H197    1.118   .     S
C153   O225    1.423   .     S
C154   O226    1.413   .     S
C154   H200    1.109   .     S
C154   H198    1.111   .     S
C154   H199    1.110   .     S
C155   H203    1.110   .     S
C155   H202    1.105   .     S
C155   O227    1.411   .     S
C155   H201    1.110   .     S
C156   N210    1.369   .     A
C156   O234    1.386   .     S
C156   C867    1.442   1_545 S
C157   N209    1.368   .     A
C157   O212    1.383   .     S
C157   C512    1.436   .     S
C158   N210    1.369   .     A
C158   O213    1.381   .     S
C158   C865    1.436   1_545 S
C159   O214    1.381   .     S
C159   N209    1.371   .     A
C159   C510    1.442   .     S
C160   O224    1.384   .     S
H171   C1207   1.109   1_554 S
H174   C1207   1.109   1_554 S
H175   C1208   1.110   .     S
H177   C1208   1.109   .     S
N209   Zn235   2.022   .     S
N210   Zn236   2.022   .     S
O211   Zn235   1.977   .     S
O222   Zn236   1.977   .     S
O228   Zn235   2.009   .     S
O229   Zn236   2.009   .     S
O230   Zn235   1.980   .     S
O231   Zn236   1.980   .     S
O232   Zn235   1.988   .     S
O233   Zn236   1.988   .     S
C237   C255    1.414   .     S
C237   O347    1.285   .     A
C237   O329    1.285   .     A
C238   C254    1.400   .     A
C238   O343    1.376   .     S
C238   C4      1.380   1_655 S
C239   C254    1.405   .     A
C239   O344    1.396   .     S
C239   C42     1.406   1_655 S
C240   O345    1.391   .     S
C240   C255    1.393   .     A
C241   C252    1.398   .     A
C241   C245    1.404   .     A
C241   O333    1.383   .     S
C242   O334    1.386   .     S
C242   C253    1.394   .     A
C242   C246    1.391   .     A
C243   C247    1.411   .     A
C243   O335    1.387   .     S
C243   C253    1.407   .     A
C244   C249    1.391   .     A
C244   C252    1.403   .     A
C244   O336    1.386   .     S
C245   O337    1.392   .     S
C245   C250    1.414   .     A
C246   C251    1.410   .     A
C246   O338    1.380   .     S
C247   C251    1.412   .     A
C247   O339    1.393   .     S
C248   O346    1.287   .     A
C248   O340    1.292   .     A
C248   C254    1.430   .     S
C249   C250    1.409   .     A
C249   O341    1.384   .     S
C250   C259    1.451   .     S
C251   C270    1.460   .     S
C252   C1315   1.446   1_554 S
C253   C1314   1.446   .     S
C255   C278    1.406   .     A
C256   H301    1.107   .     S
C256   O352    1.410   .     S
C256   H290    1.112   .     S
C256   H279    1.108   .     S
C257   H323    1.110   .     S
C257   H312    1.109   .     S
C257   O330    1.408   .     S
C257   H322    1.109   .     S
C258   O331    1.416   .     S
C258   H324    1.104   .     S
C258   H326    1.109   .     S
C258   H325    1.117   .     S
C259   O348    1.296   .     A
C259   O351    1.293   .     A
C260   H281    1.103   .     S
C260   H280    1.109   .     S
C260   H282    1.107   .     S
C260   O332    1.409   .     S
C261   H283    1.113   .     S
C261   H284    1.112   .     S
C261   O333    1.410   .     S
C261   H285    1.109   .     S
C262   H286    1.114   .     S
C262   H288    1.109   .     S
C262   O334    1.411   .     S
C262   H287    1.111   .     S
C263   O335    1.411   .     S
C263   H291    1.114   .     S
C263   H1351   1.109   .     S
C263   H1354   1.109   .     S
C264   O336    1.410   .     S
C264   H294    1.114   .     S
C264   H1355   1.110   1_554 S
C264   H1357   1.109   1_554 S
C265   H298    1.110   .     S
C265   H297    1.109   .     S
C265   H296    1.115   .     S
C265   O337    1.414   .     S
C266   H300    1.106   .     S
C266   O338    1.415   .     S
C266   H302    1.117   .     S
C266   H299    1.110   .     S
C267   H304    1.109   .     S
C267   O339    1.414   .     S
C267   H303    1.114   .     S
C267   H305    1.107   .     S
C268   H308    1.114   .     S
C268   H307    1.105   .     S
C268   H306    1.111   .     S
C268   O341    1.413   .     S
C269   H311    1.109   .     S
C269   O342    1.410   .     S
C269   H309    1.112   .     S
C269   H310    1.114   .     S
C270   O349    1.297   .     A
C270   O350    1.297   .     A
C271   H313    1.104   .     S
C271   H314    1.109   .     S
C271   H315    1.118   .     S
C271   O343    1.423   .     S
C272   O344    1.413   .     S
C272   H318    1.109   .     S
C272   H316    1.111   .     S
C272   H317    1.110   .     S
C273   H321    1.110   .     S
C273   H320    1.105   .     S
C273   O345    1.411   .     S
C273   H319    1.110   .     S
C274   N328    1.369   .     A
C274   O352    1.386   .     S
C274   C985    1.442   1_545 S
C275   N327    1.368   .     A
C275   O330    1.383   .     S
C275   C630    1.436   .     S
C276   N328    1.369   .     A
C276   O331    1.381   .     S
C276   C983    1.436   1_545 S
C277   O332    1.381   .     S
C277   N327    1.371   .     A
C277   C628    1.442   .     S
C278   O342    1.384   .     S
H289   C1325   1.109   1_554 S
H292   C1325   1.109   1_554 S
H293   C1326   1.110   .     S
H295   C1326   1.109   .     S
N327   Zn353   2.022   .     S
N328   Zn354   2.022   .     S
O329   Zn353   1.977   .     S
O340   Zn354   1.977   .     S
O346   Zn353   2.009   .     S
O347   Zn354   2.009   .     S
O348   Zn353   1.980   .     S
O349   Zn354   1.980   .     S
O350   Zn353   1.988   .     S
O351   Zn354   1.988   .     S
C355   C373    1.414   .     S
C355   O465    1.285   .     A
C355   O447    1.285   .     A
C356   C372    1.400   .     A
C356   O461    1.376   .     S
C356   C476    1.380   .     S
C357   C372    1.405   .     A
C357   O462    1.396   .     S
C357   C514    1.406   .     S
C358   O463    1.391   .     S
C358   C373    1.393   .     A
C358   C592    1.380   1_455 S
C359   C370    1.398   .     A
C359   C363    1.404   .     A
C359   O451    1.383   .     S
C360   O452    1.386   .     S
C360   C371    1.394   .     A
C360   C364    1.391   .     A
C361   C365    1.411   .     A
C361   O453    1.387   .     S
C361   C371    1.407   .     A
C362   C367    1.391   .     A
C362   C370    1.403   .     A
C362   O454    1.386   .     S
C363   O455    1.392   .     S
C363   C368    1.414   .     A
C364   C369    1.410   .     A
C364   O456    1.380   .     S
C365   C369    1.412   .     A
C365   O457    1.393   .     S
C366   O464    1.287   .     A
C366   O458    1.292   .     A
C366   C372    1.430   .     S
C367   C368    1.409   .     A
C367   O459    1.384   .     S
C368   C377    1.451   .     S
C369   C388    1.460   .     S
C370   C1433   1.446   1_554 S
C371   C1432   1.446   .     S
C373   C396    1.406   .     A
C374   H419    1.107   .     S
C374   O470    1.410   .     S
C374   H408    1.112   .     S
C374   H397    1.108   .     S
C375   H441    1.110   .     S
C375   H430    1.109   .     S
C375   O448    1.408   .     S
C375   H440    1.109   .     S
C376   O449    1.416   .     S
C376   H442    1.104   .     S
C376   H444    1.109   .     S
C376   H443    1.117   .     S
C377   O466    1.296   .     A
C377   O469    1.293   .     A
C378   H399    1.103   .     S
C378   H398    1.109   .     S
C378   H400    1.107   .     S
C378   O450    1.409   .     S
C379   H401    1.113   .     S
C379   H402    1.112   .     S
C379   O451    1.410   .     S
C379   H403    1.109   .     S
C380   H404    1.114   .     S
C380   H406    1.109   .     S
C380   O452    1.411   .     S
C380   H405    1.111   .     S
C381   O453    1.411   .     S
C381   H409    1.114   .     S
C381   H1469   1.109   .     S
C381   H1472   1.109   .     S
C382   O454    1.410   .     S
C382   H412    1.114   .     S
C382   H1473   1.110   1_554 S
C382   H1475   1.109   1_554 S
C383   H416    1.110   .     S
C383   H415    1.109   .     S
C383   H414    1.115   .     S
C383   O455    1.414   .     S
C384   H418    1.106   .     S
C384   O456    1.415   .     S
C384   H420    1.117   .     S
C384   H417    1.110   .     S
C385   H422    1.109   .     S
C385   O457    1.414   .     S
C385   H421    1.114   .     S
C385   H423    1.107   .     S
C386   H426    1.114   .     S
C386   H425    1.105   .     S
C386   H424    1.111   .     S
C386   O459    1.413   .     S
C387   H429    1.109   .     S
C387   O460    1.410   .     S
C387   H427    1.112   .     S
C387   H428    1.114   .     S
C388   O467    1.297   .     A
C388   O468    1.297   .     A
C389   H431    1.104   .     S
C389   H432    1.109   .     S
C389   H433    1.118   .     S
C389   O461    1.423   .     S
C390   O462    1.413   .     S
C390   H436    1.109   .     S
C390   H434    1.111   .     S
C390   H435    1.110   .     S
C391   H439    1.110   .     S
C391   H438    1.105   .     S
C391   O463    1.411   .     S
C391   H437    1.110   .     S
C392   N446    1.369   .     A
C392   O470    1.386   .     S
C393   N445    1.368   .     A
C393   O448    1.383   .     S
C393   C748    1.436   .     S
C394   N446    1.369   .     A
C394   O449    1.381   .     S
C395   O450    1.381   .     S
C395   N445    1.371   .     A
C395   C746    1.442   .     S
C396   O460    1.384   .     S
C396   C593    1.406   1_455 S
H407   C1443   1.109   1_554 S
H410   C1443   1.109   1_554 S
H411   C1444   1.110   .     S
H413   C1444   1.109   .     S
N445   Zn471   2.022   .     S
N446   Zn472   2.022   .     S
O447   Zn471   1.977   .     S
O458   Zn472   1.977   .     S
O464   Zn471   2.009   .     S
O465   Zn472   2.009   .     S
O466   Zn471   1.980   .     S
O467   Zn472   1.980   .     S
O468   Zn471   1.988   .     S
O469   Zn472   1.988   .     S
C473   C491    1.414   .     S
C473   O583    1.285   .     A
C473   O565    1.285   .     A
C474   C490    1.400   .     A
C474   O579    1.376   .     S
C474   C594    1.380   .     S
C475   C490    1.405   .     A
C475   O580    1.396   .     S
C475   C632    1.406   .     S
C476   O581    1.391   .     S
C476   C491    1.393   .     A
C477   C488    1.398   .     A
C477   C481    1.404   .     A
C477   O569    1.383   .     S
C478   O570    1.386   .     S
C478   C489    1.394   .     A
C478   C482    1.391   .     A
C479   C483    1.411   .     A
C479   O571    1.387   .     S
C479   C489    1.407   .     A
C480   C485    1.391   .     A
C480   C488    1.403   .     A
C480   O572    1.386   .     S
C481   O573    1.392   .     S
C481   C486    1.414   .     A
C482   C487    1.410   .     A
C482   O574    1.380   .     S
C483   C487    1.412   .     A
C483   O575    1.393   .     S
C484   O582    1.287   .     A
C484   O576    1.292   .     A
C484   C490    1.430   .     S
C485   C486    1.409   .     A
C485   O577    1.384   .     S
C486   C495    1.451   .     S
C487   C506    1.460   .     S
C488   C1551   1.446   1_554 S
C489   C1550   1.446   .     S
C491   C514    1.406   .     A
C492   H537    1.107   .     S
C492   O588    1.410   .     S
C492   H526    1.112   .     S
C492   H515    1.108   .     S
C493   H559    1.110   .     S
C493   H548    1.109   .     S
C493   O566    1.408   .     S
C493   H558    1.109   .     S
C494   O567    1.416   .     S
C494   H560    1.104   .     S
C494   H562    1.109   .     S
C494   H561    1.117   .     S
C495   O584    1.296   .     A
C495   O587    1.293   .     A
C496   H517    1.103   .     S
C496   H516    1.109   .     S
C496   H518    1.107   .     S
C496   O568    1.409   .     S
C497   H519    1.113   .     S
C497   H520    1.112   .     S
C497   O569    1.410   .     S
C497   H521    1.109   .     S
C498   H522    1.114   .     S
C498   H524    1.109   .     S
C498   O570    1.411   .     S
C498   H523    1.111   .     S
C499   O571    1.411   .     S
C499   H527    1.114   .     S
C499   H1587   1.109   .     S
C499   H1590   1.109   .     S
C500   O572    1.410   .     S
C500   H530    1.114   .     S
C500   H1591   1.110   1_554 S
C500   H1593   1.109   1_554 S
C501   H534    1.110   .     S
C501   H533    1.109   .     S
C501   H532    1.115   .     S
C501   O573    1.414   .     S
C502   H536    1.106   .     S
C502   O574    1.415   .     S
C502   H538    1.117   .     S
C502   H535    1.110   .     S
C503   H540    1.109   .     S
C503   O575    1.414   .     S
C503   H539    1.114   .     S
C503   H541    1.107   .     S
C504   H544    1.114   .     S
C504   H543    1.105   .     S
C504   H542    1.111   .     S
C504   O577    1.413   .     S
C505   H547    1.109   .     S
C505   O578    1.410   .     S
C505   H545    1.112   .     S
C505   H546    1.114   .     S
C506   O585    1.297   .     A
C506   O586    1.297   .     A
C507   H549    1.104   .     S
C507   H550    1.109   .     S
C507   H551    1.118   .     S
C507   O579    1.423   .     S
C508   O580    1.413   .     S
C508   H554    1.109   .     S
C508   H552    1.111   .     S
C508   H553    1.110   .     S
C509   H557    1.110   .     S
C509   H556    1.105   .     S
C509   O581    1.411   .     S
C509   H555    1.110   .     S
C510   N564    1.369   .     A
C510   O588    1.386   .     S
C511   N563    1.368   .     A
C511   O566    1.383   .     S
C511   C866    1.436   .     S
C512   N564    1.369   .     A
C512   O567    1.381   .     S
C513   O568    1.381   .     S
C513   N563    1.371   .     A
C513   C864    1.442   .     S
C514   O578    1.384   .     S
H525   C1561   1.109   1_554 S
H528   C1561   1.109   1_554 S
H529   C1562   1.110   .     S
H531   C1562   1.109   .     S
N563   Zn589   2.022   .     S
N564   Zn590   2.022   .     S
O565   Zn589   1.977   .     S
O576   Zn590   1.977   .     S
O582   Zn589   2.009   .     S
O583   Zn590   2.009   .     S
O584   Zn589   1.980   .     S
O585   Zn590   1.980   .     S
O586   Zn589   1.988   .     S
O587   Zn590   1.988   .     S
C591   C609    1.414   .     S
C591   O701    1.285   .     A
C591   O683    1.285   .     A
C592   C608    1.400   .     A
C592   O697    1.376   .     S
C592   C358    1.380   1_655 S
C593   C608    1.405   .     A
C593   O698    1.396   .     S
C593   C396    1.406   1_655 S
C594   O699    1.391   .     S
C594   C609    1.393   .     A
C595   C606    1.398   .     A
C595   C599    1.404   .     A
C595   O687    1.383   .     S
C596   O688    1.386   .     S
C596   C607    1.394   .     A
C596   C600    1.391   .     A
C597   C601    1.411   .     A
C597   O689    1.387   .     S
C597   C607    1.407   .     A
C598   C603    1.391   .     A
C598   C606    1.403   .     A
C598   O690    1.386   .     S
C599   O691    1.392   .     S
C599   C604    1.414   .     A
C600   C605    1.410   .     A
C600   O692    1.380   .     S
C601   C605    1.412   .     A
C601   O693    1.393   .     S
C602   O700    1.287   .     A
C602   O694    1.292   .     A
C602   C608    1.430   .     S
C603   C604    1.409   .     A
C603   O695    1.384   .     S
C604   C613    1.451   .     S
C605   C624    1.460   .     S
C606   C1669   1.446   1_554 S
C607   C1668   1.446   .     S
C609   C632    1.406   .     A
C610   H655    1.107   .     S
C610   O706    1.410   .     S
C610   H644    1.112   .     S
C610   H633    1.108   .     S
C611   H677    1.110   .     S
C611   H666    1.109   .     S
C611   O684    1.408   .     S
C611   H676    1.109   .     S
C612   O685    1.416   .     S
C612   H678    1.104   .     S
C612   H680    1.109   .     S
C612   H679    1.117   .     S
C613   O702    1.296   .     A
C613   O705    1.293   .     A
C614   H635    1.103   .     S
C614   H634    1.109   .     S
C614   H636    1.107   .     S
C614   O686    1.409   .     S
C615   H637    1.113   .     S
C615   H638    1.112   .     S
C615   O687    1.410   .     S
C615   H639    1.109   .     S
C616   H640    1.114   .     S
C616   H642    1.109   .     S
C616   O688    1.411   .     S
C616   H641    1.111   .     S
C617   O689    1.411   .     S
C617   H645    1.114   .     S
C617   H1705   1.109   .     S
C617   H1708   1.109   .     S
C618   O690    1.410   .     S
C618   H648    1.114   .     S
C618   H1709   1.110   1_554 S
C618   H1711   1.109   1_554 S
C619   H652    1.110   .     S
C619   H651    1.109   .     S
C619   H650    1.115   .     S
C619   O691    1.414   .     S
C620   H654    1.106   .     S
C620   O692    1.415   .     S
C620   H656    1.117   .     S
C620   H653    1.110   .     S
C621   H658    1.109   .     S
C621   O693    1.414   .     S
C621   H657    1.114   .     S
C621   H659    1.107   .     S
C622   H662    1.114   .     S
C622   H661    1.105   .     S
C622   H660    1.111   .     S
C622   O695    1.413   .     S
C623   H665    1.109   .     S
C623   O696    1.410   .     S
C623   H663    1.112   .     S
C623   H664    1.114   .     S
C624   O703    1.297   .     A
C624   O704    1.297   .     A
C625   H667    1.104   .     S
C625   H668    1.109   .     S
C625   H669    1.118   .     S
C625   O697    1.423   .     S
C626   O698    1.413   .     S
C626   H672    1.109   .     S
C626   H670    1.111   .     S
C626   H671    1.110   .     S
C627   H675    1.110   .     S
C627   H674    1.105   .     S
C627   O699    1.411   .     S
C627   H673    1.110   .     S
C628   N682    1.369   .     A
C628   O706    1.386   .     S
C629   N681    1.368   .     A
C629   O684    1.383   .     S
C629   C984    1.436   .     S
C630   N682    1.369   .     A
C630   O685    1.381   .     S
C631   O686    1.381   .     S
C631   N681    1.371   .     A
C631   C982    1.442   .     S
C632   O696    1.384   .     S
H643   C1679   1.109   1_554 S
H646   C1679   1.109   1_554 S
H647   C1680   1.110   .     S
H649   C1680   1.109   .     S
N681   Zn707   2.022   .     S
N682   Zn708   2.022   .     S
O683   Zn707   1.977   .     S
O694   Zn708   1.977   .     S
O700   Zn707   2.009   .     S
O701   Zn708   2.009   .     S
O702   Zn707   1.980   .     S
O703   Zn708   1.980   .     S
O704   Zn707   1.988   .     S
O705   Zn708   1.988   .     S
C709   C727    1.414   .     S
C709   O819    1.285   .     A
C709   O801    1.285   .     A
C710   C726    1.400   .     A
C710   O815    1.376   .     S
C710   C830    1.380   .     S
C711   C726    1.405   .     A
C711   O816    1.396   .     S
C711   C868    1.406   .     S
C712   O817    1.391   .     S
C712   C727    1.393   .     A
C712   C946    1.380   1_455 S
C713   C724    1.398   .     A
C713   C717    1.404   .     A
C713   O805    1.383   .     S
C714   O806    1.386   .     S
C714   C725    1.394   .     A
C714   C718    1.391   .     A
C715   C719    1.411   .     A
C715   O807    1.387   .     S
C715   C725    1.407   .     A
C716   C721    1.391   .     A
C716   C724    1.403   .     A
C716   O808    1.386   .     S
C717   O809    1.392   .     S
C717   C722    1.414   .     A
C718   C723    1.410   .     A
C718   O810    1.380   .     S
C719   C723    1.412   .     A
C719   O811    1.393   .     S
C720   O818    1.287   .     A
C720   O812    1.292   .     A
C720   C726    1.430   .     S
C721   C722    1.409   .     A
C721   O813    1.384   .     S
C722   C731    1.451   .     S
C723   C742    1.460   .     S
C724   C1787   1.446   1_554 S
C725   C1786   1.446   .     S
C727   C750    1.406   .     A
C728   H773    1.107   .     S
C728   O824    1.410   .     S
C728   H762    1.112   .     S
C728   H751    1.108   .     S
C729   H795    1.110   .     S
C729   H784    1.109   .     S
C729   O802    1.408   .     S
C729   H794    1.109   .     S
C730   O803    1.416   .     S
C730   H796    1.104   .     S
C730   H798    1.109   .     S
C730   H797    1.117   .     S
C731   O820    1.296   .     A
C731   O823    1.293   .     A
C732   H753    1.103   .     S
C732   H752    1.109   .     S
C732   H754    1.107   .     S
C732   O804    1.409   .     S
C733   H755    1.113   .     S
C733   H756    1.112   .     S
C733   O805    1.410   .     S
C733   H757    1.109   .     S
C734   H758    1.114   .     S
C734   H760    1.109   .     S
C734   O806    1.411   .     S
C734   H759    1.111   .     S
C735   O807    1.411   .     S
C735   H763    1.114   .     S
C735   H1823   1.109   .     S
C735   H1826   1.109   .     S
C736   O808    1.410   .     S
C736   H766    1.114   .     S
C736   H1827   1.110   1_554 S
C736   H1829   1.109   1_554 S
C737   H770    1.110   .     S
C737   H769    1.109   .     S
C737   H768    1.115   .     S
C737   O809    1.414   .     S
C738   H772    1.106   .     S
C738   O810    1.415   .     S
C738   H774    1.117   .     S
C738   H771    1.110   .     S
C739   H776    1.109   .     S
C739   O811    1.414   .     S
C739   H775    1.114   .     S
C739   H777    1.107   .     S
C740   H780    1.114   .     S
C740   H779    1.105   .     S
C740   H778    1.111   .     S
C740   O813    1.413   .     S
C741   H783    1.109   .     S
C741   O814    1.410   .     S
C741   H781    1.112   .     S
C741   H782    1.114   .     S
C742   O821    1.297   .     A
C742   O822    1.297   .     A
C743   H785    1.104   .     S
C743   H786    1.109   .     S
C743   H787    1.118   .     S
C743   O815    1.423   .     S
C744   O816    1.413   .     S
C744   H790    1.109   .     S
C744   H788    1.111   .     S
C744   H789    1.110   .     S
C745   H793    1.110   .     S
C745   H792    1.105   .     S
C745   O817    1.411   .     S
C745   H791    1.110   .     S
C746   N800    1.369   .     A
C746   O824    1.386   .     S
C747   N799    1.368   .     A
C747   O802    1.383   .     S
C747   C40     1.436   1_565 S
C748   N800    1.369   .     A
C748   O803    1.381   .     S
C749   O804    1.381   .     S
C749   N799    1.371   .     A
C749   C38     1.442   1_565 S
C750   O814    1.384   .     S
C750   C947    1.406   1_455 S
H761   C1797   1.109   1_554 S
H764   C1797   1.109   1_554 S
H765   C1798   1.110   .     S
H767   C1798   1.109   .     S
N799   Zn825   2.022   .     S
N800   Zn826   2.022   .     S
O801   Zn825   1.977   .     S
O812   Zn826   1.977   .     S
O818   Zn825   2.009   .     S
O819   Zn826   2.009   .     S
O820   Zn825   1.980   .     S
O821   Zn826   1.980   .     S
O822   Zn825   1.988   .     S
O823   Zn826   1.988   .     S
C827   C845    1.414   .     S
C827   O937    1.285   .     A
C827   O919    1.285   .     A
C828   C844    1.400   .     A
C828   O933    1.376   .     S
C828   C948    1.380   .     S
C829   C844    1.405   .     A
C829   O934    1.396   .     S
C829   C986    1.406   .     S
C830   O935    1.391   .     S
C830   C845    1.393   .     A
C831   C842    1.398   .     A
C831   C835    1.404   .     A
C831   O923    1.383   .     S
C832   O924    1.386   .     S
C832   C843    1.394   .     A
C832   C836    1.391   .     A
C833   C837    1.411   .     A
C833   O925    1.387   .     S
C833   C843    1.407   .     A
C834   C839    1.391   .     A
C834   C842    1.403   .     A
C834   O926    1.386   .     S
C835   O927    1.392   .     S
C835   C840    1.414   .     A
C836   C841    1.410   .     A
C836   O928    1.380   .     S
C837   C841    1.412   .     A
C837   O929    1.393   .     S
C838   O936    1.287   .     A
C838   O930    1.292   .     A
C838   C844    1.430   .     S
C839   C840    1.409   .     A
C839   O931    1.384   .     S
C840   C849    1.451   .     S
C841   C860    1.460   .     S
C842   C1905   1.446   1_554 S
C843   C1904   1.446   .     S
C845   C868    1.406   .     A
C846   H891    1.107   .     S
C846   O942    1.410   .     S
C846   H880    1.112   .     S
C846   H869    1.108   .     S
C847   H913    1.110   .     S
C847   H902    1.109   .     S
C847   O920    1.408   .     S
C847   H912    1.109   .     S
C848   O921    1.416   .     S
C848   H914    1.104   .     S
C848   H916    1.109   .     S
C848   H915    1.117   .     S
C849   O938    1.296   .     A
C849   O941    1.293   .     A
C850   H871    1.103   .     S
C850   H870    1.109   .     S
C850   H872    1.107   .     S
C850   O922    1.409   .     S
C851   H873    1.113   .     S
C851   H874    1.112   .     S
C851   O923    1.410   .     S
C851   H875    1.109   .     S
C852   H876    1.114   .     S
C852   H878    1.109   .     S
C852   O924    1.411   .     S
C852   H877    1.111   .     S
C853   O925    1.411   .     S
C853   H881    1.114   .     S
C853   H1941   1.109   .     S
C853   H1944   1.109   .     S
C854   O926    1.410   .     S
C854   H884    1.114   .     S
C854   H1945   1.110   1_554 S
C854   H1947   1.109   1_554 S
C855   H888    1.110   .     S
C855   H887    1.109   .     S
C855   H886    1.115   .     S
C855   O927    1.414   .     S
C856   H890    1.106   .     S
C856   O928    1.415   .     S
C856   H892    1.117   .     S
C856   H889    1.110   .     S
C857   H894    1.109   .     S
C857   O929    1.414   .     S
C857   H893    1.114   .     S
C857   H895    1.107   .     S
C858   H898    1.114   .     S
C858   H897    1.105   .     S
C858   H896    1.111   .     S
C858   O931    1.413   .     S
C859   H901    1.109   .     S
C859   O932    1.410   .     S
C859   H899    1.112   .     S
C859   H900    1.114   .     S
C860   O939    1.297   .     A
C860   O940    1.297   .     A
C861   H903    1.104   .     S
C861   H904    1.109   .     S
C861   H905    1.118   .     S
C861   O933    1.423   .     S
C862   O934    1.413   .     S
C862   H908    1.109   .     S
C862   H906    1.111   .     S
C862   H907    1.110   .     S
C863   H911    1.110   .     S
C863   H910    1.105   .     S
C863   O935    1.411   .     S
C863   H909    1.110   .     S
C864   N918    1.369   .     A
C864   O942    1.386   .     S
C865   N917    1.368   .     A
C865   O920    1.383   .     S
C865   C158    1.436   1_565 S
C866   N918    1.369   .     A
C866   O921    1.381   .     S
C867   O922    1.381   .     S
C867   N917    1.371   .     A
C867   C156    1.442   1_565 S
C868   O932    1.384   .     S
H879   C1915   1.109   1_554 S
H882   C1915   1.109   1_554 S
H883   C1916   1.110   .     S
H885   C1916   1.109   .     S
N917   Zn943   2.022   .     S
N918   Zn944   2.022   .     S
O919   Zn943   1.977   .     S
O930   Zn944   1.977   .     S
O936   Zn943   2.009   .     S
O937   Zn944   2.009   .     S
O938   Zn943   1.980   .     S
O939   Zn944   1.980   .     S
O940   Zn943   1.988   .     S
O941   Zn944   1.988   .     S
C945   C963    1.414   .     S
C945   O1055   1.285   .     A
C945   O1037   1.285   .     A
C946   C962    1.400   .     A
C946   O1051   1.376   .     S
C946   C712    1.380   1_655 S
C947   C962    1.405   .     A
C947   O1052   1.396   .     S
C947   C750    1.406   1_655 S
C948   O1053   1.391   .     S
C948   C963    1.393   .     A
C949   C960    1.398   .     A
C949   C953    1.404   .     A
C949   O1041   1.383   .     S
C950   O1042   1.386   .     S
C950   C961    1.394   .     A
C950   C954    1.391   .     A
C951   C955    1.411   .     A
C951   O1043   1.387   .     S
C951   C961    1.407   .     A
C952   C957    1.391   .     A
C952   C960    1.403   .     A
C952   O1044   1.386   .     S
C953   O1045   1.392   .     S
C953   C958    1.414   .     A
C954   C959    1.410   .     A
C954   O1046   1.380   .     S
C955   C959    1.412   .     A
C955   O1047   1.393   .     S
C956   O1054   1.287   .     A
C956   O1048   1.292   .     A
C956   C962    1.430   .     S
C957   C958    1.409   .     A
C957   O1049   1.384   .     S
C958   C967    1.451   .     S
C959   C978    1.460   .     S
C960   C2023   1.446   1_554 S
C961   C2022   1.446   .     S
C963   C986    1.406   .     A
C964   H1009   1.107   .     S
C964   O1060   1.410   .     S
C964   H998    1.112   .     S
C964   H987    1.108   .     S
C965   H1031   1.110   .     S
C965   H1020   1.109   .     S
C965   O1038   1.408   .     S
C965   H1030   1.109   .     S
C966   O1039   1.416   .     S
C966   H1032   1.104   .     S
C966   H1034   1.109   .     S
C966   H1033   1.117   .     S
C967   O1056   1.296   .     A
C967   O1059   1.293   .     A
C968   H989    1.103   .     S
C968   H988    1.109   .     S
C968   H990    1.107   .     S
C968   O1040   1.409   .     S
C969   H991    1.113   .     S
C969   H992    1.112   .     S
C969   O1041   1.410   .     S
C969   H993    1.109   .     S
C970   H994    1.114   .     S
C970   H996    1.109   .     S
C970   O1042   1.411   .     S
C970   H995    1.111   .     S
C971   O1043   1.411   .     S
C971   H999    1.114   .     S
C971   H2059   1.109   .     S
C971   H2062   1.109   .     S
C972   O1044   1.410   .     S
C972   H1002   1.114   .     S
C972   H2063   1.110   1_554 S
C972   H2065   1.109   1_554 S
C973   H1006   1.110   .     S
C973   H1005   1.109   .     S
C973   H1004   1.115   .     S
C973   O1045   1.414   .     S
C974   H1008   1.106   .     S
C974   O1046   1.415   .     S
C974   H1010   1.117   .     S
C974   H1007   1.110   .     S
C975   H1012   1.109   .     S
C975   O1047   1.414   .     S
C975   H1011   1.114   .     S
C975   H1013   1.107   .     S
C976   H1016   1.114   .     S
C976   H1015   1.105   .     S
C976   H1014   1.111   .     S
C976   O1049   1.413   .     S
C977   H1019   1.109   .     S
C977   O1050   1.410   .     S
C977   H1017   1.112   .     S
C977   H1018   1.114   .     S
C978   O1057   1.297   .     A
C978   O1058   1.297   .     A
C979   H1021   1.104   .     S
C979   H1022   1.109   .     S
C979   H1023   1.118   .     S
C979   O1051   1.423   .     S
C980   O1052   1.413   .     S
C980   H1026   1.109   .     S
C980   H1024   1.111   .     S
C980   H1025   1.110   .     S
C981   H1029   1.110   .     S
C981   H1028   1.105   .     S
C981   O1053   1.411   .     S
C981   H1027   1.110   .     S
C982   N1036   1.369   .     A
C982   O1060   1.386   .     S
C983   N1035   1.368   .     A
C983   O1038   1.383   .     S
C983   C276    1.436   1_565 S
C984   N1036   1.369   .     A
C984   O1039   1.381   .     S
C985   O1040   1.381   .     S
C985   N1035   1.371   .     A
C985   C274    1.442   1_565 S
C986   O1050   1.384   .     S
H997   C2033   1.109   1_554 S
H1000  C2033   1.109   1_554 S
H1001  C2034   1.110   .     S
H1003  C2034   1.109   .     S
N1035  Zn1061  2.022   .     S
N1036  Zn1062  2.022   .     S
O1037  Zn1061  1.977   .     S
O1048  Zn1062  1.977   .     S
O1054  Zn1061  2.009   .     S
O1055  Zn1062  2.009   .     S
O1056  Zn1061  1.980   .     S
O1057  Zn1062  1.980   .     S
O1058  Zn1061  1.988   .     S
O1059  Zn1062  1.988   .     S
C1063  C1081   1.414   .     S
C1063  O1173   1.285   .     A
C1063  O1155   1.285   .     A
C1064  C1080   1.400   .     A
C1064  O1169   1.376   .     S
C1064  C1184   1.380   .     S
C1065  C1080   1.405   .     A
C1065  O1170   1.396   .     S
C1065  C1222   1.406   .     S
C1066  O1171   1.391   .     S
C1066  C1081   1.393   .     A
C1066  C1300   1.380   1_455 S
C1067  C1078   1.398   .     A
C1067  C1071   1.404   .     A
C1067  O1159   1.383   .     S
C1068  O1160   1.386   .     S
C1068  C1079   1.394   .     A
C1068  C1072   1.391   .     A
C1069  C1073   1.411   .     A
C1069  O1161   1.387   .     S
C1069  C1079   1.407   .     A
C1070  C1075   1.391   .     A
C1070  C1078   1.403   .     A
C1070  O1162   1.386   .     S
C1071  O1163   1.392   .     S
C1071  C1076   1.414   .     A
C1072  C1077   1.410   .     A
C1072  O1164   1.380   .     S
C1073  C1077   1.412   .     A
C1073  O1165   1.393   .     S
C1074  O1172   1.287   .     A
C1074  O1166   1.292   .     A
C1074  C1080   1.430   .     S
C1075  C1076   1.409   .     A
C1075  O1167   1.384   .     S
C1076  C1085   1.451   .     S
C1077  C1096   1.460   .     S
C1079  C16     1.446   1_556 S
C1081  C1104   1.406   .     A
C1082  H1127   1.107   .     S
C1082  O1178   1.410   .     S
C1082  H1116   1.112   .     S
C1082  H1105   1.108   .     S
C1083  H1149   1.110   .     S
C1083  H1138   1.109   .     S
C1083  O1156   1.408   .     S
C1083  H1148   1.109   .     S
C1084  O1157   1.416   .     S
C1084  H1150   1.104   .     S
C1084  H1152   1.109   .     S
C1084  H1151   1.117   .     S
C1085  O1174   1.296   .     A
C1085  O1177   1.293   .     A
C1086  H1107   1.103   .     S
C1086  H1106   1.109   .     S
C1086  H1108   1.107   .     S
C1086  O1158   1.409   .     S
C1087  H1109   1.113   .     S
C1087  H1110   1.112   .     S
C1087  O1159   1.410   .     S
C1087  H1111   1.109   .     S
C1088  H1112   1.114   .     S
C1088  H1114   1.109   .     S
C1088  O1160   1.411   .     S
C1088  H1113   1.111   .     S
C1089  O1161   1.411   .     S
C1089  H1117   1.114   .     S
C1089  H53     1.109   1_556 S
C1089  H56     1.109   1_556 S
C1090  O1162   1.410   .     S
C1090  H1120   1.114   .     S
C1091  H1124   1.110   .     S
C1091  H1123   1.109   .     S
C1091  H1122   1.115   .     S
C1091  O1163   1.414   .     S
C1092  H1126   1.106   .     S
C1092  O1164   1.415   .     S
C1092  H1128   1.117   .     S
C1092  H1125   1.110   .     S
C1093  H1130   1.109   .     S
C1093  O1165   1.414   .     S
C1093  H1129   1.114   .     S
C1093  H1131   1.107   .     S
C1094  H1134   1.114   .     S
C1094  H1133   1.105   .     S
C1094  H1132   1.111   .     S
C1094  O1167   1.413   .     S
C1095  H1137   1.109   .     S
C1095  O1168   1.410   .     S
C1095  H1135   1.112   .     S
C1095  H1136   1.114   .     S
C1096  O1175   1.297   .     A
C1096  O1176   1.297   .     A
C1097  H1139   1.104   .     S
C1097  H1140   1.109   .     S
C1097  H1141   1.118   .     S
C1097  O1169   1.423   .     S
C1098  O1170   1.413   .     S
C1098  H1144   1.109   .     S
C1098  H1142   1.111   .     S
C1098  H1143   1.110   .     S
C1099  H1147   1.110   .     S
C1099  H1146   1.105   .     S
C1099  O1171   1.411   .     S
C1099  H1145   1.110   .     S
C1100  N1154   1.369   .     A
C1100  O1178   1.386   .     S
C1100  C1811   1.442   1_545 S
C1101  N1153   1.368   .     A
C1101  O1156   1.383   .     S
C1101  C1456   1.436   .     S
C1102  N1154   1.369   .     A
C1102  O1157   1.381   .     S
C1102  C1809   1.436   1_545 S
C1103  O1158   1.381   .     S
C1103  N1153   1.371   .     A
C1103  C1454   1.442   .     S
C1104  O1168   1.384   .     S
C1104  C1301   1.406   1_455 S
H1119  C28     1.110   1_556 S
H1121  C28     1.109   1_556 S
N1153  Zn1179  2.022   .     S
N1154  Zn1180  2.022   .     S
O1155  Zn1179  1.977   .     S
O1166  Zn1180  1.977   .     S
O1172  Zn1179  2.009   .     S
O1173  Zn1180  2.009   .     S
O1174  Zn1179  1.980   .     S
O1175  Zn1180  1.980   .     S
O1176  Zn1179  1.988   .     S
O1177  Zn1180  1.988   .     S
C1181  C1199   1.414   .     S
C1181  O1291   1.285   .     A
C1181  O1273   1.285   .     A
C1182  C1198   1.400   .     A
C1182  O1287   1.376   .     S
C1182  C1302   1.380   .     S
C1183  C1198   1.405   .     A
C1183  O1288   1.396   .     S
C1183  C1340   1.406   .     S
C1184  O1289   1.391   .     S
C1184  C1199   1.393   .     A
C1185  C1196   1.398   .     A
C1185  C1189   1.404   .     A
C1185  O1277   1.383   .     S
C1186  O1278   1.386   .     S
C1186  C1197   1.394   .     A
C1186  C1190   1.391   .     A
C1187  C1191   1.411   .     A
C1187  O1279   1.387   .     S
C1187  C1197   1.407   .     A
C1188  C1193   1.391   .     A
C1188  C1196   1.403   .     A
C1188  O1280   1.386   .     S
C1189  O1281   1.392   .     S
C1189  C1194   1.414   .     A
C1190  C1195   1.410   .     A
C1190  O1282   1.380   .     S
C1191  C1195   1.412   .     A
C1191  O1283   1.393   .     S
C1192  O1290   1.287   .     A
C1192  O1284   1.292   .     A
C1192  C1198   1.430   .     S
C1193  C1194   1.409   .     A
C1193  O1285   1.384   .     S
C1194  C1203   1.451   .     S
C1195  C1214   1.460   .     S
C1197  C134    1.446   1_556 S
C1199  C1222   1.406   .     A
C1200  H1245   1.107   .     S
C1200  O1296   1.410   .     S
C1200  H1234   1.112   .     S
C1200  H1223   1.108   .     S
C1201  H1267   1.110   .     S
C1201  H1256   1.109   .     S
C1201  O1274   1.408   .     S
C1201  H1266   1.109   .     S
C1202  O1275   1.416   .     S
C1202  H1268   1.104   .     S
C1202  H1270   1.109   .     S
C1202  H1269   1.117   .     S
C1203  O1292   1.296   .     A
C1203  O1295   1.293   .     A
C1204  H1225   1.103   .     S
C1204  H1224   1.109   .     S
C1204  H1226   1.107   .     S
C1204  O1276   1.409   .     S
C1205  H1227   1.113   .     S
C1205  H1228   1.112   .     S
C1205  O1277   1.410   .     S
C1205  H1229   1.109   .     S
C1206  H1230   1.114   .     S
C1206  H1232   1.109   .     S
C1206  O1278   1.411   .     S
C1206  H1231   1.111   .     S
C1207  O1279   1.411   .     S
C1207  H1235   1.114   .     S
C1207  H171    1.109   1_556 S
C1207  H174    1.109   1_556 S
C1208  O1280   1.410   .     S
C1208  H1238   1.114   .     S
C1209  H1242   1.110   .     S
C1209  H1241   1.109   .     S
C1209  H1240   1.115   .     S
C1209  O1281   1.414   .     S
C1210  H1244   1.106   .     S
C1210  O1282   1.415   .     S
C1210  H1246   1.117   .     S
C1210  H1243   1.110   .     S
C1211  H1248   1.109   .     S
C1211  O1283   1.414   .     S
C1211  H1247   1.114   .     S
C1211  H1249   1.107   .     S
C1212  H1252   1.114   .     S
C1212  H1251   1.105   .     S
C1212  H1250   1.111   .     S
C1212  O1285   1.413   .     S
C1213  H1255   1.109   .     S
C1213  O1286   1.410   .     S
C1213  H1253   1.112   .     S
C1213  H1254   1.114   .     S
C1214  O1293   1.297   .     A
C1214  O1294   1.297   .     A
C1215  H1257   1.104   .     S
C1215  H1258   1.109   .     S
C1215  H1259   1.118   .     S
C1215  O1287   1.423   .     S
C1216  O1288   1.413   .     S
C1216  H1262   1.109   .     S
C1216  H1260   1.111   .     S
C1216  H1261   1.110   .     S
C1217  H1265   1.110   .     S
C1217  H1264   1.105   .     S
C1217  O1289   1.411   .     S
C1217  H1263   1.110   .     S
C1218  N1272   1.369   .     A
C1218  O1296   1.386   .     S
C1218  C1929   1.442   1_545 S
C1219  N1271   1.368   .     A
C1219  O1274   1.383   .     S
C1219  C1574   1.436   .     S
C1220  N1272   1.369   .     A
C1220  O1275   1.381   .     S
C1220  C1927   1.436   1_545 S
C1221  O1276   1.381   .     S
C1221  N1271   1.371   .     A
C1221  C1572   1.442   .     S
C1222  O1286   1.384   .     S
H1237  C146    1.110   1_556 S
H1239  C146    1.109   1_556 S
N1271  Zn1297  2.022   .     S
N1272  Zn1298  2.022   .     S
O1273  Zn1297  1.977   .     S
O1284  Zn1298  1.977   .     S
O1290  Zn1297  2.009   .     S
O1291  Zn1298  2.009   .     S
O1292  Zn1297  1.980   .     S
O1293  Zn1298  1.980   .     S
O1294  Zn1297  1.988   .     S
O1295  Zn1298  1.988   .     S
C1299  C1317   1.414   .     S
C1299  O1409   1.285   .     A
C1299  O1391   1.285   .     A
C1300  C1316   1.400   .     A
C1300  O1405   1.376   .     S
C1300  C1066   1.380   1_655 S
C1301  C1316   1.405   .     A
C1301  O1406   1.396   .     S
C1301  C1104   1.406   1_655 S
C1302  O1407   1.391   .     S
C1302  C1317   1.393   .     A
C1303  C1314   1.398   .     A
C1303  C1307   1.404   .     A
C1303  O1395   1.383   .     S
C1304  O1396   1.386   .     S
C1304  C1315   1.394   .     A
C1304  C1308   1.391   .     A
C1305  C1309   1.411   .     A
C1305  O1397   1.387   .     S
C1305  C1315   1.407   .     A
C1306  C1311   1.391   .     A
C1306  C1314   1.403   .     A
C1306  O1398   1.386   .     S
C1307  O1399   1.392   .     S
C1307  C1312   1.414   .     A
C1308  C1313   1.410   .     A
C1308  O1400   1.380   .     S
C1309  C1313   1.412   .     A
C1309  O1401   1.393   .     S
C1310  O1408   1.287   .     A
C1310  O1402   1.292   .     A
C1310  C1316   1.430   .     S
C1311  C1312   1.409   .     A
C1311  O1403   1.384   .     S
C1312  C1321   1.451   .     S
C1313  C1332   1.460   .     S
C1315  C252    1.446   1_556 S
C1317  C1340   1.406   .     A
C1318  H1363   1.107   .     S
C1318  O1414   1.410   .     S
C1318  H1352   1.112   .     S
C1318  H1341   1.108   .     S
C1319  H1385   1.110   .     S
C1319  H1374   1.109   .     S
C1319  O1392   1.408   .     S
C1319  H1384   1.109   .     S
C1320  O1393   1.416   .     S
C1320  H1386   1.104   .     S
C1320  H1388   1.109   .     S
C1320  H1387   1.117   .     S
C1321  O1410   1.296   .     A
C1321  O1413   1.293   .     A
C1322  H1343   1.103   .     S
C1322  H1342   1.109   .     S
C1322  H1344   1.107   .     S
C1322  O1394   1.409   .     S
C1323  H1345   1.113   .     S
C1323  H1346   1.112   .     S
C1323  O1395   1.410   .     S
C1323  H1347   1.109   .     S
C1324  H1348   1.114   .     S
C1324  H1350   1.109   .     S
C1324  O1396   1.411   .     S
C1324  H1349   1.111   .     S
C1325  O1397   1.411   .     S
C1325  H1353   1.114   .     S
C1325  H289    1.109   1_556 S
C1325  H292    1.109   1_556 S
C1326  O1398   1.410   .     S
C1326  H1356   1.114   .     S
C1327  H1360   1.110   .     S
C1327  H1359   1.109   .     S
C1327  H1358   1.115   .     S
C1327  O1399   1.414   .     S
C1328  H1362   1.106   .     S
C1328  O1400   1.415   .     S
C1328  H1364   1.117   .     S
C1328  H1361   1.110   .     S
C1329  H1366   1.109   .     S
C1329  O1401   1.414   .     S
C1329  H1365   1.114   .     S
C1329  H1367   1.107   .     S
C1330  H1370   1.114   .     S
C1330  H1369   1.105   .     S
C1330  H1368   1.111   .     S
C1330  O1403   1.413   .     S
C1331  H1373   1.109   .     S
C1331  O1404   1.410   .     S
C1331  H1371   1.112   .     S
C1331  H1372   1.114   .     S
C1332  O1411   1.297   .     A
C1332  O1412   1.297   .     A
C1333  H1375   1.104   .     S
C1333  H1376   1.109   .     S
C1333  H1377   1.118   .     S
C1333  O1405   1.423   .     S
C1334  O1406   1.413   .     S
C1334  H1380   1.109   .     S
C1334  H1378   1.111   .     S
C1334  H1379   1.110   .     S
C1335  H1383   1.110   .     S
C1335  H1382   1.105   .     S
C1335  O1407   1.411   .     S
C1335  H1381   1.110   .     S
C1336  N1390   1.369   .     A
C1336  O1414   1.386   .     S
C1336  C2047   1.442   1_545 S
C1337  N1389   1.368   .     A
C1337  O1392   1.383   .     S
C1337  C1692   1.436   .     S
C1338  N1390   1.369   .     A
C1338  O1393   1.381   .     S
C1338  C2045   1.436   1_545 S
C1339  O1394   1.381   .     S
C1339  N1389   1.371   .     A
C1339  C1690   1.442   .     S
C1340  O1404   1.384   .     S
H1355  C264    1.110   1_556 S
H1357  C264    1.109   1_556 S
N1389  Zn1415  2.022   .     S
N1390  Zn1416  2.022   .     S
O1391  Zn1415  1.977   .     S
O1402  Zn1416  1.977   .     S
O1408  Zn1415  2.009   .     S
O1409  Zn1416  2.009   .     S
O1410  Zn1415  1.980   .     S
O1411  Zn1416  1.980   .     S
O1412  Zn1415  1.988   .     S
O1413  Zn1416  1.988   .     S
C1417  C1435   1.414   .     S
C1417  O1527   1.285   .     A
C1417  O1509   1.285   .     A
C1418  C1434   1.400   .     A
C1418  O1523   1.376   .     S
C1418  C1538   1.380   .     S
C1419  C1434   1.405   .     A
C1419  O1524   1.396   .     S
C1419  C1576   1.406   .     S
C1420  O1525   1.391   .     S
C1420  C1435   1.393   .     A
C1420  C1654   1.380   1_455 S
C1421  C1432   1.398   .     A
C1421  C1425   1.404   .     A
C1421  O1513   1.383   .     S
C1422  O1514   1.386   .     S
C1422  C1433   1.394   .     A
C1422  C1426   1.391   .     A
C1423  C1427   1.411   .     A
C1423  O1515   1.387   .     S
C1423  C1433   1.407   .     A
C1424  C1429   1.391   .     A
C1424  C1432   1.403   .     A
C1424  O1516   1.386   .     S
C1425  O1517   1.392   .     S
C1425  C1430   1.414   .     A
C1426  C1431   1.410   .     A
C1426  O1518   1.380   .     S
C1427  C1431   1.412   .     A
C1427  O1519   1.393   .     S
C1428  O1526   1.287   .     A
C1428  O1520   1.292   .     A
C1428  C1434   1.430   .     S
C1429  C1430   1.409   .     A
C1429  O1521   1.384   .     S
C1430  C1439   1.451   .     S
C1431  C1450   1.460   .     S
C1433  C370    1.446   1_556 S
C1435  C1458   1.406   .     A
C1436  H1481   1.107   .     S
C1436  O1532   1.410   .     S
C1436  H1470   1.112   .     S
C1436  H1459   1.108   .     S
C1437  H1503   1.110   .     S
C1437  H1492   1.109   .     S
C1437  O1510   1.408   .     S
C1437  H1502   1.109   .     S
C1438  O1511   1.416   .     S
C1438  H1504   1.104   .     S
C1438  H1506   1.109   .     S
C1438  H1505   1.117   .     S
C1439  O1528   1.296   .     A
C1439  O1531   1.293   .     A
C1440  H1461   1.103   .     S
C1440  H1460   1.109   .     S
C1440  H1462   1.107   .     S
C1440  O1512   1.409   .     S
C1441  H1463   1.113   .     S
C1441  H1464   1.112   .     S
C1441  O1513   1.410   .     S
C1441  H1465   1.109   .     S
C1442  H1466   1.114   .     S
C1442  H1468   1.109   .     S
C1442  O1514   1.411   .     S
C1442  H1467   1.111   .     S
C1443  O1515   1.411   .     S
C1443  H1471   1.114   .     S
C1443  H407    1.109   1_556 S
C1443  H410    1.109   1_556 S
C1444  O1516   1.410   .     S
C1444  H1474   1.114   .     S
C1445  H1478   1.110   .     S
C1445  H1477   1.109   .     S
C1445  H1476   1.115   .     S
C1445  O1517   1.414   .     S
C1446  H1480   1.106   .     S
C1446  O1518   1.415   .     S
C1446  H1482   1.117   .     S
C1446  H1479   1.110   .     S
C1447  H1484   1.109   .     S
C1447  O1519   1.414   .     S
C1447  H1483   1.114   .     S
C1447  H1485   1.107   .     S
C1448  H1488   1.114   .     S
C1448  H1487   1.105   .     S
C1448  H1486   1.111   .     S
C1448  O1521   1.413   .     S
C1449  H1491   1.109   .     S
C1449  O1522   1.410   .     S
C1449  H1489   1.112   .     S
C1449  H1490   1.114   .     S
C1450  O1529   1.297   .     A
C1450  O1530   1.297   .     A
C1451  H1493   1.104   .     S
C1451  H1494   1.109   .     S
C1451  H1495   1.118   .     S
C1451  O1523   1.423   .     S
C1452  O1524   1.413   .     S
C1452  H1498   1.109   .     S
C1452  H1496   1.111   .     S
C1452  H1497   1.110   .     S
C1453  H1501   1.110   .     S
C1453  H1500   1.105   .     S
C1453  O1525   1.411   .     S
C1453  H1499   1.110   .     S
C1454  N1508   1.369   .     A
C1454  O1532   1.386   .     S
C1455  N1507   1.368   .     A
C1455  O1510   1.383   .     S
C1455  C1810   1.436   .     S
C1456  N1508   1.369   .     A
C1456  O1511   1.381   .     S
C1457  O1512   1.381   .     S
C1457  N1507   1.371   .     A
C1457  C1808   1.442   .     S
C1458  O1522   1.384   .     S
C1458  C1655   1.406   1_455 S
H1473  C382    1.110   1_556 S
H1475  C382    1.109   1_556 S
N1507  Zn1533  2.022   .     S
N1508  Zn1534  2.022   .     S
O1509  Zn1533  1.977   .     S
O1520  Zn1534  1.977   .     S
O1526  Zn1533  2.009   .     S
O1527  Zn1534  2.009   .     S
O1528  Zn1533  1.980   .     S
O1529  Zn1534  1.980   .     S
O1530  Zn1533  1.988   .     S
O1531  Zn1534  1.988   .     S
C1535  C1553   1.414   .     S
C1535  O1645   1.285   .     A
C1535  O1627   1.285   .     A
C1536  C1552   1.400   .     A
C1536  O1641   1.376   .     S
C1536  C1656   1.380   .     S
C1537  C1552   1.405   .     A
C1537  O1642   1.396   .     S
C1537  C1694   1.406   .     S
C1538  O1643   1.391   .     S
C1538  C1553   1.393   .     A
C1539  C1550   1.398   .     A
C1539  C1543   1.404   .     A
C1539  O1631   1.383   .     S
C1540  O1632   1.386   .     S
C1540  C1551   1.394   .     A
C1540  C1544   1.391   .     A
C1541  C1545   1.411   .     A
C1541  O1633   1.387   .     S
C1541  C1551   1.407   .     A
C1542  C1547   1.391   .     A
C1542  C1550   1.403   .     A
C1542  O1634   1.386   .     S
C1543  O1635   1.392   .     S
C1543  C1548   1.414   .     A
C1544  C1549   1.410   .     A
C1544  O1636   1.380   .     S
C1545  C1549   1.412   .     A
C1545  O1637   1.393   .     S
C1546  O1644   1.287   .     A
C1546  O1638   1.292   .     A
C1546  C1552   1.430   .     S
C1547  C1548   1.409   .     A
C1547  O1639   1.384   .     S
C1548  C1557   1.451   .     S
C1549  C1568   1.460   .     S
C1551  C488    1.446   1_556 S
C1553  C1576   1.406   .     A
C1554  H1599   1.107   .     S
C1554  O1650   1.410   .     S
C1554  H1588   1.112   .     S
C1554  H1577   1.108   .     S
C1555  H1621   1.110   .     S
C1555  H1610   1.109   .     S
C1555  O1628   1.408   .     S
C1555  H1620   1.109   .     S
C1556  O1629   1.416   .     S
C1556  H1622   1.104   .     S
C1556  H1624   1.109   .     S
C1556  H1623   1.117   .     S
C1557  O1646   1.296   .     A
C1557  O1649   1.293   .     A
C1558  H1579   1.103   .     S
C1558  H1578   1.109   .     S
C1558  H1580   1.107   .     S
C1558  O1630   1.409   .     S
C1559  H1581   1.113   .     S
C1559  H1582   1.112   .     S
C1559  O1631   1.410   .     S
C1559  H1583   1.109   .     S
C1560  H1584   1.114   .     S
C1560  H1586   1.109   .     S
C1560  O1632   1.411   .     S
C1560  H1585   1.111   .     S
C1561  O1633   1.411   .     S
C1561  H1589   1.114   .     S
C1561  H525    1.109   1_556 S
C1561  H528    1.109   1_556 S
C1562  O1634   1.410   .     S
C1562  H1592   1.114   .     S
C1563  H1596   1.110   .     S
C1563  H1595   1.109   .     S
C1563  H1594   1.115   .     S
C1563  O1635   1.414   .     S
C1564  H1598   1.106   .     S
C1564  O1636   1.415   .     S
C1564  H1600   1.117   .     S
C1564  H1597   1.110   .     S
C1565  H1602   1.109   .     S
C1565  O1637   1.414   .     S
C1565  H1601   1.114   .     S
C1565  H1603   1.107   .     S
C1566  H1606   1.114   .     S
C1566  H1605   1.105   .     S
C1566  H1604   1.111   .     S
C1566  O1639   1.413   .     S
C1567  H1609   1.109   .     S
C1567  O1640   1.410   .     S
C1567  H1607   1.112   .     S
C1567  H1608   1.114   .     S
C1568  O1647   1.297   .     A
C1568  O1648   1.297   .     A
C1569  H1611   1.104   .     S
C1569  H1612   1.109   .     S
C1569  H1613   1.118   .     S
C1569  O1641   1.423   .     S
C1570  O1642   1.413   .     S
C1570  H1616   1.109   .     S
C1570  H1614   1.111   .     S
C1570  H1615   1.110   .     S
C1571  H1619   1.110   .     S
C1571  H1618   1.105   .     S
C1571  O1643   1.411   .     S
C1571  H1617   1.110   .     S
C1572  N1626   1.369   .     A
C1572  O1650   1.386   .     S
C1573  N1625   1.368   .     A
C1573  O1628   1.383   .     S
C1573  C1928   1.436   .     S
C1574  N1626   1.369   .     A
C1574  O1629   1.381   .     S
C1575  O1630   1.381   .     S
C1575  N1625   1.371   .     A
C1575  C1926   1.442   .     S
C1576  O1640   1.384   .     S
H1591  C500    1.110   1_556 S
H1593  C500    1.109   1_556 S
N1625  Zn1651  2.022   .     S
N1626  Zn1652  2.022   .     S
O1627  Zn1651  1.977   .     S
O1638  Zn1652  1.977   .     S
O1644  Zn1651  2.009   .     S
O1645  Zn1652  2.009   .     S
O1646  Zn1651  1.980   .     S
O1647  Zn1652  1.980   .     S
O1648  Zn1651  1.988   .     S
O1649  Zn1652  1.988   .     S
C1653  C1671   1.414   .     S
C1653  O1763   1.285   .     A
C1653  O1745   1.285   .     A
C1654  C1670   1.400   .     A
C1654  O1759   1.376   .     S
C1654  C1420   1.380   1_655 S
C1655  C1670   1.405   .     A
C1655  O1760   1.396   .     S
C1655  C1458   1.406   1_655 S
C1656  O1761   1.391   .     S
C1656  C1671   1.393   .     A
C1657  C1668   1.398   .     A
C1657  C1661   1.404   .     A
C1657  O1749   1.383   .     S
C1658  O1750   1.386   .     S
C1658  C1669   1.394   .     A
C1658  C1662   1.391   .     A
C1659  C1663   1.411   .     A
C1659  O1751   1.387   .     S
C1659  C1669   1.407   .     A
C1660  C1665   1.391   .     A
C1660  C1668   1.403   .     A
C1660  O1752   1.386   .     S
C1661  O1753   1.392   .     S
C1661  C1666   1.414   .     A
C1662  C1667   1.410   .     A
C1662  O1754   1.380   .     S
C1663  C1667   1.412   .     A
C1663  O1755   1.393   .     S
C1664  O1762   1.287   .     A
C1664  O1756   1.292   .     A
C1664  C1670   1.430   .     S
C1665  C1666   1.409   .     A
C1665  O1757   1.384   .     S
C1666  C1675   1.451   .     S
C1667  C1686   1.460   .     S
C1669  C606    1.446   1_556 S
C1671  C1694   1.406   .     A
C1672  H1717   1.107   .     S
C1672  O1768   1.410   .     S
C1672  H1706   1.112   .     S
C1672  H1695   1.108   .     S
C1673  H1739   1.110   .     S
C1673  H1728   1.109   .     S
C1673  O1746   1.408   .     S
C1673  H1738   1.109   .     S
C1674  O1747   1.416   .     S
C1674  H1740   1.104   .     S
C1674  H1742   1.109   .     S
C1674  H1741   1.117   .     S
C1675  O1764   1.296   .     A
C1675  O1767   1.293   .     A
C1676  H1697   1.103   .     S
C1676  H1696   1.109   .     S
C1676  H1698   1.107   .     S
C1676  O1748   1.409   .     S
C1677  H1699   1.113   .     S
C1677  H1700   1.112   .     S
C1677  O1749   1.410   .     S
C1677  H1701   1.109   .     S
C1678  H1702   1.114   .     S
C1678  H1704   1.109   .     S
C1678  O1750   1.411   .     S
C1678  H1703   1.111   .     S
C1679  O1751   1.411   .     S
C1679  H1707   1.114   .     S
C1679  H643    1.109   1_556 S
C1679  H646    1.109   1_556 S
C1680  O1752   1.410   .     S
C1680  H1710   1.114   .     S
C1681  H1714   1.110   .     S
C1681  H1713   1.109   .     S
C1681  H1712   1.115   .     S
C1681  O1753   1.414   .     S
C1682  H1716   1.106   .     S
C1682  O1754   1.415   .     S
C1682  H1718   1.117   .     S
C1682  H1715   1.110   .     S
C1683  H1720   1.109   .     S
C1683  O1755   1.414   .     S
C1683  H1719   1.114   .     S
C1683  H1721   1.107   .     S
C1684  H1724   1.114   .     S
C1684  H1723   1.105   .     S
C1684  H1722   1.111   .     S
C1684  O1757   1.413   .     S
C1685  H1727   1.109   .     S
C1685  O1758   1.410   .     S
C1685  H1725   1.112   .     S
C1685  H1726   1.114   .     S
C1686  O1765   1.297   .     A
C1686  O1766   1.297   .     A
C1687  H1729   1.104   .     S
C1687  H1730   1.109   .     S
C1687  H1731   1.118   .     S
C1687  O1759   1.423   .     S
C1688  O1760   1.413   .     S
C1688  H1734   1.109   .     S
C1688  H1732   1.111   .     S
C1688  H1733   1.110   .     S
C1689  H1737   1.110   .     S
C1689  H1736   1.105   .     S
C1689  O1761   1.411   .     S
C1689  H1735   1.110   .     S
C1690  N1744   1.369   .     A
C1690  O1768   1.386   .     S
C1691  N1743   1.368   .     A
C1691  O1746   1.383   .     S
C1691  C2046   1.436   .     S
C1692  N1744   1.369   .     A
C1692  O1747   1.381   .     S
C1693  O1748   1.381   .     S
C1693  N1743   1.371   .     A
C1693  C2044   1.442   .     S
C1694  O1758   1.384   .     S
H1709  C618    1.110   1_556 S
H1711  C618    1.109   1_556 S
N1743  Zn1769  2.022   .     S
N1744  Zn1770  2.022   .     S
O1745  Zn1769  1.977   .     S
O1756  Zn1770  1.977   .     S
O1762  Zn1769  2.009   .     S
O1763  Zn1770  2.009   .     S
O1764  Zn1769  1.980   .     S
O1765  Zn1770  1.980   .     S
O1766  Zn1769  1.988   .     S
O1767  Zn1770  1.988   .     S
C1771  C1789   1.414   .     S
C1771  O1881   1.285   .     A
C1771  O1863   1.285   .     A
C1772  C1788   1.400   .     A
C1772  O1877   1.376   .     S
C1772  C1892   1.380   .     S
C1773  C1788   1.405   .     A
C1773  O1878   1.396   .     S
C1773  C1930   1.406   .     S
C1774  O1879   1.391   .     S
C1774  C1789   1.393   .     A
C1774  C2008   1.380   1_455 S
C1775  C1786   1.398   .     A
C1775  C1779   1.404   .     A
C1775  O1867   1.383   .     S
C1776  O1868   1.386   .     S
C1776  C1787   1.394   .     A
C1776  C1780   1.391   .     A
C1777  C1781   1.411   .     A
C1777  O1869   1.387   .     S
C1777  C1787   1.407   .     A
C1778  C1783   1.391   .     A
C1778  C1786   1.403   .     A
C1778  O1870   1.386   .     S
C1779  O1871   1.392   .     S
C1779  C1784   1.414   .     A
C1780  C1785   1.410   .     A
C1780  O1872   1.380   .     S
C1781  C1785   1.412   .     A
C1781  O1873   1.393   .     S
C1782  O1880   1.287   .     A
C1782  O1874   1.292   .     A
C1782  C1788   1.430   .     S
C1783  C1784   1.409   .     A
C1783  O1875   1.384   .     S
C1784  C1793   1.451   .     S
C1785  C1804   1.460   .     S
C1787  C724    1.446   1_556 S
C1789  C1812   1.406   .     A
C1790  H1835   1.107   .     S
C1790  O1886   1.410   .     S
C1790  H1824   1.112   .     S
C1790  H1813   1.108   .     S
C1791  H1857   1.110   .     S
C1791  H1846   1.109   .     S
C1791  O1864   1.408   .     S
C1791  H1856   1.109   .     S
C1792  O1865   1.416   .     S
C1792  H1858   1.104   .     S
C1792  H1860   1.109   .     S
C1792  H1859   1.117   .     S
C1793  O1882   1.296   .     A
C1793  O1885   1.293   .     A
C1794  H1815   1.103   .     S
C1794  H1814   1.109   .     S
C1794  H1816   1.107   .     S
C1794  O1866   1.409   .     S
C1795  H1817   1.113   .     S
C1795  H1818   1.112   .     S
C1795  O1867   1.410   .     S
C1795  H1819   1.109   .     S
C1796  H1820   1.114   .     S
C1796  H1822   1.109   .     S
C1796  O1868   1.411   .     S
C1796  H1821   1.111   .     S
C1797  O1869   1.411   .     S
C1797  H1825   1.114   .     S
C1797  H761    1.109   1_556 S
C1797  H764    1.109   1_556 S
C1798  O1870   1.410   .     S
C1798  H1828   1.114   .     S
C1799  H1832   1.110   .     S
C1799  H1831   1.109   .     S
C1799  H1830   1.115   .     S
C1799  O1871   1.414   .     S
C1800  H1834   1.106   .     S
C1800  O1872   1.415   .     S
C1800  H1836   1.117   .     S
C1800  H1833   1.110   .     S
C1801  H1838   1.109   .     S
C1801  O1873   1.414   .     S
C1801  H1837   1.114   .     S
C1801  H1839   1.107   .     S
C1802  H1842   1.114   .     S
C1802  H1841   1.105   .     S
C1802  H1840   1.111   .     S
C1802  O1875   1.413   .     S
C1803  H1845   1.109   .     S
C1803  O1876   1.410   .     S
C1803  H1843   1.112   .     S
C1803  H1844   1.114   .     S
C1804  O1883   1.297   .     A
C1804  O1884   1.297   .     A
C1805  H1847   1.104   .     S
C1805  H1848   1.109   .     S
C1805  H1849   1.118   .     S
C1805  O1877   1.423   .     S
C1806  O1878   1.413   .     S
C1806  H1852   1.109   .     S
C1806  H1850   1.111   .     S
C1806  H1851   1.110   .     S
C1807  H1855   1.110   .     S
C1807  H1854   1.105   .     S
C1807  O1879   1.411   .     S
C1807  H1853   1.110   .     S
C1808  N1862   1.369   .     A
C1808  O1886   1.386   .     S
C1809  N1861   1.368   .     A
C1809  O1864   1.383   .     S
C1809  C1102   1.436   1_565 S
C1810  N1862   1.369   .     A
C1810  O1865   1.381   .     S
C1811  O1866   1.381   .     S
C1811  N1861   1.371   .     A
C1811  C1100   1.442   1_565 S
C1812  O1876   1.384   .     S
C1812  C2009   1.406   1_455 S
H1827  C736    1.110   1_556 S
H1829  C736    1.109   1_556 S
N1861  Zn1887  2.022   .     S
N1862  Zn1888  2.022   .     S
O1863  Zn1887  1.977   .     S
O1874  Zn1888  1.977   .     S
O1880  Zn1887  2.009   .     S
O1881  Zn1888  2.009   .     S
O1882  Zn1887  1.980   .     S
O1883  Zn1888  1.980   .     S
O1884  Zn1887  1.988   .     S
O1885  Zn1888  1.988   .     S
C1889  C1907   1.414   .     S
C1889  O1999   1.285   .     A
C1889  O1981   1.285   .     A
C1890  C1906   1.400   .     A
C1890  O1995   1.376   .     S
C1890  C2010   1.380   .     S
C1891  C1906   1.405   .     A
C1891  O1996   1.396   .     S
C1891  C2048   1.406   .     S
C1892  O1997   1.391   .     S
C1892  C1907   1.393   .     A
C1893  C1904   1.398   .     A
C1893  C1897   1.404   .     A
C1893  O1985   1.383   .     S
C1894  O1986   1.386   .     S
C1894  C1905   1.394   .     A
C1894  C1898   1.391   .     A
C1895  C1899   1.411   .     A
C1895  O1987   1.387   .     S
C1895  C1905   1.407   .     A
C1896  C1901   1.391   .     A
C1896  C1904   1.403   .     A
C1896  O1988   1.386   .     S
C1897  O1989   1.392   .     S
C1897  C1902   1.414   .     A
C1898  C1903   1.410   .     A
C1898  O1990   1.380   .     S
C1899  C1903   1.412   .     A
C1899  O1991   1.393   .     S
C1900  O1998   1.287   .     A
C1900  O1992   1.292   .     A
C1900  C1906   1.430   .     S
C1901  C1902   1.409   .     A
C1901  O1993   1.384   .     S
C1902  C1911   1.451   .     S
C1903  C1922   1.460   .     S
C1905  C842    1.446   1_556 S
C1907  C1930   1.406   .     A
C1908  H1953   1.107   .     S
C1908  O2004   1.410   .     S
C1908  H1942   1.112   .     S
C1908  H1931   1.108   .     S
C1909  H1975   1.110   .     S
C1909  H1964   1.109   .     S
C1909  O1982   1.408   .     S
C1909  H1974   1.109   .     S
C1910  O1983   1.416   .     S
C1910  H1976   1.104   .     S
C1910  H1978   1.109   .     S
C1910  H1977   1.117   .     S
C1911  O2000   1.296   .     A
C1911  O2003   1.293   .     A
C1912  H1933   1.103   .     S
C1912  H1932   1.109   .     S
C1912  H1934   1.107   .     S
C1912  O1984   1.409   .     S
C1913  H1935   1.113   .     S
C1913  H1936   1.112   .     S
C1913  O1985   1.410   .     S
C1913  H1937   1.109   .     S
C1914  H1938   1.114   .     S
C1914  H1940   1.109   .     S
C1914  O1986   1.411   .     S
C1914  H1939   1.111   .     S
C1915  O1987   1.411   .     S
C1915  H1943   1.114   .     S
C1915  H879    1.109   1_556 S
C1915  H882    1.109   1_556 S
C1916  O1988   1.410   .     S
C1916  H1946   1.114   .     S
C1917  H1950   1.110   .     S
C1917  H1949   1.109   .     S
C1917  H1948   1.115   .     S
C1917  O1989   1.414   .     S
C1918  H1952   1.106   .     S
C1918  O1990   1.415   .     S
C1918  H1954   1.117   .     S
C1918  H1951   1.110   .     S
C1919  H1956   1.109   .     S
C1919  O1991   1.414   .     S
C1919  H1955   1.114   .     S
C1919  H1957   1.107   .     S
C1920  H1960   1.114   .     S
C1920  H1959   1.105   .     S
C1920  H1958   1.111   .     S
C1920  O1993   1.413   .     S
C1921  H1963   1.109   .     S
C1921  O1994   1.410   .     S
C1921  H1961   1.112   .     S
C1921  H1962   1.114   .     S
C1922  O2001   1.297   .     A
C1922  O2002   1.297   .     A
C1923  H1965   1.104   .     S
C1923  H1966   1.109   .     S
C1923  H1967   1.118   .     S
C1923  O1995   1.423   .     S
C1924  O1996   1.413   .     S
C1924  H1970   1.109   .     S
C1924  H1968   1.111   .     S
C1924  H1969   1.110   .     S
C1925  H1973   1.110   .     S
C1925  H1972   1.105   .     S
C1925  O1997   1.411   .     S
C1925  H1971   1.110   .     S
C1926  N1980   1.369   .     A
C1926  O2004   1.386   .     S
C1927  N1979   1.368   .     A
C1927  O1982   1.383   .     S
C1927  C1220   1.436   1_565 S
C1928  N1980   1.369   .     A
C1928  O1983   1.381   .     S
C1929  O1984   1.381   .     S
C1929  N1979   1.371   .     A
C1929  C1218   1.442   1_565 S
C1930  O1994   1.384   .     S
H1945  C854    1.110   1_556 S
H1947  C854    1.109   1_556 S
N1979  Zn2005  2.022   .     S
N1980  Zn2006  2.022   .     S
O1981  Zn2005  1.977   .     S
O1992  Zn2006  1.977   .     S
O1998  Zn2005  2.009   .     S
O1999  Zn2006  2.009   .     S
O2000  Zn2005  1.980   .     S
O2001  Zn2006  1.980   .     S
O2002  Zn2005  1.988   .     S
O2003  Zn2006  1.988   .     S
C2007  C2025   1.414   .     S
C2007  O2117   1.285   .     A
C2007  O2099   1.285   .     A
C2008  C2024   1.400   .     A
C2008  O2113   1.376   .     S
C2008  C1774   1.380   1_655 S
C2009  C2024   1.405   .     A
C2009  O2114   1.396   .     S
C2009  C1812   1.406   1_655 S
C2010  O2115   1.391   .     S
C2010  C2025   1.393   .     A
C2011  C2022   1.398   .     A
C2011  C2015   1.404   .     A
C2011  O2103   1.383   .     S
C2012  O2104   1.386   .     S
C2012  C2023   1.394   .     A
C2012  C2016   1.391   .     A
C2013  C2017   1.411   .     A
C2013  O2105   1.387   .     S
C2013  C2023   1.407   .     A
C2014  C2019   1.391   .     A
C2014  C2022   1.403   .     A
C2014  O2106   1.386   .     S
C2015  O2107   1.392   .     S
C2015  C2020   1.414   .     A
C2016  C2021   1.410   .     A
C2016  O2108   1.380   .     S
C2017  C2021   1.412   .     A
C2017  O2109   1.393   .     S
C2018  O2116   1.287   .     A
C2018  O2110   1.292   .     A
C2018  C2024   1.430   .     S
C2019  C2020   1.409   .     A
C2019  O2111   1.384   .     S
C2020  C2029   1.451   .     S
C2021  C2040   1.460   .     S
C2023  C960    1.446   1_556 S
C2025  C2048   1.406   .     A
C2026  H2071   1.107   .     S
C2026  O2122   1.410   .     S
C2026  H2060   1.112   .     S
C2026  H2049   1.108   .     S
C2027  H2093   1.110   .     S
C2027  H2082   1.109   .     S
C2027  O2100   1.408   .     S
C2027  H2092   1.109   .     S
C2028  O2101   1.416   .     S
C2028  H2094   1.104   .     S
C2028  H2096   1.109   .     S
C2028  H2095   1.117   .     S
C2029  O2118   1.296   .     A
C2029  O2121   1.293   .     A
C2030  H2051   1.103   .     S
C2030  H2050   1.109   .     S
C2030  H2052   1.107   .     S
C2030  O2102   1.409   .     S
C2031  H2053   1.113   .     S
C2031  H2054   1.112   .     S
C2031  O2103   1.410   .     S
C2031  H2055   1.109   .     S
C2032  H2056   1.114   .     S
C2032  H2058   1.109   .     S
C2032  O2104   1.411   .     S
C2032  H2057   1.111   .     S
C2033  O2105   1.411   .     S
C2033  H2061   1.114   .     S
C2033  H997    1.109   1_556 S
C2033  H1000   1.109   1_556 S
C2034  O2106   1.410   .     S
C2034  H2064   1.114   .     S
C2035  H2068   1.110   .     S
C2035  H2067   1.109   .     S
C2035  H2066   1.115   .     S
C2035  O2107   1.414   .     S
C2036  H2070   1.106   .     S
C2036  O2108   1.415   .     S
C2036  H2072   1.117   .     S
C2036  H2069   1.110   .     S
C2037  H2074   1.109   .     S
C2037  O2109   1.414   .     S
C2037  H2073   1.114   .     S
C2037  H2075   1.107   .     S
C2038  H2078   1.114   .     S
C2038  H2077   1.105   .     S
C2038  H2076   1.111   .     S
C2038  O2111   1.413   .     S
C2039  H2081   1.109   .     S
C2039  O2112   1.410   .     S
C2039  H2079   1.112   .     S
C2039  H2080   1.114   .     S
C2040  O2119   1.297   .     A
C2040  O2120   1.297   .     A
C2041  H2083   1.104   .     S
C2041  H2084   1.109   .     S
C2041  H2085   1.118   .     S
C2041  O2113   1.423   .     S
C2042  O2114   1.413   .     S
C2042  H2088   1.109   .     S
C2042  H2086   1.111   .     S
C2042  H2087   1.110   .     S
C2043  H2091   1.110   .     S
C2043  H2090   1.105   .     S
C2043  O2115   1.411   .     S
C2043  H2089   1.110   .     S
C2044  N2098   1.369   .     A
C2044  O2122   1.386   .     S
C2045  N2097   1.368   .     A
C2045  O2100   1.383   .     S
C2045  C1338   1.436   1_565 S
C2046  N2098   1.369   .     A
C2046  O2101   1.381   .     S
C2047  O2102   1.381   .     S
C2047  N2097   1.371   .     A
C2047  C1336   1.442   1_565 S
C2048  O2112   1.384   .     S
H2063  C972    1.110   1_556 S
H2065  C972    1.109   1_556 S
N2097  Zn2123  2.022   .     S
N2098  Zn2124  2.022   .     S
O2099  Zn2123  1.977   .     S
O2110  Zn2124  1.977   .     S
O2116  Zn2123  2.009   .     S
O2117  Zn2124  2.009   .     S
O2118  Zn2123  1.980   .     S
O2119  Zn2124  1.980   .     S
O2120  Zn2123  1.988   .     S
O2121  Zn2124  1.988   .     S
