data_str_m3_o2_o5_pcu_sym.78
_audit_creation_date              2020-01-03
_audit_creation_method            'Materials Studio'
_symmetry_space_group_name_H-M    'P1'
_symmetry_Int_Tables_number       1
_symmetry_cell_setting            triclinic
loop_
_symmetry_equiv_pos_as_xyz
  x,y,z
_cell_length_a                    29.9613
_cell_length_b                    28.6628
_cell_length_c                    26.6647
_cell_angle_alpha                 89.9999
_cell_angle_beta                  91.9898
_cell_angle_gamma                 90.0000
loop_
_atom_site_label
_atom_site_type_symbol
_atom_site_fract_x
_atom_site_fract_y
_atom_site_fract_z
_atom_site_U_iso_or_equiv
_atom_site_adp_type
_atom_site_occupancy
C1     C     0.16425   0.24995   0.16657   0.00000  Uiso   1.00
C2     C     0.22892   0.44775   0.12788   0.00000  Uiso   1.00
C3     C     0.24978   0.25001   0.07298   0.00000  Uiso   1.00
C4     C     0.25022   0.25001   0.26036   0.00000  Uiso   1.00
C5     C     0.25000   0.02659   0.16667   0.00000  Uiso   1.00
C6     C     0.25000   0.47350   0.16667   0.00000  Uiso   1.00
C7     C     0.24991   0.25002   0.02183   0.00000  Uiso   1.00
C8     C     0.25009   0.25002   0.31151   0.00000  Uiso   1.00
C9     C     0.04600   0.26660   0.12429   0.00000  Uiso   1.00
C10    C     0.45165   0.23507   0.12442   0.00000  Uiso   1.00
C11    C     0.45400   0.26660   0.20904   0.00000  Uiso   1.00
C12    C     0.33575   0.24995   0.16676   0.00000  Uiso   1.00
C13    C     0.04835   0.23507   0.20892   0.00000  Uiso   1.00
C14    C     0.09225   0.26484   0.12304   0.00000  Uiso   1.00
C15    C     0.40528   0.23476   0.12358   0.00000  Uiso   1.00
C16    C     0.40775   0.26484   0.21029   0.00000  Uiso   1.00
C17    C     0.09472   0.23476   0.20975   0.00000  Uiso   1.00
C18    C     0.11644   0.24975   0.16643   0.00000  Uiso   1.00
C19    C     0.38356   0.24975   0.16690   0.00000  Uiso   1.00
C20    C     0.02420   0.25137   0.16674   0.00000  Uiso   1.00
C21    C     0.47580   0.25137   0.16660   0.00000  Uiso   1.00
C22    C     0.18175   0.12588   0.11043   0.00000  Uiso   1.00
C23    C     0.21683   0.10171   0.14097   0.00000  Uiso   1.00
C24    C     0.29880   0.37430   0.24416   0.00000  Uiso   1.00
C25    C     0.31825   0.12588   0.22290   0.00000  Uiso   1.00
C26    C     0.20120   0.37430   0.08917   0.00000  Uiso   1.00
C27    C     0.11461   0.27698   0.07577   0.00000  Uiso   1.00
C28    C     0.38019   0.21941   0.07723   0.00000  Uiso   1.00
C29    C     0.38539   0.27698   0.25756   0.00000  Uiso   1.00
C30    C     0.11981   0.21941   0.25610   0.00000  Uiso   1.00
C31    C     0.27213   0.39838   0.20442   0.00000  Uiso   1.00
C32    C     0.28317   0.10171   0.19237   0.00000  Uiso   1.00
C33    C     0.22787   0.39838   0.12892   0.00000  Uiso   1.00
C34    C     0.21595   0.05234   0.14208   0.00000  Uiso   1.00
C35    C     0.27108   0.44775   0.20545   0.00000  Uiso   1.00
C36    C     0.28405   0.05234   0.19126   0.00000  Uiso   1.00
H37    H     0.02673   0.27920   0.09191   0.00000  Uiso   1.00
H38    H     0.31318   0.34065   0.23746   0.00000  Uiso   1.00
H39    H     0.31266   0.16001   0.23825   0.00000  Uiso   1.00
H40    H     0.18682   0.34065   0.09587   0.00000  Uiso   1.00
H41    H     0.14971   0.26938   0.07145   0.00000  Uiso   1.00
H42    H     0.34405   0.22057   0.07486   0.00000  Uiso   1.00
H43    H     0.35029   0.26938   0.26188   0.00000  Uiso   1.00
H44    H     0.15594   0.22058   0.25848   0.00000  Uiso   1.00
H45    H     0.46917   0.22249   0.09220   0.00000  Uiso   1.00
H46    H     0.47327   0.27920   0.24142   0.00000  Uiso   1.00
H47    H     0.03083   0.22249   0.24113   0.00000  Uiso   1.00
H48    H     0.18855   0.03422   0.12316   0.00000  Uiso   1.00
H49    H     0.28732   0.46584   0.23664   0.00000  Uiso   1.00
H50    H     0.31145   0.03422   0.21017   0.00000  Uiso   1.00
H51    H     0.21268   0.46584   0.09669   0.00000  Uiso   1.00
H52    H     0.18734   0.16001   0.09509   0.00000  Uiso   1.00
N53    N     0.25000   0.12624   0.16667   0.00000  Uiso   1.00
N54    N     0.25000   0.37377   0.16667   0.00000  Uiso   1.00
O55    O     0.18453   0.28974   0.16667   0.00000  Uiso   1.00
O56    O     0.30600   0.39253   0.28505   0.00000  Uiso   1.00
O57    O     0.35417   0.10716   0.23242   0.00000  Uiso   1.00
O58    O     0.19400   0.39253   0.04828   0.00000  Uiso   1.00
O59    O     0.09390   0.29515   0.04067   0.00000  Uiso   1.00
O60    O     0.39973   0.20538   0.04071   0.00000  Uiso   1.00
O61    O     0.40610   0.29515   0.29266   0.00000  Uiso   1.00
O62    O     0.10027   0.20538   0.29262   0.00000  Uiso   1.00
O63    O     0.31547   0.21026   0.16666   0.00000  Uiso   1.00
O64    O     0.31547   0.28974   0.16666   0.00000  Uiso   1.00
O65    O     0.18453   0.21026   0.16667   0.00000  Uiso   1.00
O66    O     0.25000   0.28973   0.09511   0.00000  Uiso   1.00
O67    O     0.25000   0.21027   0.23822   0.00000  Uiso   1.00
O68    O     0.25000   0.28973   0.23822   0.00000  Uiso   1.00
O69    O     0.25000   0.21027   0.09511   0.00000  Uiso   1.00
O70    O     0.14583   0.10716   0.10091   0.00000  Uiso   1.00
Zn71   Zn    0.25000   0.30307   0.16667   0.00000  Uiso   1.00
Zn72   Zn    0.25000   0.19693   0.16667   0.00000  Uiso   1.00
C73    C     0.66425   0.24995   0.16657   0.00000  Uiso   1.00
C74    C     0.72892   0.44775   0.12788   0.00000  Uiso   1.00
C75    C     0.74978   0.25001   0.07298   0.00000  Uiso   1.00
C76    C     0.75022   0.25001   0.26036   0.00000  Uiso   1.00
C77    C     0.75000   0.02659   0.16667   0.00000  Uiso   1.00
C78    C     0.75000   0.47350   0.16667   0.00000  Uiso   1.00
C79    C     0.74991   0.25002   0.02183   0.00000  Uiso   1.00
C80    C     0.75009   0.25002   0.31151   0.00000  Uiso   1.00
C81    C     0.54600   0.26660   0.12429   0.00000  Uiso   1.00
C82    C     0.95165   0.23507   0.12442   0.00000  Uiso   1.00
C83    C     0.95400   0.26660   0.20904   0.00000  Uiso   1.00
C84    C     0.83575   0.24995   0.16676   0.00000  Uiso   1.00
C85    C     0.54835   0.23507   0.20892   0.00000  Uiso   1.00
C86    C     0.59225   0.26484   0.12304   0.00000  Uiso   1.00
C87    C     0.90528   0.23476   0.12358   0.00000  Uiso   1.00
C88    C     0.90775   0.26484   0.21029   0.00000  Uiso   1.00
C89    C     0.59472   0.23476   0.20975   0.00000  Uiso   1.00
C90    C     0.61644   0.24975   0.16643   0.00000  Uiso   1.00
C91    C     0.88356   0.24975   0.16690   0.00000  Uiso   1.00
C92    C     0.52420   0.25137   0.16674   0.00000  Uiso   1.00
C93    C     0.97580   0.25137   0.16660   0.00000  Uiso   1.00
C94    C     0.68175   0.12588   0.11043   0.00000  Uiso   1.00
C95    C     0.71683   0.10171   0.14097   0.00000  Uiso   1.00
C96    C     0.79880   0.37430   0.24416   0.00000  Uiso   1.00
C97    C     0.81825   0.12588   0.22290   0.00000  Uiso   1.00
C98    C     0.70120   0.37430   0.08917   0.00000  Uiso   1.00
C99    C     0.61461   0.27698   0.07577   0.00000  Uiso   1.00
C100   C     0.88019   0.21941   0.07723   0.00000  Uiso   1.00
C101   C     0.88539   0.27698   0.25756   0.00000  Uiso   1.00
C102   C     0.61981   0.21941   0.25610   0.00000  Uiso   1.00
C103   C     0.77213   0.39838   0.20442   0.00000  Uiso   1.00
C104   C     0.78317   0.10171   0.19237   0.00000  Uiso   1.00
C105   C     0.72787   0.39838   0.12892   0.00000  Uiso   1.00
C106   C     0.71595   0.05234   0.14208   0.00000  Uiso   1.00
C107   C     0.77108   0.44775   0.20545   0.00000  Uiso   1.00
C108   C     0.78405   0.05234   0.19126   0.00000  Uiso   1.00
H109   H     0.52673   0.27920   0.09191   0.00000  Uiso   1.00
H110   H     0.81318   0.34065   0.23746   0.00000  Uiso   1.00
H111   H     0.81266   0.16001   0.23825   0.00000  Uiso   1.00
H112   H     0.68682   0.34065   0.09587   0.00000  Uiso   1.00
H113   H     0.64971   0.26938   0.07145   0.00000  Uiso   1.00
H114   H     0.84405   0.22057   0.07486   0.00000  Uiso   1.00
H115   H     0.85029   0.26938   0.26188   0.00000  Uiso   1.00
H116   H     0.65594   0.22058   0.25848   0.00000  Uiso   1.00
H117   H     0.96917   0.22249   0.09220   0.00000  Uiso   1.00
H118   H     0.97327   0.27920   0.24142   0.00000  Uiso   1.00
H119   H     0.53083   0.22249   0.24113   0.00000  Uiso   1.00
H120   H     0.68855   0.03422   0.12316   0.00000  Uiso   1.00
H121   H     0.78732   0.46584   0.23664   0.00000  Uiso   1.00
H122   H     0.81145   0.03422   0.21017   0.00000  Uiso   1.00
H123   H     0.71268   0.46584   0.09669   0.00000  Uiso   1.00
H124   H     0.68734   0.16001   0.09509   0.00000  Uiso   1.00
N125   N     0.75000   0.12624   0.16667   0.00000  Uiso   1.00
N126   N     0.75000   0.37377   0.16667   0.00000  Uiso   1.00
O127   O     0.68453   0.28974   0.16667   0.00000  Uiso   1.00
O128   O     0.80600   0.39253   0.28505   0.00000  Uiso   1.00
O129   O     0.85417   0.10716   0.23242   0.00000  Uiso   1.00
O130   O     0.69400   0.39253   0.04828   0.00000  Uiso   1.00
O131   O     0.59390   0.29515   0.04067   0.00000  Uiso   1.00
O132   O     0.89973   0.20538   0.04071   0.00000  Uiso   1.00
O133   O     0.90610   0.29515   0.29266   0.00000  Uiso   1.00
O134   O     0.60027   0.20538   0.29262   0.00000  Uiso   1.00
O135   O     0.81547   0.21026   0.16666   0.00000  Uiso   1.00
O136   O     0.81547   0.28974   0.16666   0.00000  Uiso   1.00
O137   O     0.68453   0.21026   0.16667   0.00000  Uiso   1.00
O138   O     0.75000   0.28973   0.09511   0.00000  Uiso   1.00
O139   O     0.75000   0.21027   0.23822   0.00000  Uiso   1.00
O140   O     0.75000   0.28973   0.23822   0.00000  Uiso   1.00
O141   O     0.75000   0.21027   0.09511   0.00000  Uiso   1.00
O142   O     0.64583   0.10716   0.10091   0.00000  Uiso   1.00
Zn143  Zn    0.75000   0.30307   0.16667   0.00000  Uiso   1.00
Zn144  Zn    0.75000   0.19693   0.16667   0.00000  Uiso   1.00
C145   C     0.16425   0.74995   0.16657   0.00000  Uiso   1.00
C146   C     0.22892   0.94775   0.12788   0.00000  Uiso   1.00
C147   C     0.24978   0.75001   0.07298   0.00000  Uiso   1.00
C148   C     0.25022   0.75001   0.26036   0.00000  Uiso   1.00
C149   C     0.25000   0.52659   0.16667   0.00000  Uiso   1.00
C150   C     0.25000   0.97350   0.16667   0.00000  Uiso   1.00
C151   C     0.24991   0.75002   0.02183   0.00000  Uiso   1.00
C152   C     0.25009   0.75002   0.31151   0.00000  Uiso   1.00
C153   C     0.04600   0.76660   0.12429   0.00000  Uiso   1.00
C154   C     0.45165   0.73507   0.12442   0.00000  Uiso   1.00
C155   C     0.45400   0.76660   0.20904   0.00000  Uiso   1.00
C156   C     0.33575   0.74995   0.16676   0.00000  Uiso   1.00
C157   C     0.04835   0.73507   0.20892   0.00000  Uiso   1.00
C158   C     0.09225   0.76484   0.12304   0.00000  Uiso   1.00
C159   C     0.40528   0.73476   0.12358   0.00000  Uiso   1.00
C160   C     0.40775   0.76484   0.21029   0.00000  Uiso   1.00
C161   C     0.09472   0.73476   0.20975   0.00000  Uiso   1.00
C162   C     0.11644   0.74975   0.16643   0.00000  Uiso   1.00
C163   C     0.38356   0.74975   0.16690   0.00000  Uiso   1.00
C164   C     0.02420   0.75137   0.16674   0.00000  Uiso   1.00
C165   C     0.47580   0.75137   0.16660   0.00000  Uiso   1.00
C166   C     0.18175   0.62588   0.11043   0.00000  Uiso   1.00
C167   C     0.21683   0.60171   0.14097   0.00000  Uiso   1.00
C168   C     0.29880   0.87430   0.24416   0.00000  Uiso   1.00
C169   C     0.31825   0.62588   0.22290   0.00000  Uiso   1.00
C170   C     0.20120   0.87430   0.08917   0.00000  Uiso   1.00
C171   C     0.11461   0.77698   0.07577   0.00000  Uiso   1.00
C172   C     0.38019   0.71941   0.07723   0.00000  Uiso   1.00
C173   C     0.38539   0.77698   0.25756   0.00000  Uiso   1.00
C174   C     0.11981   0.71941   0.25610   0.00000  Uiso   1.00
C175   C     0.27213   0.89838   0.20442   0.00000  Uiso   1.00
C176   C     0.28317   0.60171   0.19237   0.00000  Uiso   1.00
C177   C     0.22787   0.89838   0.12892   0.00000  Uiso   1.00
C178   C     0.21595   0.55234   0.14208   0.00000  Uiso   1.00
C179   C     0.27108   0.94775   0.20545   0.00000  Uiso   1.00
C180   C     0.28405   0.55234   0.19126   0.00000  Uiso   1.00
H181   H     0.02673   0.77920   0.09191   0.00000  Uiso   1.00
H182   H     0.31318   0.84065   0.23746   0.00000  Uiso   1.00
H183   H     0.31266   0.66001   0.23825   0.00000  Uiso   1.00
H184   H     0.18682   0.84065   0.09587   0.00000  Uiso   1.00
H185   H     0.14971   0.76938   0.07145   0.00000  Uiso   1.00
H186   H     0.34405   0.72057   0.07486   0.00000  Uiso   1.00
H187   H     0.35029   0.76938   0.26188   0.00000  Uiso   1.00
H188   H     0.15594   0.72058   0.25848   0.00000  Uiso   1.00
H189   H     0.46917   0.72249   0.09220   0.00000  Uiso   1.00
H190   H     0.47327   0.77920   0.24142   0.00000  Uiso   1.00
H191   H     0.03083   0.72249   0.24113   0.00000  Uiso   1.00
H192   H     0.18855   0.53422   0.12316   0.00000  Uiso   1.00
H193   H     0.28732   0.96584   0.23664   0.00000  Uiso   1.00
H194   H     0.31145   0.53422   0.21017   0.00000  Uiso   1.00
H195   H     0.21268   0.96584   0.09669   0.00000  Uiso   1.00
H196   H     0.18734   0.66001   0.09509   0.00000  Uiso   1.00
N197   N     0.25000   0.62624   0.16667   0.00000  Uiso   1.00
N198   N     0.25000   0.87377   0.16667   0.00000  Uiso   1.00
O199   O     0.18453   0.78974   0.16667   0.00000  Uiso   1.00
O200   O     0.30600   0.89253   0.28505   0.00000  Uiso   1.00
O201   O     0.35417   0.60716   0.23242   0.00000  Uiso   1.00
O202   O     0.19400   0.89253   0.04828   0.00000  Uiso   1.00
O203   O     0.09390   0.79515   0.04067   0.00000  Uiso   1.00
O204   O     0.39973   0.70538   0.04071   0.00000  Uiso   1.00
O205   O     0.40610   0.79515   0.29266   0.00000  Uiso   1.00
O206   O     0.10027   0.70538   0.29262   0.00000  Uiso   1.00
O207   O     0.31547   0.71026   0.16666   0.00000  Uiso   1.00
O208   O     0.31547   0.78974   0.16666   0.00000  Uiso   1.00
O209   O     0.18453   0.71026   0.16667   0.00000  Uiso   1.00
O210   O     0.25000   0.78973   0.09511   0.00000  Uiso   1.00
O211   O     0.25000   0.71027   0.23822   0.00000  Uiso   1.00
O212   O     0.25000   0.78973   0.23822   0.00000  Uiso   1.00
O213   O     0.25000   0.71027   0.09511   0.00000  Uiso   1.00
O214   O     0.14583   0.60716   0.10091   0.00000  Uiso   1.00
Zn215  Zn    0.25000   0.80307   0.16667   0.00000  Uiso   1.00
Zn216  Zn    0.25000   0.69693   0.16667   0.00000  Uiso   1.00
C217   C     0.66425   0.74995   0.16657   0.00000  Uiso   1.00
C218   C     0.72892   0.94775   0.12788   0.00000  Uiso   1.00
C219   C     0.74978   0.75001   0.07298   0.00000  Uiso   1.00
C220   C     0.75022   0.75001   0.26036   0.00000  Uiso   1.00
C221   C     0.75000   0.52659   0.16667   0.00000  Uiso   1.00
C222   C     0.75000   0.97350   0.16667   0.00000  Uiso   1.00
C223   C     0.74991   0.75002   0.02183   0.00000  Uiso   1.00
C224   C     0.75009   0.75002   0.31151   0.00000  Uiso   1.00
C225   C     0.54600   0.76660   0.12429   0.00000  Uiso   1.00
C226   C     0.95165   0.73507   0.12442   0.00000  Uiso   1.00
C227   C     0.95400   0.76660   0.20904   0.00000  Uiso   1.00
C228   C     0.83575   0.74995   0.16676   0.00000  Uiso   1.00
C229   C     0.54835   0.73507   0.20892   0.00000  Uiso   1.00
C230   C     0.59225   0.76484   0.12304   0.00000  Uiso   1.00
C231   C     0.90528   0.73476   0.12358   0.00000  Uiso   1.00
C232   C     0.90775   0.76484   0.21029   0.00000  Uiso   1.00
C233   C     0.59472   0.73476   0.20975   0.00000  Uiso   1.00
C234   C     0.61644   0.74975   0.16643   0.00000  Uiso   1.00
C235   C     0.88356   0.74975   0.16690   0.00000  Uiso   1.00
C236   C     0.52420   0.75137   0.16674   0.00000  Uiso   1.00
C237   C     0.97580   0.75137   0.16660   0.00000  Uiso   1.00
C238   C     0.68175   0.62588   0.11043   0.00000  Uiso   1.00
C239   C     0.71683   0.60171   0.14097   0.00000  Uiso   1.00
C240   C     0.79880   0.87430   0.24416   0.00000  Uiso   1.00
C241   C     0.81825   0.62588   0.22290   0.00000  Uiso   1.00
C242   C     0.70120   0.87430   0.08917   0.00000  Uiso   1.00
C243   C     0.61461   0.77698   0.07577   0.00000  Uiso   1.00
C244   C     0.88019   0.71941   0.07723   0.00000  Uiso   1.00
C245   C     0.88539   0.77698   0.25756   0.00000  Uiso   1.00
C246   C     0.61981   0.71941   0.25610   0.00000  Uiso   1.00
C247   C     0.77213   0.89838   0.20442   0.00000  Uiso   1.00
C248   C     0.78317   0.60171   0.19237   0.00000  Uiso   1.00
C249   C     0.72787   0.89838   0.12892   0.00000  Uiso   1.00
C250   C     0.71595   0.55234   0.14208   0.00000  Uiso   1.00
C251   C     0.77108   0.94775   0.20545   0.00000  Uiso   1.00
C252   C     0.78405   0.55234   0.19126   0.00000  Uiso   1.00
H253   H     0.52673   0.77920   0.09191   0.00000  Uiso   1.00
H254   H     0.81318   0.84065   0.23746   0.00000  Uiso   1.00
H255   H     0.81266   0.66001   0.23825   0.00000  Uiso   1.00
H256   H     0.68682   0.84065   0.09587   0.00000  Uiso   1.00
H257   H     0.64971   0.76938   0.07145   0.00000  Uiso   1.00
H258   H     0.84405   0.72057   0.07486   0.00000  Uiso   1.00
H259   H     0.85029   0.76938   0.26188   0.00000  Uiso   1.00
H260   H     0.65594   0.72058   0.25848   0.00000  Uiso   1.00
H261   H     0.96917   0.72249   0.09220   0.00000  Uiso   1.00
H262   H     0.97327   0.77920   0.24142   0.00000  Uiso   1.00
H263   H     0.53083   0.72249   0.24113   0.00000  Uiso   1.00
H264   H     0.68855   0.53422   0.12316   0.00000  Uiso   1.00
H265   H     0.78732   0.96584   0.23664   0.00000  Uiso   1.00
H266   H     0.81145   0.53422   0.21017   0.00000  Uiso   1.00
H267   H     0.71268   0.96584   0.09669   0.00000  Uiso   1.00
H268   H     0.68734   0.66001   0.09509   0.00000  Uiso   1.00
N269   N     0.75000   0.62624   0.16667   0.00000  Uiso   1.00
N270   N     0.75000   0.87377   0.16667   0.00000  Uiso   1.00
O271   O     0.68453   0.78974   0.16667   0.00000  Uiso   1.00
O272   O     0.80600   0.89253   0.28505   0.00000  Uiso   1.00
O273   O     0.85417   0.60716   0.23242   0.00000  Uiso   1.00
O274   O     0.69400   0.89253   0.04828   0.00000  Uiso   1.00
O275   O     0.59390   0.79515   0.04067   0.00000  Uiso   1.00
O276   O     0.89973   0.70538   0.04071   0.00000  Uiso   1.00
O277   O     0.90610   0.79515   0.29266   0.00000  Uiso   1.00
O278   O     0.60027   0.70538   0.29262   0.00000  Uiso   1.00
O279   O     0.81547   0.71026   0.16666   0.00000  Uiso   1.00
O280   O     0.81547   0.78974   0.16666   0.00000  Uiso   1.00
O281   O     0.68453   0.71026   0.16667   0.00000  Uiso   1.00
O282   O     0.75000   0.78973   0.09511   0.00000  Uiso   1.00
O283   O     0.75000   0.71027   0.23822   0.00000  Uiso   1.00
O284   O     0.75000   0.78973   0.23822   0.00000  Uiso   1.00
O285   O     0.75000   0.71027   0.09511   0.00000  Uiso   1.00
O286   O     0.64583   0.60716   0.10091   0.00000  Uiso   1.00
Zn287  Zn    0.75000   0.80307   0.16667   0.00000  Uiso   1.00
Zn288  Zn    0.75000   0.69693   0.16667   0.00000  Uiso   1.00
C289   C     0.16425   0.24995   0.49991   0.00000  Uiso   1.00
C290   C     0.22892   0.44775   0.46122   0.00000  Uiso   1.00
C291   C     0.24978   0.25001   0.40631   0.00000  Uiso   1.00
C292   C     0.25022   0.25001   0.59369   0.00000  Uiso   1.00
C293   C     0.25000   0.02659   0.50000   0.00000  Uiso   1.00
C294   C     0.25000   0.47350   0.50000   0.00000  Uiso   1.00
C295   C     0.24991   0.25002   0.35516   0.00000  Uiso   1.00
C296   C     0.25009   0.25002   0.64484   0.00000  Uiso   1.00
C297   C     0.04600   0.26660   0.45763   0.00000  Uiso   1.00
C298   C     0.45165   0.23507   0.45775   0.00000  Uiso   1.00
C299   C     0.45400   0.26660   0.54237   0.00000  Uiso   1.00
C300   C     0.33575   0.24995   0.50009   0.00000  Uiso   1.00
C301   C     0.04835   0.23507   0.54225   0.00000  Uiso   1.00
C302   C     0.09225   0.26484   0.45637   0.00000  Uiso   1.00
C303   C     0.40528   0.23476   0.45692   0.00000  Uiso   1.00
C304   C     0.40775   0.26484   0.54363   0.00000  Uiso   1.00
C305   C     0.09472   0.23476   0.54308   0.00000  Uiso   1.00
C306   C     0.11644   0.24975   0.49976   0.00000  Uiso   1.00
C307   C     0.38356   0.24975   0.50024   0.00000  Uiso   1.00
C308   C     0.02420   0.25137   0.50007   0.00000  Uiso   1.00
C309   C     0.47580   0.25137   0.49993   0.00000  Uiso   1.00
C310   C     0.18175   0.12588   0.44376   0.00000  Uiso   1.00
C311   C     0.21683   0.10171   0.47430   0.00000  Uiso   1.00
C312   C     0.29880   0.37430   0.57750   0.00000  Uiso   1.00
C313   C     0.31825   0.12588   0.55624   0.00000  Uiso   1.00
C314   C     0.20120   0.37430   0.42250   0.00000  Uiso   1.00
C315   C     0.11461   0.27698   0.40911   0.00000  Uiso   1.00
C316   C     0.38019   0.21941   0.41056   0.00000  Uiso   1.00
C317   C     0.38539   0.27698   0.59089   0.00000  Uiso   1.00
C318   C     0.11981   0.21941   0.58944   0.00000  Uiso   1.00
C319   C     0.27213   0.39838   0.53775   0.00000  Uiso   1.00
C320   C     0.28317   0.10171   0.52570   0.00000  Uiso   1.00
C321   C     0.22787   0.39838   0.46225   0.00000  Uiso   1.00
C322   C     0.21595   0.05234   0.47541   0.00000  Uiso   1.00
C323   C     0.27108   0.44775   0.53878   0.00000  Uiso   1.00
C324   C     0.28405   0.05234   0.52459   0.00000  Uiso   1.00
H325   H     0.02673   0.27920   0.42524   0.00000  Uiso   1.00
H326   H     0.31318   0.34065   0.57080   0.00000  Uiso   1.00
H327   H     0.31266   0.16001   0.57158   0.00000  Uiso   1.00
H328   H     0.18682   0.34065   0.42920   0.00000  Uiso   1.00
H329   H     0.14971   0.26938   0.40479   0.00000  Uiso   1.00
H330   H     0.34405   0.22057   0.40819   0.00000  Uiso   1.00
H331   H     0.35029   0.26938   0.59521   0.00000  Uiso   1.00
H332   H     0.15594   0.22058   0.59181   0.00000  Uiso   1.00
H333   H     0.46917   0.22249   0.42554   0.00000  Uiso   1.00
H334   H     0.47327   0.27920   0.57476   0.00000  Uiso   1.00
H335   H     0.03083   0.22249   0.57446   0.00000  Uiso   1.00
H336   H     0.18855   0.03422   0.45650   0.00000  Uiso   1.00
H337   H     0.28732   0.46584   0.56998   0.00000  Uiso   1.00
H338   H     0.31145   0.03422   0.54350   0.00000  Uiso   1.00
H339   H     0.21268   0.46584   0.43002   0.00000  Uiso   1.00
H340   H     0.18734   0.16001   0.42842   0.00000  Uiso   1.00
N341   N     0.25000   0.12624   0.50000   0.00000  Uiso   1.00
N342   N     0.25000   0.37377   0.50000   0.00000  Uiso   1.00
O343   O     0.18453   0.28974   0.50000   0.00000  Uiso   1.00
O344   O     0.30600   0.39253   0.61838   0.00000  Uiso   1.00
O345   O     0.35417   0.10716   0.56575   0.00000  Uiso   1.00
O346   O     0.19400   0.39253   0.38162   0.00000  Uiso   1.00
O347   O     0.09390   0.29515   0.37401   0.00000  Uiso   1.00
O348   O     0.39973   0.20538   0.37404   0.00000  Uiso   1.00
O349   O     0.40610   0.29515   0.62599   0.00000  Uiso   1.00
O350   O     0.10027   0.20538   0.62596   0.00000  Uiso   1.00
O351   O     0.31547   0.21026   0.50000   0.00000  Uiso   1.00
O352   O     0.31547   0.28974   0.50000   0.00000  Uiso   1.00
O353   O     0.18453   0.21026   0.50000   0.00000  Uiso   1.00
O354   O     0.25000   0.28973   0.42845   0.00000  Uiso   1.00
O355   O     0.25000   0.21027   0.57155   0.00000  Uiso   1.00
O356   O     0.25000   0.28973   0.57155   0.00000  Uiso   1.00
O357   O     0.25000   0.21027   0.42845   0.00000  Uiso   1.00
O358   O     0.14583   0.10716   0.43424   0.00000  Uiso   1.00
Zn359  Zn    0.25000   0.30307   0.50000   0.00000  Uiso   1.00
Zn360  Zn    0.25000   0.19693   0.50000   0.00000  Uiso   1.00
C361   C     0.66425   0.24995   0.49991   0.00000  Uiso   1.00
C362   C     0.72892   0.44775   0.46122   0.00000  Uiso   1.00
C363   C     0.74978   0.25001   0.40631   0.00000  Uiso   1.00
C364   C     0.75022   0.25001   0.59369   0.00000  Uiso   1.00
C365   C     0.75000   0.02659   0.50000   0.00000  Uiso   1.00
C366   C     0.75000   0.47350   0.50000   0.00000  Uiso   1.00
C367   C     0.74991   0.25002   0.35516   0.00000  Uiso   1.00
C368   C     0.75009   0.25002   0.64484   0.00000  Uiso   1.00
C369   C     0.54600   0.26660   0.45763   0.00000  Uiso   1.00
C370   C     0.95165   0.23507   0.45775   0.00000  Uiso   1.00
C371   C     0.95400   0.26660   0.54237   0.00000  Uiso   1.00
C372   C     0.83575   0.24995   0.50009   0.00000  Uiso   1.00
C373   C     0.54835   0.23507   0.54225   0.00000  Uiso   1.00
C374   C     0.59225   0.26484   0.45637   0.00000  Uiso   1.00
C375   C     0.90528   0.23476   0.45692   0.00000  Uiso   1.00
C376   C     0.90775   0.26484   0.54363   0.00000  Uiso   1.00
C377   C     0.59472   0.23476   0.54308   0.00000  Uiso   1.00
C378   C     0.61644   0.24975   0.49976   0.00000  Uiso   1.00
C379   C     0.88356   0.24975   0.50024   0.00000  Uiso   1.00
C380   C     0.52420   0.25137   0.50007   0.00000  Uiso   1.00
C381   C     0.97580   0.25137   0.49993   0.00000  Uiso   1.00
C382   C     0.68175   0.12588   0.44376   0.00000  Uiso   1.00
C383   C     0.71683   0.10171   0.47430   0.00000  Uiso   1.00
C384   C     0.79880   0.37430   0.57750   0.00000  Uiso   1.00
C385   C     0.81825   0.12588   0.55624   0.00000  Uiso   1.00
C386   C     0.70120   0.37430   0.42250   0.00000  Uiso   1.00
C387   C     0.61461   0.27698   0.40911   0.00000  Uiso   1.00
C388   C     0.88019   0.21941   0.41056   0.00000  Uiso   1.00
C389   C     0.88539   0.27698   0.59089   0.00000  Uiso   1.00
C390   C     0.61981   0.21941   0.58944   0.00000  Uiso   1.00
C391   C     0.77213   0.39838   0.53775   0.00000  Uiso   1.00
C392   C     0.78317   0.10171   0.52570   0.00000  Uiso   1.00
C393   C     0.72787   0.39838   0.46225   0.00000  Uiso   1.00
C394   C     0.71595   0.05234   0.47541   0.00000  Uiso   1.00
C395   C     0.77108   0.44775   0.53878   0.00000  Uiso   1.00
C396   C     0.78405   0.05234   0.52459   0.00000  Uiso   1.00
H397   H     0.52673   0.27920   0.42524   0.00000  Uiso   1.00
H398   H     0.81318   0.34065   0.57080   0.00000  Uiso   1.00
H399   H     0.81266   0.16001   0.57158   0.00000  Uiso   1.00
H400   H     0.68682   0.34065   0.42920   0.00000  Uiso   1.00
H401   H     0.64971   0.26938   0.40479   0.00000  Uiso   1.00
H402   H     0.84405   0.22057   0.40819   0.00000  Uiso   1.00
H403   H     0.85029   0.26938   0.59521   0.00000  Uiso   1.00
H404   H     0.65594   0.22058   0.59181   0.00000  Uiso   1.00
H405   H     0.96917   0.22249   0.42554   0.00000  Uiso   1.00
H406   H     0.97327   0.27920   0.57476   0.00000  Uiso   1.00
H407   H     0.53083   0.22249   0.57446   0.00000  Uiso   1.00
H408   H     0.68855   0.03422   0.45650   0.00000  Uiso   1.00
H409   H     0.78732   0.46584   0.56998   0.00000  Uiso   1.00
H410   H     0.81145   0.03422   0.54350   0.00000  Uiso   1.00
H411   H     0.71268   0.46584   0.43002   0.00000  Uiso   1.00
H412   H     0.68734   0.16001   0.42842   0.00000  Uiso   1.00
N413   N     0.75000   0.12624   0.50000   0.00000  Uiso   1.00
N414   N     0.75000   0.37377   0.50000   0.00000  Uiso   1.00
O415   O     0.68453   0.28974   0.50000   0.00000  Uiso   1.00
O416   O     0.80600   0.39253   0.61838   0.00000  Uiso   1.00
O417   O     0.85417   0.10716   0.56575   0.00000  Uiso   1.00
O418   O     0.69400   0.39253   0.38162   0.00000  Uiso   1.00
O419   O     0.59390   0.29515   0.37401   0.00000  Uiso   1.00
O420   O     0.89973   0.20538   0.37404   0.00000  Uiso   1.00
O421   O     0.90610   0.29515   0.62599   0.00000  Uiso   1.00
O422   O     0.60027   0.20538   0.62596   0.00000  Uiso   1.00
O423   O     0.81547   0.21026   0.50000   0.00000  Uiso   1.00
O424   O     0.81547   0.28974   0.50000   0.00000  Uiso   1.00
O425   O     0.68453   0.21026   0.50000   0.00000  Uiso   1.00
O426   O     0.75000   0.28973   0.42845   0.00000  Uiso   1.00
O427   O     0.75000   0.21027   0.57155   0.00000  Uiso   1.00
O428   O     0.75000   0.28973   0.57155   0.00000  Uiso   1.00
O429   O     0.75000   0.21027   0.42845   0.00000  Uiso   1.00
O430   O     0.64583   0.10716   0.43424   0.00000  Uiso   1.00
Zn431  Zn    0.75000   0.30307   0.50000   0.00000  Uiso   1.00
Zn432  Zn    0.75000   0.19693   0.50000   0.00000  Uiso   1.00
C433   C     0.16425   0.74995   0.49991   0.00000  Uiso   1.00
C434   C     0.22892   0.94775   0.46122   0.00000  Uiso   1.00
C435   C     0.24978   0.75001   0.40631   0.00000  Uiso   1.00
C436   C     0.25022   0.75001   0.59369   0.00000  Uiso   1.00
C437   C     0.25000   0.52659   0.50000   0.00000  Uiso   1.00
C438   C     0.25000   0.97350   0.50000   0.00000  Uiso   1.00
C439   C     0.24991   0.75002   0.35516   0.00000  Uiso   1.00
C440   C     0.25009   0.75002   0.64484   0.00000  Uiso   1.00
C441   C     0.04600   0.76660   0.45763   0.00000  Uiso   1.00
C442   C     0.45165   0.73507   0.45775   0.00000  Uiso   1.00
C443   C     0.45400   0.76660   0.54237   0.00000  Uiso   1.00
C444   C     0.33575   0.74995   0.50009   0.00000  Uiso   1.00
C445   C     0.04835   0.73507   0.54225   0.00000  Uiso   1.00
C446   C     0.09225   0.76484   0.45637   0.00000  Uiso   1.00
C447   C     0.40528   0.73476   0.45692   0.00000  Uiso   1.00
C448   C     0.40775   0.76484   0.54363   0.00000  Uiso   1.00
C449   C     0.09472   0.73476   0.54308   0.00000  Uiso   1.00
C450   C     0.11644   0.74975   0.49976   0.00000  Uiso   1.00
C451   C     0.38356   0.74975   0.50024   0.00000  Uiso   1.00
C452   C     0.02420   0.75137   0.50007   0.00000  Uiso   1.00
C453   C     0.47580   0.75137   0.49993   0.00000  Uiso   1.00
C454   C     0.18175   0.62588   0.44376   0.00000  Uiso   1.00
C455   C     0.21683   0.60171   0.47430   0.00000  Uiso   1.00
C456   C     0.29880   0.87430   0.57750   0.00000  Uiso   1.00
C457   C     0.31825   0.62588   0.55624   0.00000  Uiso   1.00
C458   C     0.20120   0.87430   0.42250   0.00000  Uiso   1.00
C459   C     0.11461   0.77698   0.40911   0.00000  Uiso   1.00
C460   C     0.38019   0.71941   0.41056   0.00000  Uiso   1.00
C461   C     0.38539   0.77698   0.59089   0.00000  Uiso   1.00
C462   C     0.11981   0.71941   0.58944   0.00000  Uiso   1.00
C463   C     0.27213   0.89838   0.53775   0.00000  Uiso   1.00
C464   C     0.28317   0.60171   0.52570   0.00000  Uiso   1.00
C465   C     0.22787   0.89838   0.46225   0.00000  Uiso   1.00
C466   C     0.21595   0.55234   0.47541   0.00000  Uiso   1.00
C467   C     0.27108   0.94775   0.53878   0.00000  Uiso   1.00
C468   C     0.28405   0.55234   0.52459   0.00000  Uiso   1.00
H469   H     0.02673   0.77920   0.42524   0.00000  Uiso   1.00
H470   H     0.31318   0.84065   0.57080   0.00000  Uiso   1.00
H471   H     0.31266   0.66001   0.57158   0.00000  Uiso   1.00
H472   H     0.18682   0.84065   0.42920   0.00000  Uiso   1.00
H473   H     0.14971   0.76938   0.40479   0.00000  Uiso   1.00
H474   H     0.34405   0.72057   0.40819   0.00000  Uiso   1.00
H475   H     0.35029   0.76938   0.59521   0.00000  Uiso   1.00
H476   H     0.15594   0.72058   0.59181   0.00000  Uiso   1.00
H477   H     0.46917   0.72249   0.42554   0.00000  Uiso   1.00
H478   H     0.47327   0.77920   0.57476   0.00000  Uiso   1.00
H479   H     0.03083   0.72249   0.57446   0.00000  Uiso   1.00
H480   H     0.18855   0.53422   0.45650   0.00000  Uiso   1.00
H481   H     0.28732   0.96584   0.56998   0.00000  Uiso   1.00
H482   H     0.31145   0.53422   0.54350   0.00000  Uiso   1.00
H483   H     0.21268   0.96584   0.43002   0.00000  Uiso   1.00
H484   H     0.18734   0.66001   0.42842   0.00000  Uiso   1.00
N485   N     0.25000   0.62624   0.50000   0.00000  Uiso   1.00
N486   N     0.25000   0.87377   0.50000   0.00000  Uiso   1.00
O487   O     0.18453   0.78974   0.50000   0.00000  Uiso   1.00
O488   O     0.30600   0.89253   0.61838   0.00000  Uiso   1.00
O489   O     0.35417   0.60716   0.56575   0.00000  Uiso   1.00
O490   O     0.19400   0.89253   0.38162   0.00000  Uiso   1.00
O491   O     0.09390   0.79515   0.37401   0.00000  Uiso   1.00
O492   O     0.39973   0.70538   0.37404   0.00000  Uiso   1.00
O493   O     0.40610   0.79515   0.62599   0.00000  Uiso   1.00
O494   O     0.10027   0.70538   0.62596   0.00000  Uiso   1.00
O495   O     0.31547   0.71026   0.50000   0.00000  Uiso   1.00
O496   O     0.31547   0.78974   0.50000   0.00000  Uiso   1.00
O497   O     0.18453   0.71026   0.50000   0.00000  Uiso   1.00
O498   O     0.25000   0.78973   0.42845   0.00000  Uiso   1.00
O499   O     0.25000   0.71027   0.57155   0.00000  Uiso   1.00
O500   O     0.25000   0.78973   0.57155   0.00000  Uiso   1.00
O501   O     0.25000   0.71027   0.42845   0.00000  Uiso   1.00
O502   O     0.14583   0.60716   0.43424   0.00000  Uiso   1.00
Zn503  Zn    0.25000   0.80307   0.50000   0.00000  Uiso   1.00
Zn504  Zn    0.25000   0.69693   0.50000   0.00000  Uiso   1.00
C505   C     0.66425   0.74995   0.49991   0.00000  Uiso   1.00
C506   C     0.72892   0.94775   0.46122   0.00000  Uiso   1.00
C507   C     0.74978   0.75001   0.40631   0.00000  Uiso   1.00
C508   C     0.75022   0.75001   0.59369   0.00000  Uiso   1.00
C509   C     0.75000   0.52659   0.50000   0.00000  Uiso   1.00
C510   C     0.75000   0.97350   0.50000   0.00000  Uiso   1.00
C511   C     0.74991   0.75002   0.35516   0.00000  Uiso   1.00
C512   C     0.75009   0.75002   0.64484   0.00000  Uiso   1.00
C513   C     0.54600   0.76660   0.45763   0.00000  Uiso   1.00
C514   C     0.95165   0.73507   0.45775   0.00000  Uiso   1.00
C515   C     0.95400   0.76660   0.54237   0.00000  Uiso   1.00
C516   C     0.83575   0.74995   0.50009   0.00000  Uiso   1.00
C517   C     0.54835   0.73507   0.54225   0.00000  Uiso   1.00
C518   C     0.59225   0.76484   0.45637   0.00000  Uiso   1.00
C519   C     0.90528   0.73476   0.45692   0.00000  Uiso   1.00
C520   C     0.90775   0.76484   0.54363   0.00000  Uiso   1.00
C521   C     0.59472   0.73476   0.54308   0.00000  Uiso   1.00
C522   C     0.61644   0.74975   0.49976   0.00000  Uiso   1.00
C523   C     0.88356   0.74975   0.50024   0.00000  Uiso   1.00
C524   C     0.52420   0.75137   0.50007   0.00000  Uiso   1.00
C525   C     0.97580   0.75137   0.49993   0.00000  Uiso   1.00
C526   C     0.68175   0.62588   0.44376   0.00000  Uiso   1.00
C527   C     0.71683   0.60171   0.47430   0.00000  Uiso   1.00
C528   C     0.79880   0.87430   0.57750   0.00000  Uiso   1.00
C529   C     0.81825   0.62588   0.55624   0.00000  Uiso   1.00
C530   C     0.70120   0.87430   0.42250   0.00000  Uiso   1.00
C531   C     0.61461   0.77698   0.40911   0.00000  Uiso   1.00
C532   C     0.88019   0.71941   0.41056   0.00000  Uiso   1.00
C533   C     0.88539   0.77698   0.59089   0.00000  Uiso   1.00
C534   C     0.61981   0.71941   0.58944   0.00000  Uiso   1.00
C535   C     0.77213   0.89838   0.53775   0.00000  Uiso   1.00
C536   C     0.78317   0.60171   0.52570   0.00000  Uiso   1.00
C537   C     0.72787   0.89838   0.46225   0.00000  Uiso   1.00
C538   C     0.71595   0.55234   0.47541   0.00000  Uiso   1.00
C539   C     0.77108   0.94775   0.53878   0.00000  Uiso   1.00
C540   C     0.78405   0.55234   0.52459   0.00000  Uiso   1.00
H541   H     0.52673   0.77920   0.42524   0.00000  Uiso   1.00
H542   H     0.81318   0.84065   0.57080   0.00000  Uiso   1.00
H543   H     0.81266   0.66001   0.57158   0.00000  Uiso   1.00
H544   H     0.68682   0.84065   0.42920   0.00000  Uiso   1.00
H545   H     0.64971   0.76938   0.40479   0.00000  Uiso   1.00
H546   H     0.84405   0.72057   0.40819   0.00000  Uiso   1.00
H547   H     0.85029   0.76938   0.59521   0.00000  Uiso   1.00
H548   H     0.65594   0.72058   0.59181   0.00000  Uiso   1.00
H549   H     0.96917   0.72249   0.42554   0.00000  Uiso   1.00
H550   H     0.97327   0.77920   0.57476   0.00000  Uiso   1.00
H551   H     0.53083   0.72249   0.57446   0.00000  Uiso   1.00
H552   H     0.68855   0.53422   0.45650   0.00000  Uiso   1.00
H553   H     0.78732   0.96584   0.56998   0.00000  Uiso   1.00
H554   H     0.81145   0.53422   0.54350   0.00000  Uiso   1.00
H555   H     0.71268   0.96584   0.43002   0.00000  Uiso   1.00
H556   H     0.68734   0.66001   0.42842   0.00000  Uiso   1.00
N557   N     0.75000   0.62624   0.50000   0.00000  Uiso   1.00
N558   N     0.75000   0.87377   0.50000   0.00000  Uiso   1.00
O559   O     0.68453   0.78974   0.50000   0.00000  Uiso   1.00
O560   O     0.80600   0.89253   0.61838   0.00000  Uiso   1.00
O561   O     0.85417   0.60716   0.56575   0.00000  Uiso   1.00
O562   O     0.69400   0.89253   0.38162   0.00000  Uiso   1.00
O563   O     0.59390   0.79515   0.37401   0.00000  Uiso   1.00
O564   O     0.89973   0.70538   0.37404   0.00000  Uiso   1.00
O565   O     0.90610   0.79515   0.62599   0.00000  Uiso   1.00
O566   O     0.60027   0.70538   0.62596   0.00000  Uiso   1.00
O567   O     0.81547   0.71026   0.50000   0.00000  Uiso   1.00
O568   O     0.81547   0.78974   0.50000   0.00000  Uiso   1.00
O569   O     0.68453   0.71026   0.50000   0.00000  Uiso   1.00
O570   O     0.75000   0.78973   0.42845   0.00000  Uiso   1.00
O571   O     0.75000   0.71027   0.57155   0.00000  Uiso   1.00
O572   O     0.75000   0.78973   0.57155   0.00000  Uiso   1.00
O573   O     0.75000   0.71027   0.42845   0.00000  Uiso   1.00
O574   O     0.64583   0.60716   0.43424   0.00000  Uiso   1.00
Zn575  Zn    0.75000   0.80307   0.50000   0.00000  Uiso   1.00
Zn576  Zn    0.75000   0.69693   0.50000   0.00000  Uiso   1.00
C577   C     0.16425   0.24995   0.83324   0.00000  Uiso   1.00
C578   C     0.22892   0.44775   0.79455   0.00000  Uiso   1.00
C579   C     0.24978   0.25001   0.73964   0.00000  Uiso   1.00
C580   C     0.25022   0.25001   0.92702   0.00000  Uiso   1.00
C581   C     0.25000   0.02659   0.83333   0.00000  Uiso   1.00
C582   C     0.25000   0.47350   0.83333   0.00000  Uiso   1.00
C583   C     0.24991   0.25002   0.68849   0.00000  Uiso   1.00
C584   C     0.25009   0.25002   0.97817   0.00000  Uiso   1.00
C585   C     0.04600   0.26660   0.79096   0.00000  Uiso   1.00
C586   C     0.45165   0.23507   0.79108   0.00000  Uiso   1.00
C587   C     0.45400   0.26660   0.87571   0.00000  Uiso   1.00
C588   C     0.33575   0.24995   0.83343   0.00000  Uiso   1.00
C589   C     0.04835   0.23507   0.87558   0.00000  Uiso   1.00
C590   C     0.09225   0.26484   0.78971   0.00000  Uiso   1.00
C591   C     0.40528   0.23476   0.79025   0.00000  Uiso   1.00
C592   C     0.40775   0.26484   0.87696   0.00000  Uiso   1.00
C593   C     0.09472   0.23476   0.87642   0.00000  Uiso   1.00
C594   C     0.11644   0.24975   0.83310   0.00000  Uiso   1.00
C595   C     0.38356   0.24975   0.83357   0.00000  Uiso   1.00
C596   C     0.02420   0.25137   0.83340   0.00000  Uiso   1.00
C597   C     0.47580   0.25137   0.83326   0.00000  Uiso   1.00
C598   C     0.18175   0.12588   0.77710   0.00000  Uiso   1.00
C599   C     0.21683   0.10171   0.80763   0.00000  Uiso   1.00
C600   C     0.29880   0.37430   0.91083   0.00000  Uiso   1.00
C601   C     0.31825   0.12588   0.88957   0.00000  Uiso   1.00
C602   C     0.20120   0.37430   0.75584   0.00000  Uiso   1.00
C603   C     0.11461   0.27698   0.74244   0.00000  Uiso   1.00
C604   C     0.38019   0.21941   0.74390   0.00000  Uiso   1.00
C605   C     0.38539   0.27698   0.92423   0.00000  Uiso   1.00
C606   C     0.11981   0.21941   0.92277   0.00000  Uiso   1.00
C607   C     0.27213   0.39838   0.87108   0.00000  Uiso   1.00
C608   C     0.28317   0.10171   0.85903   0.00000  Uiso   1.00
C609   C     0.22787   0.39838   0.79558   0.00000  Uiso   1.00
C610   C     0.21595   0.05234   0.80874   0.00000  Uiso   1.00
C611   C     0.27108   0.44775   0.87212   0.00000  Uiso   1.00
C612   C     0.28405   0.05234   0.85792   0.00000  Uiso   1.00
H613   H     0.02673   0.27920   0.75858   0.00000  Uiso   1.00
H614   H     0.31318   0.34065   0.90413   0.00000  Uiso   1.00
H615   H     0.31266   0.16001   0.90491   0.00000  Uiso   1.00
H616   H     0.18682   0.34065   0.76254   0.00000  Uiso   1.00
H617   H     0.14971   0.26938   0.73812   0.00000  Uiso   1.00
H618   H     0.34405   0.22057   0.74153   0.00000  Uiso   1.00
H619   H     0.35029   0.26938   0.92855   0.00000  Uiso   1.00
H620   H     0.15594   0.22058   0.92514   0.00000  Uiso   1.00
H621   H     0.46917   0.22249   0.75887   0.00000  Uiso   1.00
H622   H     0.47327   0.27920   0.90809   0.00000  Uiso   1.00
H623   H     0.03083   0.22249   0.90780   0.00000  Uiso   1.00
H624   H     0.18855   0.03422   0.78983   0.00000  Uiso   1.00
H625   H     0.28732   0.46584   0.90331   0.00000  Uiso   1.00
H626   H     0.31145   0.03422   0.87684   0.00000  Uiso   1.00
H627   H     0.21268   0.46584   0.76336   0.00000  Uiso   1.00
H628   H     0.18734   0.16001   0.76175   0.00000  Uiso   1.00
N629   N     0.25000   0.12624   0.83333   0.00000  Uiso   1.00
N630   N     0.25000   0.37377   0.83333   0.00000  Uiso   1.00
O631   O     0.18453   0.28974   0.83334   0.00000  Uiso   1.00
O632   O     0.30600   0.39253   0.95172   0.00000  Uiso   1.00
O633   O     0.35417   0.10716   0.89909   0.00000  Uiso   1.00
O634   O     0.19400   0.39253   0.71495   0.00000  Uiso   1.00
O635   O     0.09390   0.29515   0.70734   0.00000  Uiso   1.00
O636   O     0.39973   0.20538   0.70738   0.00000  Uiso   1.00
O637   O     0.40610   0.29515   0.95933   0.00000  Uiso   1.00
O638   O     0.10027   0.20538   0.95929   0.00000  Uiso   1.00
O639   O     0.31547   0.21026   0.83333   0.00000  Uiso   1.00
O640   O     0.31547   0.28974   0.83333   0.00000  Uiso   1.00
O641   O     0.18453   0.21026   0.83334   0.00000  Uiso   1.00
O642   O     0.25000   0.28973   0.76178   0.00000  Uiso   1.00
O643   O     0.25000   0.21027   0.90489   0.00000  Uiso   1.00
O644   O     0.25000   0.28973   0.90489   0.00000  Uiso   1.00
O645   O     0.25000   0.21027   0.76178   0.00000  Uiso   1.00
O646   O     0.14583   0.10716   0.76758   0.00000  Uiso   1.00
Zn647  Zn    0.25000   0.30307   0.83333   0.00000  Uiso   1.00
Zn648  Zn    0.25000   0.19693   0.83333   0.00000  Uiso   1.00
C649   C     0.66425   0.24995   0.83324   0.00000  Uiso   1.00
C650   C     0.72892   0.44775   0.79455   0.00000  Uiso   1.00
C651   C     0.74978   0.25001   0.73964   0.00000  Uiso   1.00
C652   C     0.75022   0.25001   0.92702   0.00000  Uiso   1.00
C653   C     0.75000   0.02659   0.83333   0.00000  Uiso   1.00
C654   C     0.75000   0.47350   0.83333   0.00000  Uiso   1.00
C655   C     0.74991   0.25002   0.68849   0.00000  Uiso   1.00
C656   C     0.75009   0.25002   0.97817   0.00000  Uiso   1.00
C657   C     0.54600   0.26660   0.79096   0.00000  Uiso   1.00
C658   C     0.95165   0.23507   0.79108   0.00000  Uiso   1.00
C659   C     0.95400   0.26660   0.87571   0.00000  Uiso   1.00
C660   C     0.83575   0.24995   0.83343   0.00000  Uiso   1.00
C661   C     0.54835   0.23507   0.87558   0.00000  Uiso   1.00
C662   C     0.59225   0.26484   0.78971   0.00000  Uiso   1.00
C663   C     0.90528   0.23476   0.79025   0.00000  Uiso   1.00
C664   C     0.90775   0.26484   0.87696   0.00000  Uiso   1.00
C665   C     0.59472   0.23476   0.87642   0.00000  Uiso   1.00
C666   C     0.61644   0.24975   0.83310   0.00000  Uiso   1.00
C667   C     0.88356   0.24975   0.83357   0.00000  Uiso   1.00
C668   C     0.52420   0.25137   0.83340   0.00000  Uiso   1.00
C669   C     0.97580   0.25137   0.83326   0.00000  Uiso   1.00
C670   C     0.68175   0.12588   0.77710   0.00000  Uiso   1.00
C671   C     0.71683   0.10171   0.80763   0.00000  Uiso   1.00
C672   C     0.79880   0.37430   0.91083   0.00000  Uiso   1.00
C673   C     0.81825   0.12588   0.88957   0.00000  Uiso   1.00
C674   C     0.70120   0.37430   0.75584   0.00000  Uiso   1.00
C675   C     0.61461   0.27698   0.74244   0.00000  Uiso   1.00
C676   C     0.88019   0.21941   0.74390   0.00000  Uiso   1.00
C677   C     0.88539   0.27698   0.92423   0.00000  Uiso   1.00
C678   C     0.61981   0.21941   0.92277   0.00000  Uiso   1.00
C679   C     0.77213   0.39838   0.87108   0.00000  Uiso   1.00
C680   C     0.78317   0.10171   0.85903   0.00000  Uiso   1.00
C681   C     0.72787   0.39838   0.79558   0.00000  Uiso   1.00
C682   C     0.71595   0.05234   0.80874   0.00000  Uiso   1.00
C683   C     0.77108   0.44775   0.87212   0.00000  Uiso   1.00
C684   C     0.78405   0.05234   0.85792   0.00000  Uiso   1.00
H685   H     0.52673   0.27920   0.75858   0.00000  Uiso   1.00
H686   H     0.81318   0.34065   0.90413   0.00000  Uiso   1.00
H687   H     0.81266   0.16001   0.90491   0.00000  Uiso   1.00
H688   H     0.68682   0.34065   0.76254   0.00000  Uiso   1.00
H689   H     0.64971   0.26938   0.73812   0.00000  Uiso   1.00
H690   H     0.84405   0.22057   0.74153   0.00000  Uiso   1.00
H691   H     0.85029   0.26938   0.92855   0.00000  Uiso   1.00
H692   H     0.65594   0.22058   0.92514   0.00000  Uiso   1.00
H693   H     0.96917   0.22249   0.75887   0.00000  Uiso   1.00
H694   H     0.97327   0.27920   0.90809   0.00000  Uiso   1.00
H695   H     0.53083   0.22249   0.90780   0.00000  Uiso   1.00
H696   H     0.68855   0.03422   0.78983   0.00000  Uiso   1.00
H697   H     0.78732   0.46584   0.90331   0.00000  Uiso   1.00
H698   H     0.81145   0.03422   0.87684   0.00000  Uiso   1.00
H699   H     0.71268   0.46584   0.76336   0.00000  Uiso   1.00
H700   H     0.68734   0.16001   0.76175   0.00000  Uiso   1.00
N701   N     0.75000   0.12624   0.83333   0.00000  Uiso   1.00
N702   N     0.75000   0.37377   0.83333   0.00000  Uiso   1.00
O703   O     0.68453   0.28974   0.83334   0.00000  Uiso   1.00
O704   O     0.80600   0.39253   0.95172   0.00000  Uiso   1.00
O705   O     0.85417   0.10716   0.89909   0.00000  Uiso   1.00
O706   O     0.69400   0.39253   0.71495   0.00000  Uiso   1.00
O707   O     0.59390   0.29515   0.70734   0.00000  Uiso   1.00
O708   O     0.89973   0.20538   0.70738   0.00000  Uiso   1.00
O709   O     0.90610   0.29515   0.95933   0.00000  Uiso   1.00
O710   O     0.60027   0.20538   0.95929   0.00000  Uiso   1.00
O711   O     0.81547   0.21026   0.83333   0.00000  Uiso   1.00
O712   O     0.81547   0.28974   0.83333   0.00000  Uiso   1.00
O713   O     0.68453   0.21026   0.83334   0.00000  Uiso   1.00
O714   O     0.75000   0.28973   0.76178   0.00000  Uiso   1.00
O715   O     0.75000   0.21027   0.90489   0.00000  Uiso   1.00
O716   O     0.75000   0.28973   0.90489   0.00000  Uiso   1.00
O717   O     0.75000   0.21027   0.76178   0.00000  Uiso   1.00
O718   O     0.64583   0.10716   0.76758   0.00000  Uiso   1.00
Zn719  Zn    0.75000   0.30307   0.83333   0.00000  Uiso   1.00
Zn720  Zn    0.75000   0.19693   0.83333   0.00000  Uiso   1.00
C721   C     0.16425   0.74995   0.83324   0.00000  Uiso   1.00
C722   C     0.22892   0.94775   0.79455   0.00000  Uiso   1.00
C723   C     0.24978   0.75001   0.73964   0.00000  Uiso   1.00
C724   C     0.25022   0.75001   0.92702   0.00000  Uiso   1.00
C725   C     0.25000   0.52659   0.83333   0.00000  Uiso   1.00
C726   C     0.25000   0.97350   0.83333   0.00000  Uiso   1.00
C727   C     0.24991   0.75002   0.68849   0.00000  Uiso   1.00
C728   C     0.25009   0.75002   0.97817   0.00000  Uiso   1.00
C729   C     0.04600   0.76660   0.79096   0.00000  Uiso   1.00
C730   C     0.45165   0.73507   0.79108   0.00000  Uiso   1.00
C731   C     0.45400   0.76660   0.87571   0.00000  Uiso   1.00
C732   C     0.33575   0.74995   0.83343   0.00000  Uiso   1.00
C733   C     0.04835   0.73507   0.87558   0.00000  Uiso   1.00
C734   C     0.09225   0.76484   0.78971   0.00000  Uiso   1.00
C735   C     0.40528   0.73476   0.79025   0.00000  Uiso   1.00
C736   C     0.40775   0.76484   0.87696   0.00000  Uiso   1.00
C737   C     0.09472   0.73476   0.87642   0.00000  Uiso   1.00
C738   C     0.11644   0.74975   0.83310   0.00000  Uiso   1.00
C739   C     0.38356   0.74975   0.83357   0.00000  Uiso   1.00
C740   C     0.02420   0.75137   0.83340   0.00000  Uiso   1.00
C741   C     0.47580   0.75137   0.83326   0.00000  Uiso   1.00
C742   C     0.18175   0.62588   0.77710   0.00000  Uiso   1.00
C743   C     0.21683   0.60171   0.80763   0.00000  Uiso   1.00
C744   C     0.29880   0.87430   0.91083   0.00000  Uiso   1.00
C745   C     0.31825   0.62588   0.88957   0.00000  Uiso   1.00
C746   C     0.20120   0.87430   0.75584   0.00000  Uiso   1.00
C747   C     0.11461   0.77698   0.74244   0.00000  Uiso   1.00
C748   C     0.38019   0.71941   0.74390   0.00000  Uiso   1.00
C749   C     0.38539   0.77698   0.92423   0.00000  Uiso   1.00
C750   C     0.11981   0.71941   0.92277   0.00000  Uiso   1.00
C751   C     0.27213   0.89838   0.87108   0.00000  Uiso   1.00
C752   C     0.28317   0.60171   0.85903   0.00000  Uiso   1.00
C753   C     0.22787   0.89838   0.79558   0.00000  Uiso   1.00
C754   C     0.21595   0.55234   0.80874   0.00000  Uiso   1.00
C755   C     0.27108   0.94775   0.87212   0.00000  Uiso   1.00
C756   C     0.28405   0.55234   0.85792   0.00000  Uiso   1.00
H757   H     0.02673   0.77920   0.75858   0.00000  Uiso   1.00
H758   H     0.31318   0.84065   0.90413   0.00000  Uiso   1.00
H759   H     0.31266   0.66001   0.90491   0.00000  Uiso   1.00
H760   H     0.18682   0.84065   0.76254   0.00000  Uiso   1.00
H761   H     0.14971   0.76938   0.73812   0.00000  Uiso   1.00
H762   H     0.34405   0.72057   0.74153   0.00000  Uiso   1.00
H763   H     0.35029   0.76938   0.92855   0.00000  Uiso   1.00
H764   H     0.15594   0.72058   0.92514   0.00000  Uiso   1.00
H765   H     0.46917   0.72249   0.75887   0.00000  Uiso   1.00
H766   H     0.47327   0.77920   0.90809   0.00000  Uiso   1.00
H767   H     0.03083   0.72249   0.90780   0.00000  Uiso   1.00
H768   H     0.18855   0.53422   0.78983   0.00000  Uiso   1.00
H769   H     0.28732   0.96584   0.90331   0.00000  Uiso   1.00
H770   H     0.31145   0.53422   0.87684   0.00000  Uiso   1.00
H771   H     0.21268   0.96584   0.76336   0.00000  Uiso   1.00
H772   H     0.18734   0.66001   0.76175   0.00000  Uiso   1.00
N773   N     0.25000   0.62624   0.83333   0.00000  Uiso   1.00
N774   N     0.25000   0.87377   0.83333   0.00000  Uiso   1.00
O775   O     0.18453   0.78974   0.83334   0.00000  Uiso   1.00
O776   O     0.30600   0.89253   0.95172   0.00000  Uiso   1.00
O777   O     0.35417   0.60716   0.89909   0.00000  Uiso   1.00
O778   O     0.19400   0.89253   0.71495   0.00000  Uiso   1.00
O779   O     0.09390   0.79515   0.70734   0.00000  Uiso   1.00
O780   O     0.39973   0.70538   0.70738   0.00000  Uiso   1.00
O781   O     0.40610   0.79515   0.95933   0.00000  Uiso   1.00
O782   O     0.10027   0.70538   0.95929   0.00000  Uiso   1.00
O783   O     0.31547   0.71026   0.83333   0.00000  Uiso   1.00
O784   O     0.31547   0.78974   0.83333   0.00000  Uiso   1.00
O785   O     0.18453   0.71026   0.83334   0.00000  Uiso   1.00
O786   O     0.25000   0.78973   0.76178   0.00000  Uiso   1.00
O787   O     0.25000   0.71027   0.90489   0.00000  Uiso   1.00
O788   O     0.25000   0.78973   0.90489   0.00000  Uiso   1.00
O789   O     0.25000   0.71027   0.76178   0.00000  Uiso   1.00
O790   O     0.14583   0.60716   0.76758   0.00000  Uiso   1.00
Zn791  Zn    0.25000   0.80307   0.83333   0.00000  Uiso   1.00
Zn792  Zn    0.25000   0.69693   0.83333   0.00000  Uiso   1.00
C793   C     0.66425   0.74995   0.83324   0.00000  Uiso   1.00
C794   C     0.72892   0.94775   0.79455   0.00000  Uiso   1.00
C795   C     0.74978   0.75001   0.73964   0.00000  Uiso   1.00
C796   C     0.75022   0.75001   0.92702   0.00000  Uiso   1.00
C797   C     0.75000   0.52659   0.83333   0.00000  Uiso   1.00
C798   C     0.75000   0.97350   0.83333   0.00000  Uiso   1.00
C799   C     0.74991   0.75002   0.68849   0.00000  Uiso   1.00
C800   C     0.75009   0.75002   0.97817   0.00000  Uiso   1.00
C801   C     0.54600   0.76660   0.79096   0.00000  Uiso   1.00
C802   C     0.95165   0.73507   0.79108   0.00000  Uiso   1.00
C803   C     0.95400   0.76660   0.87571   0.00000  Uiso   1.00
C804   C     0.83575   0.74995   0.83343   0.00000  Uiso   1.00
C805   C     0.54835   0.73507   0.87558   0.00000  Uiso   1.00
C806   C     0.59225   0.76484   0.78971   0.00000  Uiso   1.00
C807   C     0.90528   0.73476   0.79025   0.00000  Uiso   1.00
C808   C     0.90775   0.76484   0.87696   0.00000  Uiso   1.00
C809   C     0.59472   0.73476   0.87642   0.00000  Uiso   1.00
C810   C     0.61644   0.74975   0.83310   0.00000  Uiso   1.00
C811   C     0.88356   0.74975   0.83357   0.00000  Uiso   1.00
C812   C     0.52420   0.75137   0.83340   0.00000  Uiso   1.00
C813   C     0.97580   0.75137   0.83326   0.00000  Uiso   1.00
C814   C     0.68175   0.62588   0.77710   0.00000  Uiso   1.00
C815   C     0.71683   0.60171   0.80763   0.00000  Uiso   1.00
C816   C     0.79880   0.87430   0.91083   0.00000  Uiso   1.00
C817   C     0.81825   0.62588   0.88957   0.00000  Uiso   1.00
C818   C     0.70120   0.87430   0.75584   0.00000  Uiso   1.00
C819   C     0.61461   0.77698   0.74244   0.00000  Uiso   1.00
C820   C     0.88019   0.71941   0.74390   0.00000  Uiso   1.00
C821   C     0.88539   0.77698   0.92423   0.00000  Uiso   1.00
C822   C     0.61981   0.71941   0.92277   0.00000  Uiso   1.00
C823   C     0.77213   0.89838   0.87108   0.00000  Uiso   1.00
C824   C     0.78317   0.60171   0.85903   0.00000  Uiso   1.00
C825   C     0.72787   0.89838   0.79558   0.00000  Uiso   1.00
C826   C     0.71595   0.55234   0.80874   0.00000  Uiso   1.00
C827   C     0.77108   0.94775   0.87212   0.00000  Uiso   1.00
C828   C     0.78405   0.55234   0.85792   0.00000  Uiso   1.00
H829   H     0.52673   0.77920   0.75858   0.00000  Uiso   1.00
H830   H     0.81318   0.84065   0.90413   0.00000  Uiso   1.00
H831   H     0.81266   0.66001   0.90491   0.00000  Uiso   1.00
H832   H     0.68682   0.84065   0.76254   0.00000  Uiso   1.00
H833   H     0.64971   0.76938   0.73812   0.00000  Uiso   1.00
H834   H     0.84405   0.72057   0.74153   0.00000  Uiso   1.00
H835   H     0.85029   0.76938   0.92855   0.00000  Uiso   1.00
H836   H     0.65594   0.72058   0.92514   0.00000  Uiso   1.00
H837   H     0.96917   0.72249   0.75887   0.00000  Uiso   1.00
H838   H     0.97327   0.77920   0.90809   0.00000  Uiso   1.00
H839   H     0.53083   0.72249   0.90780   0.00000  Uiso   1.00
H840   H     0.68855   0.53422   0.78983   0.00000  Uiso   1.00
H841   H     0.78732   0.96584   0.90331   0.00000  Uiso   1.00
H842   H     0.81145   0.53422   0.87684   0.00000  Uiso   1.00
H843   H     0.71268   0.96584   0.76336   0.00000  Uiso   1.00
H844   H     0.68734   0.66001   0.76175   0.00000  Uiso   1.00
N845   N     0.75000   0.62624   0.83333   0.00000  Uiso   1.00
N846   N     0.75000   0.87377   0.83333   0.00000  Uiso   1.00
O847   O     0.68453   0.78974   0.83334   0.00000  Uiso   1.00
O848   O     0.80600   0.89253   0.95172   0.00000  Uiso   1.00
O849   O     0.85417   0.60716   0.89909   0.00000  Uiso   1.00
O850   O     0.69400   0.89253   0.71495   0.00000  Uiso   1.00
O851   O     0.59390   0.79515   0.70734   0.00000  Uiso   1.00
O852   O     0.89973   0.70538   0.70738   0.00000  Uiso   1.00
O853   O     0.90610   0.79515   0.95933   0.00000  Uiso   1.00
O854   O     0.60027   0.70538   0.95929   0.00000  Uiso   1.00
O855   O     0.81547   0.71026   0.83333   0.00000  Uiso   1.00
O856   O     0.81547   0.78974   0.83333   0.00000  Uiso   1.00
O857   O     0.68453   0.71026   0.83334   0.00000  Uiso   1.00
O858   O     0.75000   0.78973   0.76178   0.00000  Uiso   1.00
O859   O     0.75000   0.71027   0.90489   0.00000  Uiso   1.00
O860   O     0.75000   0.78973   0.90489   0.00000  Uiso   1.00
O861   O     0.75000   0.71027   0.76178   0.00000  Uiso   1.00
O862   O     0.64583   0.60716   0.76758   0.00000  Uiso   1.00
Zn863  Zn    0.75000   0.80307   0.83333   0.00000  Uiso   1.00
Zn864  Zn    0.75000   0.69693   0.83333   0.00000  Uiso   1.00
loop_
_geom_bond_atom_site_label_1
_geom_bond_atom_site_label_2
_geom_bond_distance
_geom_bond_site_symmetry_2
_ccdc_geom_bond_type
C1     O65     1.290   .     A
C1     C18     1.432   .     S
C1     O55     1.292   .     A
C2     C6      1.403   .     A
C2     H51     1.081   .     S
C2     C33     1.416   .     A
C3     O69     1.283   .     A
C3     C7      1.364   .     S
C3     O66     1.282   .     A
C4     O67     1.283   .     A
C4     C8      1.364   .     S
C4     O68     1.282   .     A
C5     C34     1.403   .     A
C5     C36     1.403   .     A
C5     C150    1.522   1_545 S
C6     C35     1.403   .     A
C6     C149    1.522   .     S
C7     C584    1.164   1_554 S
C8     C295    1.164   .     S
C9     C14     1.388   .     A
C9     H37     1.084   .     S
C9     C20     1.396   .     A
C10    H45     1.084   .     S
C10    C15     1.389   .     A
C10    C21     1.397   .     A
C11    C16     1.388   .     A
C11    C21     1.396   .     A
C11    H46     1.084   .     S
C12    C19     1.432   .     S
C12    O64     1.292   .     A
C12    O63     1.290   .     A
C13    C17     1.389   .     A
C13    H47     1.084   .     S
C13    C20     1.397   .     A
C14    C27     1.489   .     S
C14    C18     1.412   .     A
C15    C19     1.412   .     A
C15    C28     1.491   .     S
C16    C29     1.489   .     S
C16    C19     1.412   .     A
C17    C18     1.412   .     A
C17    C30     1.491   .     S
C20    C93     1.450   1_455 S
C21    C92     1.450   .     S
C22    H52     1.076   .     S
C22    C23     1.479   .     S
C22    O70     1.221   .     D
C23    C34     1.416   .     A
C23    N53     1.380   .     A
C24    H38     1.074   .     S
C24    C31     1.476   .     S
C24    O56     1.221   .     D
C25    C32     1.479   .     S
C25    O57     1.221   .     D
C25    H39     1.076   .     S
C26    C33     1.476   .     S
C26    H40     1.074   .     S
C26    O58     1.221   .     D
C27    O59     1.221   .     D
C27    H41     1.084   .     S
C28    H42     1.083   .     S
C28    O60     1.221   .     D
C29    H43     1.084   .     S
C29    O61     1.221   .     D
C30    H44     1.083   .     S
C30    O62     1.221   .     D
C31    N54     1.380   .     A
C31    C35     1.416   .     A
C32    C36     1.416   .     A
C32    N53     1.380   .     A
C33    N54     1.380   .     A
C34    H48     1.081   .     S
C35    H49     1.081   .     S
C36    H50     1.081   .     S
N53    Zn72    2.026   .     S
N54    Zn71    2.026   .     S
O55    Zn71    1.998   .     S
O63    Zn72    1.998   .     S
O64    Zn71    1.998   .     S
O65    Zn72    1.998   .     S
O66    Zn71    1.946   .     S
O67    Zn72    1.946   .     S
O68    Zn71    1.946   .     S
O69    Zn72    1.946   .     S
C73    O137    1.290   .     A
C73    C90     1.432   .     S
C73    O127    1.292   .     A
C74    C78     1.403   .     A
C74    H123    1.081   .     S
C74    C105    1.416   .     A
C75    O141    1.283   .     A
C75    C79     1.364   .     S
C75    O138    1.282   .     A
C76    O139    1.283   .     A
C76    C80     1.364   .     S
C76    O140    1.282   .     A
C77    C106    1.403   .     A
C77    C108    1.403   .     A
C77    C222    1.522   1_545 S
C78    C107    1.403   .     A
C78    C221    1.522   .     S
C79    C656    1.164   1_554 S
C80    C367    1.164   .     S
C81    C86     1.388   .     A
C81    H109    1.084   .     S
C81    C92     1.396   .     A
C82    H117    1.084   .     S
C82    C87     1.389   .     A
C82    C93     1.397   .     A
C83    C88     1.388   .     A
C83    C93     1.396   .     A
C83    H118    1.084   .     S
C84    C91     1.432   .     S
C84    O136    1.292   .     A
C84    O135    1.290   .     A
C85    C89     1.389   .     A
C85    H119    1.084   .     S
C85    C92     1.397   .     A
C86    C99     1.489   .     S
C86    C90     1.412   .     A
C87    C91     1.412   .     A
C87    C100    1.491   .     S
C88    C101    1.489   .     S
C88    C91     1.412   .     A
C89    C90     1.412   .     A
C89    C102    1.491   .     S
C93    C20     1.450   1_655 S
C94    H124    1.076   .     S
C94    C95     1.479   .     S
C94    O142    1.221   .     D
C95    C106    1.416   .     A
C95    N125    1.380   .     A
C96    H110    1.074   .     S
C96    C103    1.476   .     S
C96    O128    1.221   .     D
C97    C104    1.479   .     S
C97    O129    1.221   .     D
C97    H111    1.076   .     S
C98    C105    1.476   .     S
C98    H112    1.074   .     S
C98    O130    1.221   .     D
C99    O131    1.221   .     D
C99    H113    1.084   .     S
C100   H114    1.083   .     S
C100   O132    1.221   .     D
C101   H115    1.084   .     S
C101   O133    1.221   .     D
C102   H116    1.083   .     S
C102   O134    1.221   .     D
C103   N126    1.380   .     A
C103   C107    1.416   .     A
C104   C108    1.416   .     A
C104   N125    1.380   .     A
C105   N126    1.380   .     A
C106   H120    1.081   .     S
C107   H121    1.081   .     S
C108   H122    1.081   .     S
N125   Zn144   2.026   .     S
N126   Zn143   2.026   .     S
O127   Zn143   1.998   .     S
O135   Zn144   1.998   .     S
O136   Zn143   1.998   .     S
O137   Zn144   1.998   .     S
O138   Zn143   1.946   .     S
O139   Zn144   1.946   .     S
O140   Zn143   1.946   .     S
O141   Zn144   1.946   .     S
C145   O209    1.290   .     A
C145   C162    1.432   .     S
C145   O199    1.292   .     A
C146   C150    1.403   .     A
C146   H195    1.081   .     S
C146   C177    1.416   .     A
C147   O213    1.283   .     A
C147   C151    1.364   .     S
C147   O210    1.282   .     A
C148   O211    1.283   .     A
C148   C152    1.364   .     S
C148   O212    1.282   .     A
C149   C178    1.403   .     A
C149   C180    1.403   .     A
C150   C179    1.403   .     A
C150   C5      1.522   1_565 S
C151   C728    1.164   1_554 S
C152   C439    1.164   .     S
C153   C158    1.388   .     A
C153   H181    1.084   .     S
C153   C164    1.396   .     A
C154   H189    1.084   .     S
C154   C159    1.389   .     A
C154   C165    1.397   .     A
C155   C160    1.388   .     A
C155   C165    1.396   .     A
C155   H190    1.084   .     S
C156   C163    1.432   .     S
C156   O208    1.292   .     A
C156   O207    1.290   .     A
C157   C161    1.389   .     A
C157   H191    1.084   .     S
C157   C164    1.397   .     A
C158   C171    1.489   .     S
C158   C162    1.412   .     A
C159   C163    1.412   .     A
C159   C172    1.491   .     S
C160   C173    1.489   .     S
C160   C163    1.412   .     A
C161   C162    1.412   .     A
C161   C174    1.491   .     S
C164   C237    1.450   1_455 S
C165   C236    1.450   .     S
C166   H196    1.076   .     S
C166   C167    1.479   .     S
C166   O214    1.221   .     D
C167   C178    1.416   .     A
C167   N197    1.380   .     A
C168   H182    1.074   .     S
C168   C175    1.476   .     S
C168   O200    1.221   .     D
C169   C176    1.479   .     S
C169   O201    1.221   .     D
C169   H183    1.076   .     S
C170   C177    1.476   .     S
C170   H184    1.074   .     S
C170   O202    1.221   .     D
C171   O203    1.221   .     D
C171   H185    1.084   .     S
C172   H186    1.083   .     S
C172   O204    1.221   .     D
C173   H187    1.084   .     S
C173   O205    1.221   .     D
C174   H188    1.083   .     S
C174   O206    1.221   .     D
C175   N198    1.380   .     A
C175   C179    1.416   .     A
C176   C180    1.416   .     A
C176   N197    1.380   .     A
C177   N198    1.380   .     A
C178   H192    1.081   .     S
C179   H193    1.081   .     S
C180   H194    1.081   .     S
N197   Zn216   2.026   .     S
N198   Zn215   2.026   .     S
O199   Zn215   1.998   .     S
O207   Zn216   1.998   .     S
O208   Zn215   1.998   .     S
O209   Zn216   1.998   .     S
O210   Zn215   1.946   .     S
O211   Zn216   1.946   .     S
O212   Zn215   1.946   .     S
O213   Zn216   1.946   .     S
C217   O281    1.290   .     A
C217   C234    1.432   .     S
C217   O271    1.292   .     A
C218   C222    1.403   .     A
C218   H267    1.081   .     S
C218   C249    1.416   .     A
C219   O285    1.283   .     A
C219   C223    1.364   .     S
C219   O282    1.282   .     A
C220   O283    1.283   .     A
C220   C224    1.364   .     S
C220   O284    1.282   .     A
C221   C250    1.403   .     A
C221   C252    1.403   .     A
C222   C251    1.403   .     A
C222   C77     1.522   1_565 S
C223   C800    1.164   1_554 S
C224   C511    1.164   .     S
C225   C230    1.388   .     A
C225   H253    1.084   .     S
C225   C236    1.396   .     A
C226   H261    1.084   .     S
C226   C231    1.389   .     A
C226   C237    1.397   .     A
C227   C232    1.388   .     A
C227   C237    1.396   .     A
C227   H262    1.084   .     S
C228   C235    1.432   .     S
C228   O280    1.292   .     A
C228   O279    1.290   .     A
C229   C233    1.389   .     A
C229   H263    1.084   .     S
C229   C236    1.397   .     A
C230   C243    1.489   .     S
C230   C234    1.412   .     A
C231   C235    1.412   .     A
C231   C244    1.491   .     S
C232   C245    1.489   .     S
C232   C235    1.412   .     A
C233   C234    1.412   .     A
C233   C246    1.491   .     S
C237   C164    1.450   1_655 S
C238   H268    1.076   .     S
C238   C239    1.479   .     S
C238   O286    1.221   .     D
C239   C250    1.416   .     A
C239   N269    1.380   .     A
C240   H254    1.074   .     S
C240   C247    1.476   .     S
C240   O272    1.221   .     D
C241   C248    1.479   .     S
C241   O273    1.221   .     D
C241   H255    1.076   .     S
C242   C249    1.476   .     S
C242   H256    1.074   .     S
C242   O274    1.221   .     D
C243   O275    1.221   .     D
C243   H257    1.084   .     S
C244   H258    1.083   .     S
C244   O276    1.221   .     D
C245   H259    1.084   .     S
C245   O277    1.221   .     D
C246   H260    1.083   .     S
C246   O278    1.221   .     D
C247   N270    1.380   .     A
C247   C251    1.416   .     A
C248   C252    1.416   .     A
C248   N269    1.380   .     A
C249   N270    1.380   .     A
C250   H264    1.081   .     S
C251   H265    1.081   .     S
C252   H266    1.081   .     S
N269   Zn288   2.026   .     S
N270   Zn287   2.026   .     S
O271   Zn287   1.998   .     S
O279   Zn288   1.998   .     S
O280   Zn287   1.998   .     S
O281   Zn288   1.998   .     S
O282   Zn287   1.946   .     S
O283   Zn288   1.946   .     S
O284   Zn287   1.946   .     S
O285   Zn288   1.946   .     S
C289   O353    1.290   .     A
C289   C306    1.432   .     S
C289   O343    1.292   .     A
C290   C294    1.403   .     A
C290   H339    1.081   .     S
C290   C321    1.416   .     A
C291   O357    1.283   .     A
C291   C295    1.364   .     S
C291   O354    1.282   .     A
C292   O355    1.283   .     A
C292   C296    1.364   .     S
C292   O356    1.282   .     A
C293   C322    1.403   .     A
C293   C324    1.403   .     A
C293   C438    1.522   1_545 S
C294   C323    1.403   .     A
C294   C437    1.522   .     S
C296   C583    1.164   .     S
C297   C302    1.388   .     A
C297   H325    1.084   .     S
C297   C308    1.396   .     A
C298   H333    1.084   .     S
C298   C303    1.389   .     A
C298   C309    1.397   .     A
C299   C304    1.388   .     A
C299   C309    1.396   .     A
C299   H334    1.084   .     S
C300   C307    1.432   .     S
C300   O352    1.292   .     A
C300   O351    1.290   .     A
C301   C305    1.389   .     A
C301   H335    1.084   .     S
C301   C308    1.397   .     A
C302   C315    1.489   .     S
C302   C306    1.412   .     A
C303   C307    1.412   .     A
C303   C316    1.491   .     S
C304   C317    1.489   .     S
C304   C307    1.412   .     A
C305   C306    1.412   .     A
C305   C318    1.491   .     S
C308   C381    1.450   1_455 S
C309   C380    1.450   .     S
C310   H340    1.076   .     S
C310   C311    1.479   .     S
C310   O358    1.221   .     D
C311   C322    1.416   .     A
C311   N341    1.380   .     A
C312   H326    1.074   .     S
C312   C319    1.476   .     S
C312   O344    1.221   .     D
C313   C320    1.479   .     S
C313   O345    1.221   .     D
C313   H327    1.076   .     S
C314   C321    1.476   .     S
C314   H328    1.074   .     S
C314   O346    1.221   .     D
C315   O347    1.221   .     D
C315   H329    1.084   .     S
C316   H330    1.083   .     S
C316   O348    1.221   .     D
C317   H331    1.084   .     S
C317   O349    1.221   .     D
C318   H332    1.083   .     S
C318   O350    1.221   .     D
C319   N342    1.380   .     A
C319   C323    1.416   .     A
C320   C324    1.416   .     A
C320   N341    1.380   .     A
C321   N342    1.380   .     A
C322   H336    1.081   .     S
C323   H337    1.081   .     S
C324   H338    1.081   .     S
N341   Zn360   2.026   .     S
N342   Zn359   2.026   .     S
O343   Zn359   1.998   .     S
O351   Zn360   1.998   .     S
O352   Zn359   1.998   .     S
O353   Zn360   1.998   .     S
O354   Zn359   1.946   .     S
O355   Zn360   1.946   .     S
O356   Zn359   1.946   .     S
O357   Zn360   1.946   .     S
C361   O425    1.290   .     A
C361   C378    1.432   .     S
C361   O415    1.292   .     A
C362   C366    1.403   .     A
C362   H411    1.081   .     S
C362   C393    1.416   .     A
C363   O429    1.283   .     A
C363   C367    1.364   .     S
C363   O426    1.282   .     A
C364   O427    1.283   .     A
C364   C368    1.364   .     S
C364   O428    1.282   .     A
C365   C394    1.403   .     A
C365   C396    1.403   .     A
C365   C510    1.522   1_545 S
C366   C395    1.403   .     A
C366   C509    1.522   .     S
C368   C655    1.164   .     S
C369   C374    1.388   .     A
C369   H397    1.084   .     S
C369   C380    1.396   .     A
C370   H405    1.084   .     S
C370   C375    1.389   .     A
C370   C381    1.397   .     A
C371   C376    1.388   .     A
C371   C381    1.396   .     A
C371   H406    1.084   .     S
C372   C379    1.432   .     S
C372   O424    1.292   .     A
C372   O423    1.290   .     A
C373   C377    1.389   .     A
C373   H407    1.084   .     S
C373   C380    1.397   .     A
C374   C387    1.489   .     S
C374   C378    1.412   .     A
C375   C379    1.412   .     A
C375   C388    1.491   .     S
C376   C389    1.489   .     S
C376   C379    1.412   .     A
C377   C378    1.412   .     A
C377   C390    1.491   .     S
C381   C308    1.450   1_655 S
C382   H412    1.076   .     S
C382   C383    1.479   .     S
C382   O430    1.221   .     D
C383   C394    1.416   .     A
C383   N413    1.380   .     A
C384   H398    1.074   .     S
C384   C391    1.476   .     S
C384   O416    1.221   .     D
C385   C392    1.479   .     S
C385   O417    1.221   .     D
C385   H399    1.076   .     S
C386   C393    1.476   .     S
C386   H400    1.074   .     S
C386   O418    1.221   .     D
C387   O419    1.221   .     D
C387   H401    1.084   .     S
C388   H402    1.083   .     S
C388   O420    1.221   .     D
C389   H403    1.084   .     S
C389   O421    1.221   .     D
C390   H404    1.083   .     S
C390   O422    1.221   .     D
C391   N414    1.380   .     A
C391   C395    1.416   .     A
C392   C396    1.416   .     A
C392   N413    1.380   .     A
C393   N414    1.380   .     A
C394   H408    1.081   .     S
C395   H409    1.081   .     S
C396   H410    1.081   .     S
N413   Zn432   2.026   .     S
N414   Zn431   2.026   .     S
O415   Zn431   1.998   .     S
O423   Zn432   1.998   .     S
O424   Zn431   1.998   .     S
O425   Zn432   1.998   .     S
O426   Zn431   1.946   .     S
O427   Zn432   1.946   .     S
O428   Zn431   1.946   .     S
O429   Zn432   1.946   .     S
C433   O497    1.290   .     A
C433   C450    1.432   .     S
C433   O487    1.292   .     A
C434   C438    1.403   .     A
C434   H483    1.081   .     S
C434   C465    1.416   .     A
C435   O501    1.283   .     A
C435   C439    1.364   .     S
C435   O498    1.282   .     A
C436   O499    1.283   .     A
C436   C440    1.364   .     S
C436   O500    1.282   .     A
C437   C466    1.403   .     A
C437   C468    1.403   .     A
C438   C467    1.403   .     A
C438   C293    1.522   1_565 S
C440   C727    1.164   .     S
C441   C446    1.388   .     A
C441   H469    1.084   .     S
C441   C452    1.396   .     A
C442   H477    1.084   .     S
C442   C447    1.389   .     A
C442   C453    1.397   .     A
C443   C448    1.388   .     A
C443   C453    1.396   .     A
C443   H478    1.084   .     S
C444   C451    1.432   .     S
C444   O496    1.292   .     A
C444   O495    1.290   .     A
C445   C449    1.389   .     A
C445   H479    1.084   .     S
C445   C452    1.397   .     A
C446   C459    1.489   .     S
C446   C450    1.412   .     A
C447   C451    1.412   .     A
C447   C460    1.491   .     S
C448   C461    1.489   .     S
C448   C451    1.412   .     A
C449   C450    1.412   .     A
C449   C462    1.491   .     S
C452   C525    1.450   1_455 S
C453   C524    1.450   .     S
C454   H484    1.076   .     S
C454   C455    1.479   .     S
C454   O502    1.221   .     D
C455   C466    1.416   .     A
C455   N485    1.380   .     A
C456   H470    1.074   .     S
C456   C463    1.476   .     S
C456   O488    1.221   .     D
C457   C464    1.479   .     S
C457   O489    1.221   .     D
C457   H471    1.076   .     S
C458   C465    1.476   .     S
C458   H472    1.074   .     S
C458   O490    1.221   .     D
C459   O491    1.221   .     D
C459   H473    1.084   .     S
C460   H474    1.083   .     S
C460   O492    1.221   .     D
C461   H475    1.084   .     S
C461   O493    1.221   .     D
C462   H476    1.083   .     S
C462   O494    1.221   .     D
C463   N486    1.380   .     A
C463   C467    1.416   .     A
C464   C468    1.416   .     A
C464   N485    1.380   .     A
C465   N486    1.380   .     A
C466   H480    1.081   .     S
C467   H481    1.081   .     S
C468   H482    1.081   .     S
N485   Zn504   2.026   .     S
N486   Zn503   2.026   .     S
O487   Zn503   1.998   .     S
O495   Zn504   1.998   .     S
O496   Zn503   1.998   .     S
O497   Zn504   1.998   .     S
O498   Zn503   1.946   .     S
O499   Zn504   1.946   .     S
O500   Zn503   1.946   .     S
O501   Zn504   1.946   .     S
C505   O569    1.290   .     A
C505   C522    1.432   .     S
C505   O559    1.292   .     A
C506   C510    1.403   .     A
C506   H555    1.081   .     S
C506   C537    1.416   .     A
C507   O573    1.283   .     A
C507   C511    1.364   .     S
C507   O570    1.282   .     A
C508   O571    1.283   .     A
C508   C512    1.364   .     S
C508   O572    1.282   .     A
C509   C538    1.403   .     A
C509   C540    1.403   .     A
C510   C539    1.403   .     A
C510   C365    1.522   1_565 S
C512   C799    1.164   .     S
C513   C518    1.388   .     A
C513   H541    1.084   .     S
C513   C524    1.396   .     A
C514   H549    1.084   .     S
C514   C519    1.389   .     A
C514   C525    1.397   .     A
C515   C520    1.388   .     A
C515   C525    1.396   .     A
C515   H550    1.084   .     S
C516   C523    1.432   .     S
C516   O568    1.292   .     A
C516   O567    1.290   .     A
C517   C521    1.389   .     A
C517   H551    1.084   .     S
C517   C524    1.397   .     A
C518   C531    1.489   .     S
C518   C522    1.412   .     A
C519   C523    1.412   .     A
C519   C532    1.491   .     S
C520   C533    1.489   .     S
C520   C523    1.412   .     A
C521   C522    1.412   .     A
C521   C534    1.491   .     S
C525   C452    1.450   1_655 S
C526   H556    1.076   .     S
C526   C527    1.479   .     S
C526   O574    1.221   .     D
C527   C538    1.416   .     A
C527   N557    1.380   .     A
C528   H542    1.074   .     S
C528   C535    1.476   .     S
C528   O560    1.221   .     D
C529   C536    1.479   .     S
C529   O561    1.221   .     D
C529   H543    1.076   .     S
C530   C537    1.476   .     S
C530   H544    1.074   .     S
C530   O562    1.221   .     D
C531   O563    1.221   .     D
C531   H545    1.084   .     S
C532   H546    1.083   .     S
C532   O564    1.221   .     D
C533   H547    1.084   .     S
C533   O565    1.221   .     D
C534   H548    1.083   .     S
C534   O566    1.221   .     D
C535   N558    1.380   .     A
C535   C539    1.416   .     A
C536   C540    1.416   .     A
C536   N557    1.380   .     A
C537   N558    1.380   .     A
C538   H552    1.081   .     S
C539   H553    1.081   .     S
C540   H554    1.081   .     S
N557   Zn576   2.026   .     S
N558   Zn575   2.026   .     S
O559   Zn575   1.998   .     S
O567   Zn576   1.998   .     S
O568   Zn575   1.998   .     S
O569   Zn576   1.998   .     S
O570   Zn575   1.946   .     S
O571   Zn576   1.946   .     S
O572   Zn575   1.946   .     S
O573   Zn576   1.946   .     S
C577   O641    1.290   .     A
C577   C594    1.432   .     S
C577   O631    1.292   .     A
C578   C582    1.403   .     A
C578   H627    1.081   .     S
C578   C609    1.416   .     A
C579   O645    1.283   .     A
C579   C583    1.364   .     S
C579   O642    1.282   .     A
C580   O643    1.283   .     A
C580   C584    1.364   .     S
C580   O644    1.282   .     A
C581   C610    1.403   .     A
C581   C612    1.403   .     A
C581   C726    1.522   1_545 S
C582   C611    1.403   .     A
C582   C725    1.522   .     S
C584   C7      1.164   1_556 S
C585   C590    1.388   .     A
C585   H613    1.084   .     S
C585   C596    1.396   .     A
C586   H621    1.084   .     S
C586   C591    1.389   .     A
C586   C597    1.397   .     A
C587   C592    1.388   .     A
C587   C597    1.396   .     A
C587   H622    1.084   .     S
C588   C595    1.432   .     S
C588   O640    1.292   .     A
C588   O639    1.290   .     A
C589   C593    1.389   .     A
C589   H623    1.084   .     S
C589   C596    1.397   .     A
C590   C603    1.489   .     S
C590   C594    1.412   .     A
C591   C595    1.412   .     A
C591   C604    1.491   .     S
C592   C605    1.489   .     S
C592   C595    1.412   .     A
C593   C594    1.412   .     A
C593   C606    1.491   .     S
C596   C669    1.450   1_455 S
C597   C668    1.450   .     S
C598   H628    1.076   .     S
C598   C599    1.479   .     S
C598   O646    1.221   .     D
C599   C610    1.416   .     A
C599   N629    1.380   .     A
C600   H614    1.074   .     S
C600   C607    1.476   .     S
C600   O632    1.221   .     D
C601   C608    1.479   .     S
C601   O633    1.221   .     D
C601   H615    1.076   .     S
C602   C609    1.476   .     S
C602   H616    1.074   .     S
C602   O634    1.221   .     D
C603   O635    1.221   .     D
C603   H617    1.084   .     S
C604   H618    1.083   .     S
C604   O636    1.221   .     D
C605   H619    1.084   .     S
C605   O637    1.221   .     D
C606   H620    1.083   .     S
C606   O638    1.221   .     D
C607   N630    1.380   .     A
C607   C611    1.416   .     A
C608   C612    1.416   .     A
C608   N629    1.380   .     A
C609   N630    1.380   .     A
C610   H624    1.081   .     S
C611   H625    1.081   .     S
C612   H626    1.081   .     S
N629   Zn648   2.026   .     S
N630   Zn647   2.026   .     S
O631   Zn647   1.998   .     S
O639   Zn648   1.998   .     S
O640   Zn647   1.998   .     S
O641   Zn648   1.998   .     S
O642   Zn647   1.946   .     S
O643   Zn648   1.946   .     S
O644   Zn647   1.946   .     S
O645   Zn648   1.946   .     S
C649   O713    1.290   .     A
C649   C666    1.432   .     S
C649   O703    1.292   .     A
C650   C654    1.403   .     A
C650   H699    1.081   .     S
C650   C681    1.416   .     A
C651   O717    1.283   .     A
C651   C655    1.364   .     S
C651   O714    1.282   .     A
C652   O715    1.283   .     A
C652   C656    1.364   .     S
C652   O716    1.282   .     A
C653   C682    1.403   .     A
C653   C684    1.403   .     A
C653   C798    1.522   1_545 S
C654   C683    1.403   .     A
C654   C797    1.522   .     S
C656   C79     1.164   1_556 S
C657   C662    1.388   .     A
C657   H685    1.084   .     S
C657   C668    1.396   .     A
C658   H693    1.084   .     S
C658   C663    1.389   .     A
C658   C669    1.397   .     A
C659   C664    1.388   .     A
C659   C669    1.396   .     A
C659   H694    1.084   .     S
C660   C667    1.432   .     S
C660   O712    1.292   .     A
C660   O711    1.290   .     A
C661   C665    1.389   .     A
C661   H695    1.084   .     S
C661   C668    1.397   .     A
C662   C675    1.489   .     S
C662   C666    1.412   .     A
C663   C667    1.412   .     A
C663   C676    1.491   .     S
C664   C677    1.489   .     S
C664   C667    1.412   .     A
C665   C666    1.412   .     A
C665   C678    1.491   .     S
C669   C596    1.450   1_655 S
C670   H700    1.076   .     S
C670   C671    1.479   .     S
C670   O718    1.221   .     D
C671   C682    1.416   .     A
C671   N701    1.380   .     A
C672   H686    1.074   .     S
C672   C679    1.476   .     S
C672   O704    1.221   .     D
C673   C680    1.479   .     S
C673   O705    1.221   .     D
C673   H687    1.076   .     S
C674   C681    1.476   .     S
C674   H688    1.074   .     S
C674   O706    1.221   .     D
C675   O707    1.221   .     D
C675   H689    1.084   .     S
C676   H690    1.083   .     S
C676   O708    1.221   .     D
C677   H691    1.084   .     S
C677   O709    1.221   .     D
C678   H692    1.083   .     S
C678   O710    1.221   .     D
C679   N702    1.380   .     A
C679   C683    1.416   .     A
C680   C684    1.416   .     A
C680   N701    1.380   .     A
C681   N702    1.380   .     A
C682   H696    1.081   .     S
C683   H697    1.081   .     S
C684   H698    1.081   .     S
N701   Zn720   2.026   .     S
N702   Zn719   2.026   .     S
O703   Zn719   1.998   .     S
O711   Zn720   1.998   .     S
O712   Zn719   1.998   .     S
O713   Zn720   1.998   .     S
O714   Zn719   1.946   .     S
O715   Zn720   1.946   .     S
O716   Zn719   1.946   .     S
O717   Zn720   1.946   .     S
C721   O785    1.290   .     A
C721   C738    1.432   .     S
C721   O775    1.292   .     A
C722   C726    1.403   .     A
C722   H771    1.081   .     S
C722   C753    1.416   .     A
C723   O789    1.283   .     A
C723   C727    1.364   .     S
C723   O786    1.282   .     A
C724   O787    1.283   .     A
C724   C728    1.364   .     S
C724   O788    1.282   .     A
C725   C754    1.403   .     A
C725   C756    1.403   .     A
C726   C755    1.403   .     A
C726   C581    1.522   1_565 S
C728   C151    1.164   1_556 S
C729   C734    1.388   .     A
C729   H757    1.084   .     S
C729   C740    1.396   .     A
C730   H765    1.084   .     S
C730   C735    1.389   .     A
C730   C741    1.397   .     A
C731   C736    1.388   .     A
C731   C741    1.396   .     A
C731   H766    1.084   .     S
C732   C739    1.432   .     S
C732   O784    1.292   .     A
C732   O783    1.290   .     A
C733   C737    1.389   .     A
C733   H767    1.084   .     S
C733   C740    1.397   .     A
C734   C747    1.489   .     S
C734   C738    1.412   .     A
C735   C739    1.412   .     A
C735   C748    1.491   .     S
C736   C749    1.489   .     S
C736   C739    1.412   .     A
C737   C738    1.412   .     A
C737   C750    1.491   .     S
C740   C813    1.450   1_455 S
C741   C812    1.450   .     S
C742   H772    1.076   .     S
C742   C743    1.479   .     S
C742   O790    1.221   .     D
C743   C754    1.416   .     A
C743   N773    1.380   .     A
C744   H758    1.074   .     S
C744   C751    1.476   .     S
C744   O776    1.221   .     D
C745   C752    1.479   .     S
C745   O777    1.221   .     D
C745   H759    1.076   .     S
C746   C753    1.476   .     S
C746   H760    1.074   .     S
C746   O778    1.221   .     D
C747   O779    1.221   .     D
C747   H761    1.084   .     S
C748   H762    1.083   .     S
C748   O780    1.221   .     D
C749   H763    1.084   .     S
C749   O781    1.221   .     D
C750   H764    1.083   .     S
C750   O782    1.221   .     D
C751   N774    1.380   .     A
C751   C755    1.416   .     A
C752   C756    1.416   .     A
C752   N773    1.380   .     A
C753   N774    1.380   .     A
C754   H768    1.081   .     S
C755   H769    1.081   .     S
C756   H770    1.081   .     S
N773   Zn792   2.026   .     S
N774   Zn791   2.026   .     S
O775   Zn791   1.998   .     S
O783   Zn792   1.998   .     S
O784   Zn791   1.998   .     S
O785   Zn792   1.998   .     S
O786   Zn791   1.946   .     S
O787   Zn792   1.946   .     S
O788   Zn791   1.946   .     S
O789   Zn792   1.946   .     S
C793   O857    1.290   .     A
C793   C810    1.432   .     S
C793   O847    1.292   .     A
C794   C798    1.403   .     A
C794   H843    1.081   .     S
C794   C825    1.416   .     A
C795   O861    1.283   .     A
C795   C799    1.364   .     S
C795   O858    1.282   .     A
C796   O859    1.283   .     A
C796   C800    1.364   .     S
C796   O860    1.282   .     A
C797   C826    1.403   .     A
C797   C828    1.403   .     A
C798   C827    1.403   .     A
C798   C653    1.522   1_565 S
C800   C223    1.164   1_556 S
C801   C806    1.388   .     A
C801   H829    1.084   .     S
C801   C812    1.396   .     A
C802   H837    1.084   .     S
C802   C807    1.389   .     A
C802   C813    1.397   .     A
C803   C808    1.388   .     A
C803   C813    1.396   .     A
C803   H838    1.084   .     S
C804   C811    1.432   .     S
C804   O856    1.292   .     A
C804   O855    1.290   .     A
C805   C809    1.389   .     A
C805   H839    1.084   .     S
C805   C812    1.397   .     A
C806   C819    1.489   .     S
C806   C810    1.412   .     A
C807   C811    1.412   .     A
C807   C820    1.491   .     S
C808   C821    1.489   .     S
C808   C811    1.412   .     A
C809   C810    1.412   .     A
C809   C822    1.491   .     S
C813   C740    1.450   1_655 S
C814   H844    1.076   .     S
C814   C815    1.479   .     S
C814   O862    1.221   .     D
C815   C826    1.416   .     A
C815   N845    1.380   .     A
C816   H830    1.074   .     S
C816   C823    1.476   .     S
C816   O848    1.221   .     D
C817   C824    1.479   .     S
C817   O849    1.221   .     D
C817   H831    1.076   .     S
C818   C825    1.476   .     S
C818   H832    1.074   .     S
C818   O850    1.221   .     D
C819   O851    1.221   .     D
C819   H833    1.084   .     S
C820   H834    1.083   .     S
C820   O852    1.221   .     D
C821   H835    1.084   .     S
C821   O853    1.221   .     D
C822   H836    1.083   .     S
C822   O854    1.221   .     D
C823   N846    1.380   .     A
C823   C827    1.416   .     A
C824   C828    1.416   .     A
C824   N845    1.380   .     A
C825   N846    1.380   .     A
C826   H840    1.081   .     S
C827   H841    1.081   .     S
C828   H842    1.081   .     S
N845   Zn864   2.026   .     S
N846   Zn863   2.026   .     S
O847   Zn863   1.998   .     S
O855   Zn864   1.998   .     S
O856   Zn863   1.998   .     S
O857   Zn864   1.998   .     S
O858   Zn863   1.946   .     S
O859   Zn864   1.946   .     S
O860   Zn863   1.946   .     S
O861   Zn864   1.946   .     S
