data_str_m3_o1_o17_pcu_sym.45
_audit_creation_date              2020-01-03
_audit_creation_method            'Materials Studio'
_symmetry_space_group_name_H-M    'P1'
_symmetry_Int_Tables_number       1
_symmetry_cell_setting            triclinic
loop_
_symmetry_equiv_pos_as_xyz
  x,y,z
_cell_length_a                    32.1275
_cell_length_b                    29.8180
_cell_length_c                    29.9571
_cell_angle_alpha                 90.0178
_cell_angle_beta                  91.2631
_cell_angle_gamma                 90.0127
loop_
_atom_site_label
_atom_site_type_symbol
_atom_site_fract_x
_atom_site_fract_y
_atom_site_fract_z
_atom_site_U_iso_or_equiv
_atom_site_adp_type
_atom_site_occupancy
Br1    Br    0.25558   0.16813   0.37401   0.00000  Uiso   1.00
Br2    Br    0.07775   0.16521   0.12599   0.00000  Uiso   1.00
Br3    Br    0.22988   0.05511   0.31855   0.00000  Uiso   1.00
Br4    Br    0.10346   0.27822   0.18145   0.00000  Uiso   1.00
Br5    Br    0.10340   0.05498   0.18152   0.00000  Uiso   1.00
Br6    Br    0.22993   0.27835   0.31848   0.00000  Uiso   1.00
C7     C     0.08673   0.16666   0.24979   0.00000  Uiso   1.00
C8     C     0.04251   0.16666   0.24964   0.00000  Uiso   1.00
C9     C     0.19272   0.02390   0.27821   0.00000  Uiso   1.00
C10    C     0.14061   0.30943   0.22179   0.00000  Uiso   1.00
C11    C     0.14061   0.02386   0.22180   0.00000  Uiso   1.00
C12    C     0.19273   0.30948   0.27820   0.00000  Uiso   1.00
C13    C     0.16662   0.16667   0.16380   0.00000  Uiso   1.00
C14    C     0.16672   0.16666   0.33620   0.00000  Uiso   1.00
C15    C     0.20413   0.16814   0.40705   0.00000  Uiso   1.00
C16    C     0.12920   0.16519   0.09295   0.00000  Uiso   1.00
C17    C     0.16618   0.16658   0.38384   0.00000  Uiso   1.00
C18    C     0.24661   0.16667   0.25021   0.00000  Uiso   1.00
C19    C     0.16715   0.16676   0.11616   0.00000  Uiso   1.00
C20    C     0.12792   0.16503   0.40530   0.00000  Uiso   1.00
C21    C     0.20541   0.16830   0.09470   0.00000  Uiso   1.00
C22    C     0.12746   0.16259   0.45236   0.00000  Uiso   1.00
C23    C     0.20587   0.17074   0.04764   0.00000  Uiso   1.00
C24    C     0.16621   0.16643   0.47645   0.00000  Uiso   1.00
C25    C     0.16712   0.16690   0.02355   0.00000  Uiso   1.00
C26    C     0.20420   0.16976   0.45354   0.00000  Uiso   1.00
C27    C     0.12913   0.16357   0.04646   0.00000  Uiso   1.00
C28    C     0.09027   0.15663   0.47656   0.00000  Uiso   1.00
C29    C     0.09165   0.15794   0.02269   0.00000  Uiso   1.00
C30    C     0.24305   0.17670   0.02344   0.00000  Uiso   1.00
C31    C     0.09009   0.16849   0.37798   0.00000  Uiso   1.00
C32    C     0.24324   0.16483   0.12202   0.00000  Uiso   1.00
C33    C     0.04996   0.14640   0.45655   0.00000  Uiso   1.00
C34    C     0.28336   0.18694   0.04345   0.00000  Uiso   1.00
C35    C     0.24168   0.17539   0.47731   0.00000  Uiso   1.00
C36    C     0.02129   0.12576   0.25001   0.00000  Uiso   1.00
C37    C     0.31204   0.20757   0.24999   0.00000  Uiso   1.00
C38    C     0.31204   0.12577   0.25034   0.00000  Uiso   1.00
C39    C     0.02129   0.20756   0.24965   0.00000  Uiso   1.00
C40    C     0.29083   0.16667   0.25036   0.00000  Uiso   1.00
H41    H     0.06269   0.15336   0.03986   0.00000  Uiso   1.00
H42    H     0.27064   0.17997   0.46014   0.00000  Uiso   1.00
H43    H     0.03739   0.09385   0.25017   0.00000  Uiso   1.00
H44    H     0.29594   0.23948   0.24982   0.00000  Uiso   1.00
H45    H     0.29593   0.09386   0.25044   0.00000  Uiso   1.00
H46    H     0.03740   0.23947   0.24955   0.00000  Uiso   1.00
N47    N     0.16667   0.28573   0.25000   0.00000  Uiso   1.00
N48    N     0.16667   0.04760   0.25000   0.00000  Uiso   1.00
N49    N     0.06015   0.17147   0.35598   0.00000  Uiso   1.00
N50    N     0.27318   0.16185   0.14401   0.00000  Uiso   1.00
N51    N     0.01754   0.13800   0.44111   0.00000  Uiso   1.00
N52    N     0.31577   0.19533   0.05890   0.00000  Uiso   1.00
O53    O     0.10559   0.20487   0.24999   0.00000  Uiso   1.00
O54    O     0.22774   0.12846   0.25001   0.00000  Uiso   1.00
O55    O     0.22774   0.20487   0.25000   0.00000  Uiso   1.00
O56    O     0.10559   0.12846   0.24999   0.00000  Uiso   1.00
O57    O     0.16666   0.20489   0.18392   0.00000  Uiso   1.00
O58    O     0.16667   0.12844   0.31607   0.00000  Uiso   1.00
O59    O     0.16667   0.20489   0.31607   0.00000  Uiso   1.00
O60    O     0.16666   0.12844   0.18392   0.00000  Uiso   1.00
Zn61   Zn    0.16667   0.21771   0.25000   0.00000  Uiso   1.00
Zn62   Zn    0.16667   0.11563   0.25000   0.00000  Uiso   1.00
Br63   Br    0.58892   0.16813   0.37401   0.00000  Uiso   1.00
Br64   Br    0.41108   0.16521   0.12599   0.00000  Uiso   1.00
Br65   Br    0.56321   0.05511   0.31855   0.00000  Uiso   1.00
Br66   Br    0.43679   0.27822   0.18145   0.00000  Uiso   1.00
Br67   Br    0.43674   0.05498   0.18152   0.00000  Uiso   1.00
Br68   Br    0.56326   0.27835   0.31848   0.00000  Uiso   1.00
C69    C     0.42006   0.16666   0.24979   0.00000  Uiso   1.00
C70    C     0.37584   0.16666   0.24964   0.00000  Uiso   1.00
C71    C     0.52606   0.02390   0.27821   0.00000  Uiso   1.00
C72    C     0.47394   0.30943   0.22179   0.00000  Uiso   1.00
C73    C     0.47394   0.02386   0.22180   0.00000  Uiso   1.00
C74    C     0.52606   0.30948   0.27820   0.00000  Uiso   1.00
C75    C     0.49995   0.16667   0.16380   0.00000  Uiso   1.00
C76    C     0.50005   0.16666   0.33620   0.00000  Uiso   1.00
C77    C     0.53747   0.16814   0.40705   0.00000  Uiso   1.00
C78    C     0.46253   0.16519   0.09295   0.00000  Uiso   1.00
C79    C     0.49951   0.16658   0.38384   0.00000  Uiso   1.00
C80    C     0.57994   0.16667   0.25021   0.00000  Uiso   1.00
C81    C     0.50048   0.16676   0.11616   0.00000  Uiso   1.00
C82    C     0.46125   0.16503   0.40530   0.00000  Uiso   1.00
C83    C     0.53874   0.16830   0.09470   0.00000  Uiso   1.00
C84    C     0.46079   0.16259   0.45236   0.00000  Uiso   1.00
C85    C     0.53920   0.17074   0.04764   0.00000  Uiso   1.00
C86    C     0.49954   0.16643   0.47645   0.00000  Uiso   1.00
C87    C     0.50045   0.16690   0.02355   0.00000  Uiso   1.00
C88    C     0.53753   0.16976   0.45354   0.00000  Uiso   1.00
C89    C     0.46246   0.16357   0.04646   0.00000  Uiso   1.00
C90    C     0.42361   0.15663   0.47656   0.00000  Uiso   1.00
C91    C     0.42498   0.15794   0.02269   0.00000  Uiso   1.00
C92    C     0.57639   0.17670   0.02344   0.00000  Uiso   1.00
C93    C     0.42343   0.16849   0.37798   0.00000  Uiso   1.00
C94    C     0.57657   0.16483   0.12202   0.00000  Uiso   1.00
C95    C     0.38329   0.14640   0.45655   0.00000  Uiso   1.00
C96    C     0.61670   0.18694   0.04345   0.00000  Uiso   1.00
C97    C     0.57501   0.17539   0.47731   0.00000  Uiso   1.00
C98    C     0.35462   0.12576   0.25001   0.00000  Uiso   1.00
C99    C     0.64538   0.20757   0.24999   0.00000  Uiso   1.00
C100   C     0.64538   0.12577   0.25034   0.00000  Uiso   1.00
C101   C     0.35462   0.20756   0.24965   0.00000  Uiso   1.00
C102   C     0.62416   0.16667   0.25036   0.00000  Uiso   1.00
H103   H     0.39602   0.15336   0.03986   0.00000  Uiso   1.00
H104   H     0.60398   0.17997   0.46014   0.00000  Uiso   1.00
H105   H     0.37073   0.09385   0.25017   0.00000  Uiso   1.00
H106   H     0.62927   0.23948   0.24982   0.00000  Uiso   1.00
H107   H     0.62927   0.09386   0.25044   0.00000  Uiso   1.00
H108   H     0.37073   0.23947   0.24955   0.00000  Uiso   1.00
N109   N     0.50000   0.28573   0.25000   0.00000  Uiso   1.00
N110   N     0.50000   0.04760   0.25000   0.00000  Uiso   1.00
N111   N     0.39349   0.17147   0.35598   0.00000  Uiso   1.00
N112   N     0.60651   0.16185   0.14401   0.00000  Uiso   1.00
N113   N     0.35088   0.13800   0.44111   0.00000  Uiso   1.00
N114   N     0.64911   0.19533   0.05890   0.00000  Uiso   1.00
O115   O     0.43892   0.20487   0.24999   0.00000  Uiso   1.00
O116   O     0.56108   0.12846   0.25001   0.00000  Uiso   1.00
O117   O     0.56108   0.20487   0.25000   0.00000  Uiso   1.00
O118   O     0.43892   0.12846   0.24999   0.00000  Uiso   1.00
O119   O     0.49999   0.20489   0.18392   0.00000  Uiso   1.00
O120   O     0.50001   0.12844   0.31607   0.00000  Uiso   1.00
O121   O     0.50001   0.20489   0.31607   0.00000  Uiso   1.00
O122   O     0.49999   0.12844   0.18392   0.00000  Uiso   1.00
Zn123  Zn    0.50000   0.21771   0.25000   0.00000  Uiso   1.00
Zn124  Zn    0.50000   0.11563   0.25000   0.00000  Uiso   1.00
Br125  Br    0.92225   0.16813   0.37401   0.00000  Uiso   1.00
Br126  Br    0.74441   0.16521   0.12599   0.00000  Uiso   1.00
Br127  Br    0.89654   0.05511   0.31855   0.00000  Uiso   1.00
Br128  Br    0.77012   0.27822   0.18145   0.00000  Uiso   1.00
Br129  Br    0.77007   0.05498   0.18152   0.00000  Uiso   1.00
Br130  Br    0.89660   0.27835   0.31848   0.00000  Uiso   1.00
C131   C     0.75339   0.16666   0.24979   0.00000  Uiso   1.00
C132   C     0.70918   0.16666   0.24964   0.00000  Uiso   1.00
C133   C     0.85939   0.02390   0.27821   0.00000  Uiso   1.00
C134   C     0.80728   0.30943   0.22179   0.00000  Uiso   1.00
C135   C     0.80727   0.02386   0.22180   0.00000  Uiso   1.00
C136   C     0.85939   0.30948   0.27820   0.00000  Uiso   1.00
C137   C     0.83328   0.16667   0.16380   0.00000  Uiso   1.00
C138   C     0.83338   0.16666   0.33620   0.00000  Uiso   1.00
C139   C     0.87080   0.16814   0.40705   0.00000  Uiso   1.00
C140   C     0.79586   0.16519   0.09295   0.00000  Uiso   1.00
C141   C     0.83285   0.16658   0.38384   0.00000  Uiso   1.00
C142   C     0.91327   0.16667   0.25021   0.00000  Uiso   1.00
C143   C     0.83382   0.16676   0.11616   0.00000  Uiso   1.00
C144   C     0.79459   0.16503   0.40530   0.00000  Uiso   1.00
C145   C     0.87208   0.16830   0.09470   0.00000  Uiso   1.00
C146   C     0.79413   0.16259   0.45236   0.00000  Uiso   1.00
C147   C     0.87253   0.17074   0.04764   0.00000  Uiso   1.00
C148   C     0.83287   0.16643   0.47645   0.00000  Uiso   1.00
C149   C     0.83379   0.16690   0.02355   0.00000  Uiso   1.00
C150   C     0.87087   0.16976   0.45354   0.00000  Uiso   1.00
C151   C     0.79580   0.16357   0.04646   0.00000  Uiso   1.00
C152   C     0.75694   0.15663   0.47656   0.00000  Uiso   1.00
C153   C     0.75831   0.15794   0.02269   0.00000  Uiso   1.00
C154   C     0.90972   0.17670   0.02344   0.00000  Uiso   1.00
C155   C     0.75676   0.16849   0.37798   0.00000  Uiso   1.00
C156   C     0.90991   0.16483   0.12202   0.00000  Uiso   1.00
C157   C     0.71663   0.14640   0.45655   0.00000  Uiso   1.00
C158   C     0.95003   0.18694   0.04345   0.00000  Uiso   1.00
C159   C     0.90835   0.17539   0.47731   0.00000  Uiso   1.00
C160   C     0.68796   0.12576   0.25001   0.00000  Uiso   1.00
C161   C     0.97871   0.20757   0.24999   0.00000  Uiso   1.00
C162   C     0.97871   0.12577   0.25034   0.00000  Uiso   1.00
C163   C     0.68796   0.20756   0.24965   0.00000  Uiso   1.00
C164   C     0.95749   0.16667   0.25036   0.00000  Uiso   1.00
H165   H     0.72935   0.15336   0.03986   0.00000  Uiso   1.00
H166   H     0.93731   0.17997   0.46014   0.00000  Uiso   1.00
H167   H     0.70406   0.09385   0.25017   0.00000  Uiso   1.00
H168   H     0.96261   0.23948   0.24982   0.00000  Uiso   1.00
H169   H     0.96260   0.09386   0.25044   0.00000  Uiso   1.00
H170   H     0.70407   0.23947   0.24955   0.00000  Uiso   1.00
N171   N     0.83333   0.28573   0.25000   0.00000  Uiso   1.00
N172   N     0.83333   0.04760   0.25000   0.00000  Uiso   1.00
N173   N     0.72682   0.17147   0.35598   0.00000  Uiso   1.00
N174   N     0.93985   0.16185   0.14401   0.00000  Uiso   1.00
N175   N     0.68421   0.13800   0.44111   0.00000  Uiso   1.00
N176   N     0.98244   0.19533   0.05890   0.00000  Uiso   1.00
O177   O     0.77226   0.20487   0.24999   0.00000  Uiso   1.00
O178   O     0.89441   0.12846   0.25001   0.00000  Uiso   1.00
O179   O     0.89441   0.20487   0.25000   0.00000  Uiso   1.00
O180   O     0.77226   0.12846   0.24999   0.00000  Uiso   1.00
O181   O     0.83333   0.20489   0.18392   0.00000  Uiso   1.00
O182   O     0.83334   0.12844   0.31607   0.00000  Uiso   1.00
O183   O     0.83334   0.20489   0.31607   0.00000  Uiso   1.00
O184   O     0.83333   0.12844   0.18392   0.00000  Uiso   1.00
Zn185  Zn    0.83333   0.21771   0.25000   0.00000  Uiso   1.00
Zn186  Zn    0.83333   0.11563   0.25000   0.00000  Uiso   1.00
Br187  Br    0.25558   0.50146   0.37401   0.00000  Uiso   1.00
Br188  Br    0.07775   0.49854   0.12599   0.00000  Uiso   1.00
Br189  Br    0.22988   0.38845   0.31855   0.00000  Uiso   1.00
Br190  Br    0.10346   0.61155   0.18145   0.00000  Uiso   1.00
Br191  Br    0.10340   0.38831   0.18152   0.00000  Uiso   1.00
Br192  Br    0.22993   0.61169   0.31848   0.00000  Uiso   1.00
C193   C     0.08673   0.50000   0.24979   0.00000  Uiso   1.00
C194   C     0.04251   0.49999   0.24964   0.00000  Uiso   1.00
C195   C     0.19272   0.35724   0.27821   0.00000  Uiso   1.00
C196   C     0.14061   0.64276   0.22179   0.00000  Uiso   1.00
C197   C     0.14061   0.35719   0.22180   0.00000  Uiso   1.00
C198   C     0.19273   0.64281   0.27820   0.00000  Uiso   1.00
C199   C     0.16662   0.50001   0.16380   0.00000  Uiso   1.00
C200   C     0.16672   0.49999   0.33620   0.00000  Uiso   1.00
C201   C     0.20413   0.50148   0.40705   0.00000  Uiso   1.00
C202   C     0.12920   0.49853   0.09295   0.00000  Uiso   1.00
C203   C     0.16618   0.49991   0.38384   0.00000  Uiso   1.00
C204   C     0.24661   0.50000   0.25021   0.00000  Uiso   1.00
C205   C     0.16715   0.50009   0.11616   0.00000  Uiso   1.00
C206   C     0.12792   0.49837   0.40530   0.00000  Uiso   1.00
C207   C     0.20541   0.50163   0.09470   0.00000  Uiso   1.00
C208   C     0.12746   0.49592   0.45236   0.00000  Uiso   1.00
C209   C     0.20587   0.50407   0.04764   0.00000  Uiso   1.00
C210   C     0.16621   0.49976   0.47645   0.00000  Uiso   1.00
C211   C     0.16712   0.50024   0.02355   0.00000  Uiso   1.00
C212   C     0.20420   0.50309   0.45354   0.00000  Uiso   1.00
C213   C     0.12913   0.49691   0.04646   0.00000  Uiso   1.00
C214   C     0.09027   0.48996   0.47656   0.00000  Uiso   1.00
C215   C     0.09165   0.49128   0.02269   0.00000  Uiso   1.00
C216   C     0.24305   0.51003   0.02344   0.00000  Uiso   1.00
C217   C     0.09009   0.50183   0.37798   0.00000  Uiso   1.00
C218   C     0.24324   0.49816   0.12202   0.00000  Uiso   1.00
C219   C     0.04996   0.47973   0.45655   0.00000  Uiso   1.00
C220   C     0.28336   0.52027   0.04345   0.00000  Uiso   1.00
C221   C     0.24168   0.50872   0.47731   0.00000  Uiso   1.00
C222   C     0.02129   0.45910   0.25001   0.00000  Uiso   1.00
C223   C     0.31204   0.54090   0.24999   0.00000  Uiso   1.00
C224   C     0.31204   0.45911   0.25034   0.00000  Uiso   1.00
C225   C     0.02129   0.54089   0.24965   0.00000  Uiso   1.00
C226   C     0.29083   0.50001   0.25036   0.00000  Uiso   1.00
H227   H     0.06269   0.48669   0.03986   0.00000  Uiso   1.00
H228   H     0.27064   0.51330   0.46014   0.00000  Uiso   1.00
H229   H     0.03739   0.42718   0.25017   0.00000  Uiso   1.00
H230   H     0.29594   0.57281   0.24982   0.00000  Uiso   1.00
H231   H     0.29593   0.42720   0.25044   0.00000  Uiso   1.00
H232   H     0.03740   0.57280   0.24955   0.00000  Uiso   1.00
N233   N     0.16667   0.61907   0.25000   0.00000  Uiso   1.00
N234   N     0.16667   0.38093   0.25000   0.00000  Uiso   1.00
N235   N     0.06015   0.50480   0.35598   0.00000  Uiso   1.00
N236   N     0.27318   0.49518   0.14401   0.00000  Uiso   1.00
N237   N     0.01754   0.47134   0.44111   0.00000  Uiso   1.00
N238   N     0.31577   0.52867   0.05890   0.00000  Uiso   1.00
O239   O     0.10559   0.53821   0.24999   0.00000  Uiso   1.00
O240   O     0.22774   0.46179   0.25001   0.00000  Uiso   1.00
O241   O     0.22774   0.53821   0.25000   0.00000  Uiso   1.00
O242   O     0.10559   0.46179   0.24999   0.00000  Uiso   1.00
O243   O     0.16666   0.53823   0.18392   0.00000  Uiso   1.00
O244   O     0.16667   0.46177   0.31607   0.00000  Uiso   1.00
O245   O     0.16667   0.53823   0.31607   0.00000  Uiso   1.00
O246   O     0.16666   0.46177   0.18392   0.00000  Uiso   1.00
Zn247  Zn    0.16667   0.55104   0.25000   0.00000  Uiso   1.00
Zn248  Zn    0.16667   0.44896   0.25000   0.00000  Uiso   1.00
Br249  Br    0.58892   0.50146   0.37401   0.00000  Uiso   1.00
Br250  Br    0.41108   0.49854   0.12599   0.00000  Uiso   1.00
Br251  Br    0.56321   0.38845   0.31855   0.00000  Uiso   1.00
Br252  Br    0.43679   0.61155   0.18145   0.00000  Uiso   1.00
Br253  Br    0.43674   0.38831   0.18152   0.00000  Uiso   1.00
Br254  Br    0.56326   0.61169   0.31848   0.00000  Uiso   1.00
C255   C     0.42006   0.50000   0.24979   0.00000  Uiso   1.00
C256   C     0.37584   0.49999   0.24964   0.00000  Uiso   1.00
C257   C     0.52606   0.35724   0.27821   0.00000  Uiso   1.00
C258   C     0.47394   0.64276   0.22179   0.00000  Uiso   1.00
C259   C     0.47394   0.35719   0.22180   0.00000  Uiso   1.00
C260   C     0.52606   0.64281   0.27820   0.00000  Uiso   1.00
C261   C     0.49995   0.50001   0.16380   0.00000  Uiso   1.00
C262   C     0.50005   0.49999   0.33620   0.00000  Uiso   1.00
C263   C     0.53747   0.50148   0.40705   0.00000  Uiso   1.00
C264   C     0.46253   0.49853   0.09295   0.00000  Uiso   1.00
C265   C     0.49951   0.49991   0.38384   0.00000  Uiso   1.00
C266   C     0.57994   0.50000   0.25021   0.00000  Uiso   1.00
C267   C     0.50048   0.50009   0.11616   0.00000  Uiso   1.00
C268   C     0.46125   0.49837   0.40530   0.00000  Uiso   1.00
C269   C     0.53874   0.50163   0.09470   0.00000  Uiso   1.00
C270   C     0.46079   0.49592   0.45236   0.00000  Uiso   1.00
C271   C     0.53920   0.50407   0.04764   0.00000  Uiso   1.00
C272   C     0.49954   0.49976   0.47645   0.00000  Uiso   1.00
C273   C     0.50045   0.50024   0.02355   0.00000  Uiso   1.00
C274   C     0.53753   0.50309   0.45354   0.00000  Uiso   1.00
C275   C     0.46246   0.49691   0.04646   0.00000  Uiso   1.00
C276   C     0.42361   0.48996   0.47656   0.00000  Uiso   1.00
C277   C     0.42498   0.49128   0.02269   0.00000  Uiso   1.00
C278   C     0.57639   0.51003   0.02344   0.00000  Uiso   1.00
C279   C     0.42343   0.50183   0.37798   0.00000  Uiso   1.00
C280   C     0.57657   0.49816   0.12202   0.00000  Uiso   1.00
C281   C     0.38329   0.47973   0.45655   0.00000  Uiso   1.00
C282   C     0.61670   0.52027   0.04345   0.00000  Uiso   1.00
C283   C     0.57501   0.50872   0.47731   0.00000  Uiso   1.00
C284   C     0.35462   0.45910   0.25001   0.00000  Uiso   1.00
C285   C     0.64538   0.54090   0.24999   0.00000  Uiso   1.00
C286   C     0.64538   0.45911   0.25034   0.00000  Uiso   1.00
C287   C     0.35462   0.54089   0.24965   0.00000  Uiso   1.00
C288   C     0.62416   0.50001   0.25036   0.00000  Uiso   1.00
H289   H     0.39602   0.48669   0.03986   0.00000  Uiso   1.00
H290   H     0.60398   0.51330   0.46014   0.00000  Uiso   1.00
H291   H     0.37073   0.42718   0.25017   0.00000  Uiso   1.00
H292   H     0.62927   0.57281   0.24982   0.00000  Uiso   1.00
H293   H     0.62927   0.42720   0.25044   0.00000  Uiso   1.00
H294   H     0.37073   0.57280   0.24955   0.00000  Uiso   1.00
N295   N     0.50000   0.61907   0.25000   0.00000  Uiso   1.00
N296   N     0.50000   0.38093   0.25000   0.00000  Uiso   1.00
N297   N     0.39349   0.50480   0.35598   0.00000  Uiso   1.00
N298   N     0.60651   0.49518   0.14401   0.00000  Uiso   1.00
N299   N     0.35088   0.47134   0.44111   0.00000  Uiso   1.00
N300   N     0.64911   0.52867   0.05890   0.00000  Uiso   1.00
O301   O     0.43892   0.53821   0.24999   0.00000  Uiso   1.00
O302   O     0.56108   0.46179   0.25001   0.00000  Uiso   1.00
O303   O     0.56108   0.53821   0.25000   0.00000  Uiso   1.00
O304   O     0.43892   0.46179   0.24999   0.00000  Uiso   1.00
O305   O     0.49999   0.53823   0.18392   0.00000  Uiso   1.00
O306   O     0.50001   0.46177   0.31607   0.00000  Uiso   1.00
O307   O     0.50001   0.53823   0.31607   0.00000  Uiso   1.00
O308   O     0.49999   0.46177   0.18392   0.00000  Uiso   1.00
Zn309  Zn    0.50000   0.55104   0.25000   0.00000  Uiso   1.00
Zn310  Zn    0.50000   0.44896   0.25000   0.00000  Uiso   1.00
Br311  Br    0.92225   0.50146   0.37401   0.00000  Uiso   1.00
Br312  Br    0.74441   0.49854   0.12599   0.00000  Uiso   1.00
Br313  Br    0.89654   0.38845   0.31855   0.00000  Uiso   1.00
Br314  Br    0.77012   0.61155   0.18145   0.00000  Uiso   1.00
Br315  Br    0.77007   0.38831   0.18152   0.00000  Uiso   1.00
Br316  Br    0.89660   0.61169   0.31848   0.00000  Uiso   1.00
C317   C     0.75339   0.50000   0.24979   0.00000  Uiso   1.00
C318   C     0.70918   0.49999   0.24964   0.00000  Uiso   1.00
C319   C     0.85939   0.35724   0.27821   0.00000  Uiso   1.00
C320   C     0.80728   0.64276   0.22179   0.00000  Uiso   1.00
C321   C     0.80727   0.35719   0.22180   0.00000  Uiso   1.00
C322   C     0.85939   0.64281   0.27820   0.00000  Uiso   1.00
C323   C     0.83328   0.50001   0.16380   0.00000  Uiso   1.00
C324   C     0.83338   0.49999   0.33620   0.00000  Uiso   1.00
C325   C     0.87080   0.50148   0.40705   0.00000  Uiso   1.00
C326   C     0.79586   0.49853   0.09295   0.00000  Uiso   1.00
C327   C     0.83285   0.49991   0.38384   0.00000  Uiso   1.00
C328   C     0.91327   0.50000   0.25021   0.00000  Uiso   1.00
C329   C     0.83382   0.50009   0.11616   0.00000  Uiso   1.00
C330   C     0.79459   0.49837   0.40530   0.00000  Uiso   1.00
C331   C     0.87208   0.50163   0.09470   0.00000  Uiso   1.00
C332   C     0.79413   0.49592   0.45236   0.00000  Uiso   1.00
C333   C     0.87253   0.50407   0.04764   0.00000  Uiso   1.00
C334   C     0.83287   0.49976   0.47645   0.00000  Uiso   1.00
C335   C     0.83379   0.50024   0.02355   0.00000  Uiso   1.00
C336   C     0.87087   0.50309   0.45354   0.00000  Uiso   1.00
C337   C     0.79580   0.49691   0.04646   0.00000  Uiso   1.00
C338   C     0.75694   0.48996   0.47656   0.00000  Uiso   1.00
C339   C     0.75831   0.49128   0.02269   0.00000  Uiso   1.00
C340   C     0.90972   0.51003   0.02344   0.00000  Uiso   1.00
C341   C     0.75676   0.50183   0.37798   0.00000  Uiso   1.00
C342   C     0.90991   0.49816   0.12202   0.00000  Uiso   1.00
C343   C     0.71663   0.47973   0.45655   0.00000  Uiso   1.00
C344   C     0.95003   0.52027   0.04345   0.00000  Uiso   1.00
C345   C     0.90835   0.50872   0.47731   0.00000  Uiso   1.00
C346   C     0.68796   0.45910   0.25001   0.00000  Uiso   1.00
C347   C     0.97871   0.54090   0.24999   0.00000  Uiso   1.00
C348   C     0.97871   0.45911   0.25034   0.00000  Uiso   1.00
C349   C     0.68796   0.54089   0.24965   0.00000  Uiso   1.00
C350   C     0.95749   0.50001   0.25036   0.00000  Uiso   1.00
H351   H     0.72935   0.48669   0.03986   0.00000  Uiso   1.00
H352   H     0.93731   0.51330   0.46014   0.00000  Uiso   1.00
H353   H     0.70406   0.42718   0.25017   0.00000  Uiso   1.00
H354   H     0.96261   0.57281   0.24982   0.00000  Uiso   1.00
H355   H     0.96260   0.42720   0.25044   0.00000  Uiso   1.00
H356   H     0.70407   0.57280   0.24955   0.00000  Uiso   1.00
N357   N     0.83333   0.61907   0.25000   0.00000  Uiso   1.00
N358   N     0.83333   0.38093   0.25000   0.00000  Uiso   1.00
N359   N     0.72682   0.50480   0.35598   0.00000  Uiso   1.00
N360   N     0.93985   0.49518   0.14401   0.00000  Uiso   1.00
N361   N     0.68421   0.47134   0.44111   0.00000  Uiso   1.00
N362   N     0.98244   0.52867   0.05890   0.00000  Uiso   1.00
O363   O     0.77226   0.53821   0.24999   0.00000  Uiso   1.00
O364   O     0.89441   0.46179   0.25001   0.00000  Uiso   1.00
O365   O     0.89441   0.53821   0.25000   0.00000  Uiso   1.00
O366   O     0.77226   0.46179   0.24999   0.00000  Uiso   1.00
O367   O     0.83333   0.53823   0.18392   0.00000  Uiso   1.00
O368   O     0.83334   0.46177   0.31607   0.00000  Uiso   1.00
O369   O     0.83334   0.53823   0.31607   0.00000  Uiso   1.00
O370   O     0.83333   0.46177   0.18392   0.00000  Uiso   1.00
Zn371  Zn    0.83333   0.55104   0.25000   0.00000  Uiso   1.00
Zn372  Zn    0.83333   0.44896   0.25000   0.00000  Uiso   1.00
Br373  Br    0.25558   0.83480   0.37401   0.00000  Uiso   1.00
Br374  Br    0.07775   0.83188   0.12599   0.00000  Uiso   1.00
Br375  Br    0.22988   0.72178   0.31855   0.00000  Uiso   1.00
Br376  Br    0.10346   0.94489   0.18145   0.00000  Uiso   1.00
Br377  Br    0.10340   0.72165   0.18152   0.00000  Uiso   1.00
Br378  Br    0.22993   0.94502   0.31848   0.00000  Uiso   1.00
C379   C     0.08673   0.83333   0.24979   0.00000  Uiso   1.00
C380   C     0.04251   0.83333   0.24964   0.00000  Uiso   1.00
C381   C     0.19272   0.69057   0.27821   0.00000  Uiso   1.00
C382   C     0.14061   0.97609   0.22179   0.00000  Uiso   1.00
C383   C     0.14061   0.69052   0.22180   0.00000  Uiso   1.00
C384   C     0.19273   0.97614   0.27820   0.00000  Uiso   1.00
C385   C     0.16662   0.83334   0.16380   0.00000  Uiso   1.00
C386   C     0.16672   0.83333   0.33620   0.00000  Uiso   1.00
C387   C     0.20413   0.83481   0.40705   0.00000  Uiso   1.00
C388   C     0.12920   0.83186   0.09295   0.00000  Uiso   1.00
C389   C     0.16618   0.83324   0.38384   0.00000  Uiso   1.00
C390   C     0.24661   0.83334   0.25021   0.00000  Uiso   1.00
C391   C     0.16715   0.83342   0.11616   0.00000  Uiso   1.00
C392   C     0.12792   0.83170   0.40530   0.00000  Uiso   1.00
C393   C     0.20541   0.83496   0.09470   0.00000  Uiso   1.00
C394   C     0.12746   0.82926   0.45236   0.00000  Uiso   1.00
C395   C     0.20587   0.83741   0.04764   0.00000  Uiso   1.00
C396   C     0.16621   0.83310   0.47645   0.00000  Uiso   1.00
C397   C     0.16712   0.83357   0.02355   0.00000  Uiso   1.00
C398   C     0.20420   0.83643   0.45354   0.00000  Uiso   1.00
C399   C     0.12913   0.83024   0.04646   0.00000  Uiso   1.00
C400   C     0.09027   0.82330   0.47656   0.00000  Uiso   1.00
C401   C     0.09165   0.82461   0.02269   0.00000  Uiso   1.00
C402   C     0.24305   0.84337   0.02344   0.00000  Uiso   1.00
C403   C     0.09009   0.83516   0.37798   0.00000  Uiso   1.00
C404   C     0.24324   0.83150   0.12202   0.00000  Uiso   1.00
C405   C     0.04996   0.81306   0.45655   0.00000  Uiso   1.00
C406   C     0.28336   0.85361   0.04345   0.00000  Uiso   1.00
C407   C     0.24168   0.84206   0.47731   0.00000  Uiso   1.00
C408   C     0.02129   0.79243   0.25001   0.00000  Uiso   1.00
C409   C     0.31204   0.87423   0.24999   0.00000  Uiso   1.00
C410   C     0.31204   0.79244   0.25034   0.00000  Uiso   1.00
C411   C     0.02129   0.87423   0.24965   0.00000  Uiso   1.00
C412   C     0.29083   0.83334   0.25036   0.00000  Uiso   1.00
H413   H     0.06269   0.82003   0.03986   0.00000  Uiso   1.00
H414   H     0.27064   0.84664   0.46014   0.00000  Uiso   1.00
H415   H     0.03739   0.76052   0.25017   0.00000  Uiso   1.00
H416   H     0.29594   0.90615   0.24982   0.00000  Uiso   1.00
H417   H     0.29593   0.76053   0.25044   0.00000  Uiso   1.00
H418   H     0.03740   0.90614   0.24955   0.00000  Uiso   1.00
N419   N     0.16667   0.95240   0.25000   0.00000  Uiso   1.00
N420   N     0.16667   0.71427   0.25000   0.00000  Uiso   1.00
N421   N     0.06015   0.83814   0.35598   0.00000  Uiso   1.00
N422   N     0.27318   0.82851   0.14401   0.00000  Uiso   1.00
N423   N     0.01754   0.80467   0.44111   0.00000  Uiso   1.00
N424   N     0.31577   0.86200   0.05890   0.00000  Uiso   1.00
O425   O     0.10559   0.87154   0.24999   0.00000  Uiso   1.00
O426   O     0.22774   0.79513   0.25001   0.00000  Uiso   1.00
O427   O     0.22774   0.87154   0.25000   0.00000  Uiso   1.00
O428   O     0.10559   0.79513   0.24999   0.00000  Uiso   1.00
O429   O     0.16666   0.87156   0.18392   0.00000  Uiso   1.00
O430   O     0.16667   0.79511   0.31607   0.00000  Uiso   1.00
O431   O     0.16667   0.87156   0.31607   0.00000  Uiso   1.00
O432   O     0.16666   0.79511   0.18392   0.00000  Uiso   1.00
Zn433  Zn    0.16667   0.88437   0.25000   0.00000  Uiso   1.00
Zn434  Zn    0.16667   0.78229   0.25000   0.00000  Uiso   1.00
Br435  Br    0.58892   0.83480   0.37401   0.00000  Uiso   1.00
Br436  Br    0.41108   0.83188   0.12599   0.00000  Uiso   1.00
Br437  Br    0.56321   0.72178   0.31855   0.00000  Uiso   1.00
Br438  Br    0.43679   0.94489   0.18145   0.00000  Uiso   1.00
Br439  Br    0.43674   0.72165   0.18152   0.00000  Uiso   1.00
Br440  Br    0.56326   0.94502   0.31848   0.00000  Uiso   1.00
C441   C     0.42006   0.83333   0.24979   0.00000  Uiso   1.00
C442   C     0.37584   0.83333   0.24964   0.00000  Uiso   1.00
C443   C     0.52606   0.69057   0.27821   0.00000  Uiso   1.00
C444   C     0.47394   0.97609   0.22179   0.00000  Uiso   1.00
C445   C     0.47394   0.69052   0.22180   0.00000  Uiso   1.00
C446   C     0.52606   0.97614   0.27820   0.00000  Uiso   1.00
C447   C     0.49995   0.83334   0.16380   0.00000  Uiso   1.00
C448   C     0.50005   0.83333   0.33620   0.00000  Uiso   1.00
C449   C     0.53747   0.83481   0.40705   0.00000  Uiso   1.00
C450   C     0.46253   0.83186   0.09295   0.00000  Uiso   1.00
C451   C     0.49951   0.83324   0.38384   0.00000  Uiso   1.00
C452   C     0.57994   0.83334   0.25021   0.00000  Uiso   1.00
C453   C     0.50048   0.83342   0.11616   0.00000  Uiso   1.00
C454   C     0.46125   0.83170   0.40530   0.00000  Uiso   1.00
C455   C     0.53874   0.83496   0.09470   0.00000  Uiso   1.00
C456   C     0.46079   0.82926   0.45236   0.00000  Uiso   1.00
C457   C     0.53920   0.83741   0.04764   0.00000  Uiso   1.00
C458   C     0.49954   0.83310   0.47645   0.00000  Uiso   1.00
C459   C     0.50045   0.83357   0.02355   0.00000  Uiso   1.00
C460   C     0.53753   0.83643   0.45354   0.00000  Uiso   1.00
C461   C     0.46246   0.83024   0.04646   0.00000  Uiso   1.00
C462   C     0.42361   0.82330   0.47656   0.00000  Uiso   1.00
C463   C     0.42498   0.82461   0.02269   0.00000  Uiso   1.00
C464   C     0.57639   0.84337   0.02344   0.00000  Uiso   1.00
C465   C     0.42343   0.83516   0.37798   0.00000  Uiso   1.00
C466   C     0.57657   0.83150   0.12202   0.00000  Uiso   1.00
C467   C     0.38329   0.81306   0.45655   0.00000  Uiso   1.00
C468   C     0.61670   0.85361   0.04345   0.00000  Uiso   1.00
C469   C     0.57501   0.84206   0.47731   0.00000  Uiso   1.00
C470   C     0.35462   0.79243   0.25001   0.00000  Uiso   1.00
C471   C     0.64538   0.87423   0.24999   0.00000  Uiso   1.00
C472   C     0.64538   0.79244   0.25034   0.00000  Uiso   1.00
C473   C     0.35462   0.87423   0.24965   0.00000  Uiso   1.00
C474   C     0.62416   0.83334   0.25036   0.00000  Uiso   1.00
H475   H     0.39602   0.82003   0.03986   0.00000  Uiso   1.00
H476   H     0.60398   0.84664   0.46014   0.00000  Uiso   1.00
H477   H     0.37073   0.76052   0.25017   0.00000  Uiso   1.00
H478   H     0.62927   0.90615   0.24982   0.00000  Uiso   1.00
H479   H     0.62927   0.76053   0.25044   0.00000  Uiso   1.00
H480   H     0.37073   0.90614   0.24955   0.00000  Uiso   1.00
N481   N     0.50000   0.95240   0.25000   0.00000  Uiso   1.00
N482   N     0.50000   0.71427   0.25000   0.00000  Uiso   1.00
N483   N     0.39349   0.83814   0.35598   0.00000  Uiso   1.00
N484   N     0.60651   0.82851   0.14401   0.00000  Uiso   1.00
N485   N     0.35088   0.80467   0.44111   0.00000  Uiso   1.00
N486   N     0.64911   0.86200   0.05890   0.00000  Uiso   1.00
O487   O     0.43892   0.87154   0.24999   0.00000  Uiso   1.00
O488   O     0.56108   0.79513   0.25001   0.00000  Uiso   1.00
O489   O     0.56108   0.87154   0.25000   0.00000  Uiso   1.00
O490   O     0.43892   0.79513   0.24999   0.00000  Uiso   1.00
O491   O     0.49999   0.87156   0.18392   0.00000  Uiso   1.00
O492   O     0.50001   0.79511   0.31607   0.00000  Uiso   1.00
O493   O     0.50001   0.87156   0.31607   0.00000  Uiso   1.00
O494   O     0.49999   0.79511   0.18392   0.00000  Uiso   1.00
Zn495  Zn    0.50000   0.88437   0.25000   0.00000  Uiso   1.00
Zn496  Zn    0.50000   0.78229   0.25000   0.00000  Uiso   1.00
Br497  Br    0.92225   0.83480   0.37401   0.00000  Uiso   1.00
Br498  Br    0.74441   0.83188   0.12599   0.00000  Uiso   1.00
Br499  Br    0.89654   0.72178   0.31855   0.00000  Uiso   1.00
Br500  Br    0.77012   0.94489   0.18145   0.00000  Uiso   1.00
Br501  Br    0.77007   0.72165   0.18152   0.00000  Uiso   1.00
Br502  Br    0.89660   0.94502   0.31848   0.00000  Uiso   1.00
C503   C     0.75339   0.83333   0.24979   0.00000  Uiso   1.00
C504   C     0.70918   0.83333   0.24964   0.00000  Uiso   1.00
C505   C     0.85939   0.69057   0.27821   0.00000  Uiso   1.00
C506   C     0.80728   0.97609   0.22179   0.00000  Uiso   1.00
C507   C     0.80727   0.69052   0.22180   0.00000  Uiso   1.00
C508   C     0.85939   0.97614   0.27820   0.00000  Uiso   1.00
C509   C     0.83328   0.83334   0.16380   0.00000  Uiso   1.00
C510   C     0.83338   0.83333   0.33620   0.00000  Uiso   1.00
C511   C     0.87080   0.83481   0.40705   0.00000  Uiso   1.00
C512   C     0.79586   0.83186   0.09295   0.00000  Uiso   1.00
C513   C     0.83285   0.83324   0.38384   0.00000  Uiso   1.00
C514   C     0.91327   0.83334   0.25021   0.00000  Uiso   1.00
C515   C     0.83382   0.83342   0.11616   0.00000  Uiso   1.00
C516   C     0.79459   0.83170   0.40530   0.00000  Uiso   1.00
C517   C     0.87208   0.83496   0.09470   0.00000  Uiso   1.00
C518   C     0.79413   0.82926   0.45236   0.00000  Uiso   1.00
C519   C     0.87253   0.83741   0.04764   0.00000  Uiso   1.00
C520   C     0.83287   0.83310   0.47645   0.00000  Uiso   1.00
C521   C     0.83379   0.83357   0.02355   0.00000  Uiso   1.00
C522   C     0.87087   0.83643   0.45354   0.00000  Uiso   1.00
C523   C     0.79580   0.83024   0.04646   0.00000  Uiso   1.00
C524   C     0.75694   0.82330   0.47656   0.00000  Uiso   1.00
C525   C     0.75831   0.82461   0.02269   0.00000  Uiso   1.00
C526   C     0.90972   0.84337   0.02344   0.00000  Uiso   1.00
C527   C     0.75676   0.83516   0.37798   0.00000  Uiso   1.00
C528   C     0.90991   0.83150   0.12202   0.00000  Uiso   1.00
C529   C     0.71663   0.81306   0.45655   0.00000  Uiso   1.00
C530   C     0.95003   0.85361   0.04345   0.00000  Uiso   1.00
C531   C     0.90835   0.84206   0.47731   0.00000  Uiso   1.00
C532   C     0.68796   0.79243   0.25001   0.00000  Uiso   1.00
C533   C     0.97871   0.87423   0.24999   0.00000  Uiso   1.00
C534   C     0.97871   0.79244   0.25034   0.00000  Uiso   1.00
C535   C     0.68796   0.87423   0.24965   0.00000  Uiso   1.00
C536   C     0.95749   0.83334   0.25036   0.00000  Uiso   1.00
H537   H     0.72935   0.82003   0.03986   0.00000  Uiso   1.00
H538   H     0.93731   0.84664   0.46014   0.00000  Uiso   1.00
H539   H     0.70406   0.76052   0.25017   0.00000  Uiso   1.00
H540   H     0.96261   0.90615   0.24982   0.00000  Uiso   1.00
H541   H     0.96260   0.76053   0.25044   0.00000  Uiso   1.00
H542   H     0.70407   0.90614   0.24955   0.00000  Uiso   1.00
N543   N     0.83333   0.95240   0.25000   0.00000  Uiso   1.00
N544   N     0.83333   0.71427   0.25000   0.00000  Uiso   1.00
N545   N     0.72682   0.83814   0.35598   0.00000  Uiso   1.00
N546   N     0.93985   0.82851   0.14401   0.00000  Uiso   1.00
N547   N     0.68421   0.80467   0.44111   0.00000  Uiso   1.00
N548   N     0.98244   0.86200   0.05890   0.00000  Uiso   1.00
O549   O     0.77226   0.87154   0.24999   0.00000  Uiso   1.00
O550   O     0.89441   0.79513   0.25001   0.00000  Uiso   1.00
O551   O     0.89441   0.87154   0.25000   0.00000  Uiso   1.00
O552   O     0.77226   0.79513   0.24999   0.00000  Uiso   1.00
O553   O     0.83333   0.87156   0.18392   0.00000  Uiso   1.00
O554   O     0.83334   0.79511   0.31607   0.00000  Uiso   1.00
O555   O     0.83334   0.87156   0.31607   0.00000  Uiso   1.00
O556   O     0.83333   0.79511   0.18392   0.00000  Uiso   1.00
Zn557  Zn    0.83333   0.88437   0.25000   0.00000  Uiso   1.00
Zn558  Zn    0.83333   0.78229   0.25000   0.00000  Uiso   1.00
Br559  Br    0.25558   0.16813   0.87401   0.00000  Uiso   1.00
Br560  Br    0.07775   0.16521   0.62599   0.00000  Uiso   1.00
Br561  Br    0.22988   0.05511   0.81855   0.00000  Uiso   1.00
Br562  Br    0.10346   0.27822   0.68145   0.00000  Uiso   1.00
Br563  Br    0.10340   0.05498   0.68152   0.00000  Uiso   1.00
Br564  Br    0.22993   0.27835   0.81848   0.00000  Uiso   1.00
C565   C     0.08673   0.16666   0.74979   0.00000  Uiso   1.00
C566   C     0.04251   0.16666   0.74964   0.00000  Uiso   1.00
C567   C     0.19272   0.02390   0.77821   0.00000  Uiso   1.00
C568   C     0.14061   0.30943   0.72179   0.00000  Uiso   1.00
C569   C     0.14061   0.02386   0.72180   0.00000  Uiso   1.00
C570   C     0.19273   0.30948   0.77820   0.00000  Uiso   1.00
C571   C     0.16662   0.16667   0.66380   0.00000  Uiso   1.00
C572   C     0.16672   0.16666   0.83620   0.00000  Uiso   1.00
C573   C     0.20413   0.16814   0.90705   0.00000  Uiso   1.00
C574   C     0.12920   0.16519   0.59295   0.00000  Uiso   1.00
C575   C     0.16618   0.16658   0.88384   0.00000  Uiso   1.00
C576   C     0.24661   0.16667   0.75021   0.00000  Uiso   1.00
C577   C     0.16715   0.16676   0.61616   0.00000  Uiso   1.00
C578   C     0.12792   0.16503   0.90530   0.00000  Uiso   1.00
C579   C     0.20541   0.16830   0.59470   0.00000  Uiso   1.00
C580   C     0.12746   0.16259   0.95236   0.00000  Uiso   1.00
C581   C     0.20587   0.17074   0.54764   0.00000  Uiso   1.00
C582   C     0.16621   0.16643   0.97645   0.00000  Uiso   1.00
C583   C     0.16712   0.16690   0.52355   0.00000  Uiso   1.00
C584   C     0.20420   0.16976   0.95354   0.00000  Uiso   1.00
C585   C     0.12913   0.16357   0.54646   0.00000  Uiso   1.00
C586   C     0.09027   0.15663   0.97656   0.00000  Uiso   1.00
C587   C     0.09165   0.15794   0.52269   0.00000  Uiso   1.00
C588   C     0.24305   0.17670   0.52344   0.00000  Uiso   1.00
C589   C     0.09009   0.16849   0.87798   0.00000  Uiso   1.00
C590   C     0.24324   0.16483   0.62202   0.00000  Uiso   1.00
C591   C     0.04996   0.14640   0.95655   0.00000  Uiso   1.00
C592   C     0.28336   0.18694   0.54345   0.00000  Uiso   1.00
C593   C     0.24168   0.17539   0.97731   0.00000  Uiso   1.00
C594   C     0.02129   0.12576   0.75001   0.00000  Uiso   1.00
C595   C     0.31204   0.20757   0.74999   0.00000  Uiso   1.00
C596   C     0.31204   0.12577   0.75034   0.00000  Uiso   1.00
C597   C     0.02129   0.20756   0.74965   0.00000  Uiso   1.00
C598   C     0.29083   0.16667   0.75036   0.00000  Uiso   1.00
H599   H     0.06269   0.15336   0.53986   0.00000  Uiso   1.00
H600   H     0.27064   0.17997   0.96014   0.00000  Uiso   1.00
H601   H     0.03739   0.09385   0.75017   0.00000  Uiso   1.00
H602   H     0.29594   0.23948   0.74982   0.00000  Uiso   1.00
H603   H     0.29593   0.09386   0.75044   0.00000  Uiso   1.00
H604   H     0.03740   0.23947   0.74955   0.00000  Uiso   1.00
N605   N     0.16667   0.28573   0.75000   0.00000  Uiso   1.00
N606   N     0.16667   0.04760   0.75000   0.00000  Uiso   1.00
N607   N     0.06015   0.17147   0.85598   0.00000  Uiso   1.00
N608   N     0.27318   0.16185   0.64401   0.00000  Uiso   1.00
N609   N     0.01754   0.13800   0.94111   0.00000  Uiso   1.00
N610   N     0.31577   0.19533   0.55890   0.00000  Uiso   1.00
O611   O     0.10559   0.20487   0.74999   0.00000  Uiso   1.00
O612   O     0.22774   0.12846   0.75001   0.00000  Uiso   1.00
O613   O     0.22774   0.20487   0.75000   0.00000  Uiso   1.00
O614   O     0.10559   0.12846   0.74999   0.00000  Uiso   1.00
O615   O     0.16666   0.20489   0.68392   0.00000  Uiso   1.00
O616   O     0.16667   0.12844   0.81607   0.00000  Uiso   1.00
O617   O     0.16667   0.20489   0.81607   0.00000  Uiso   1.00
O618   O     0.16666   0.12844   0.68392   0.00000  Uiso   1.00
Zn619  Zn    0.16667   0.21771   0.75000   0.00000  Uiso   1.00
Zn620  Zn    0.16667   0.11563   0.75000   0.00000  Uiso   1.00
Br621  Br    0.58892   0.16813   0.87401   0.00000  Uiso   1.00
Br622  Br    0.41108   0.16521   0.62599   0.00000  Uiso   1.00
Br623  Br    0.56321   0.05511   0.81855   0.00000  Uiso   1.00
Br624  Br    0.43679   0.27822   0.68145   0.00000  Uiso   1.00
Br625  Br    0.43674   0.05498   0.68152   0.00000  Uiso   1.00
Br626  Br    0.56326   0.27835   0.81848   0.00000  Uiso   1.00
C627   C     0.42006   0.16666   0.74979   0.00000  Uiso   1.00
C628   C     0.37584   0.16666   0.74964   0.00000  Uiso   1.00
C629   C     0.52606   0.02390   0.77821   0.00000  Uiso   1.00
C630   C     0.47394   0.30943   0.72179   0.00000  Uiso   1.00
C631   C     0.47394   0.02386   0.72180   0.00000  Uiso   1.00
C632   C     0.52606   0.30948   0.77820   0.00000  Uiso   1.00
C633   C     0.49995   0.16667   0.66380   0.00000  Uiso   1.00
C634   C     0.50005   0.16666   0.83620   0.00000  Uiso   1.00
C635   C     0.53747   0.16814   0.90705   0.00000  Uiso   1.00
C636   C     0.46253   0.16519   0.59295   0.00000  Uiso   1.00
C637   C     0.49951   0.16658   0.88384   0.00000  Uiso   1.00
C638   C     0.57994   0.16667   0.75021   0.00000  Uiso   1.00
C639   C     0.50048   0.16676   0.61616   0.00000  Uiso   1.00
C640   C     0.46125   0.16503   0.90530   0.00000  Uiso   1.00
C641   C     0.53874   0.16830   0.59470   0.00000  Uiso   1.00
C642   C     0.46079   0.16259   0.95236   0.00000  Uiso   1.00
C643   C     0.53920   0.17074   0.54764   0.00000  Uiso   1.00
C644   C     0.49954   0.16643   0.97645   0.00000  Uiso   1.00
C645   C     0.50045   0.16690   0.52355   0.00000  Uiso   1.00
C646   C     0.53753   0.16976   0.95354   0.00000  Uiso   1.00
C647   C     0.46246   0.16357   0.54646   0.00000  Uiso   1.00
C648   C     0.42361   0.15663   0.97656   0.00000  Uiso   1.00
C649   C     0.42498   0.15794   0.52269   0.00000  Uiso   1.00
C650   C     0.57639   0.17670   0.52344   0.00000  Uiso   1.00
C651   C     0.42343   0.16849   0.87798   0.00000  Uiso   1.00
C652   C     0.57657   0.16483   0.62202   0.00000  Uiso   1.00
C653   C     0.38329   0.14640   0.95655   0.00000  Uiso   1.00
C654   C     0.61670   0.18694   0.54345   0.00000  Uiso   1.00
C655   C     0.57501   0.17539   0.97731   0.00000  Uiso   1.00
C656   C     0.35462   0.12576   0.75001   0.00000  Uiso   1.00
C657   C     0.64538   0.20757   0.74999   0.00000  Uiso   1.00
C658   C     0.64538   0.12577   0.75034   0.00000  Uiso   1.00
C659   C     0.35462   0.20756   0.74965   0.00000  Uiso   1.00
C660   C     0.62416   0.16667   0.75036   0.00000  Uiso   1.00
H661   H     0.39602   0.15336   0.53986   0.00000  Uiso   1.00
H662   H     0.60398   0.17997   0.96014   0.00000  Uiso   1.00
H663   H     0.37073   0.09385   0.75017   0.00000  Uiso   1.00
H664   H     0.62927   0.23948   0.74982   0.00000  Uiso   1.00
H665   H     0.62927   0.09386   0.75044   0.00000  Uiso   1.00
H666   H     0.37073   0.23947   0.74955   0.00000  Uiso   1.00
N667   N     0.50000   0.28573   0.75000   0.00000  Uiso   1.00
N668   N     0.50000   0.04760   0.75000   0.00000  Uiso   1.00
N669   N     0.39349   0.17147   0.85598   0.00000  Uiso   1.00
N670   N     0.60651   0.16185   0.64401   0.00000  Uiso   1.00
N671   N     0.35088   0.13800   0.94111   0.00000  Uiso   1.00
N672   N     0.64911   0.19533   0.55890   0.00000  Uiso   1.00
O673   O     0.43892   0.20487   0.74999   0.00000  Uiso   1.00
O674   O     0.56108   0.12846   0.75001   0.00000  Uiso   1.00
O675   O     0.56108   0.20487   0.75000   0.00000  Uiso   1.00
O676   O     0.43892   0.12846   0.74999   0.00000  Uiso   1.00
O677   O     0.49999   0.20489   0.68392   0.00000  Uiso   1.00
O678   O     0.50001   0.12844   0.81607   0.00000  Uiso   1.00
O679   O     0.50001   0.20489   0.81607   0.00000  Uiso   1.00
O680   O     0.49999   0.12844   0.68392   0.00000  Uiso   1.00
Zn681  Zn    0.50000   0.21771   0.75000   0.00000  Uiso   1.00
Zn682  Zn    0.50000   0.11563   0.75000   0.00000  Uiso   1.00
Br683  Br    0.92225   0.16813   0.87401   0.00000  Uiso   1.00
Br684  Br    0.74441   0.16521   0.62599   0.00000  Uiso   1.00
Br685  Br    0.89654   0.05511   0.81855   0.00000  Uiso   1.00
Br686  Br    0.77012   0.27822   0.68145   0.00000  Uiso   1.00
Br687  Br    0.77007   0.05498   0.68152   0.00000  Uiso   1.00
Br688  Br    0.89660   0.27835   0.81848   0.00000  Uiso   1.00
C689   C     0.75339   0.16666   0.74979   0.00000  Uiso   1.00
C690   C     0.70918   0.16666   0.74964   0.00000  Uiso   1.00
C691   C     0.85939   0.02390   0.77821   0.00000  Uiso   1.00
C692   C     0.80728   0.30943   0.72179   0.00000  Uiso   1.00
C693   C     0.80727   0.02386   0.72180   0.00000  Uiso   1.00
C694   C     0.85939   0.30948   0.77820   0.00000  Uiso   1.00
C695   C     0.83328   0.16667   0.66380   0.00000  Uiso   1.00
C696   C     0.83338   0.16666   0.83620   0.00000  Uiso   1.00
C697   C     0.87080   0.16814   0.90705   0.00000  Uiso   1.00
C698   C     0.79586   0.16519   0.59295   0.00000  Uiso   1.00
C699   C     0.83285   0.16658   0.88384   0.00000  Uiso   1.00
C700   C     0.91327   0.16667   0.75021   0.00000  Uiso   1.00
C701   C     0.83382   0.16676   0.61616   0.00000  Uiso   1.00
C702   C     0.79459   0.16503   0.90530   0.00000  Uiso   1.00
C703   C     0.87208   0.16830   0.59470   0.00000  Uiso   1.00
C704   C     0.79413   0.16259   0.95236   0.00000  Uiso   1.00
C705   C     0.87253   0.17074   0.54764   0.00000  Uiso   1.00
C706   C     0.83287   0.16643   0.97645   0.00000  Uiso   1.00
C707   C     0.83379   0.16690   0.52355   0.00000  Uiso   1.00
C708   C     0.87087   0.16976   0.95354   0.00000  Uiso   1.00
C709   C     0.79580   0.16357   0.54646   0.00000  Uiso   1.00
C710   C     0.75694   0.15663   0.97656   0.00000  Uiso   1.00
C711   C     0.75831   0.15794   0.52269   0.00000  Uiso   1.00
C712   C     0.90972   0.17670   0.52344   0.00000  Uiso   1.00
C713   C     0.75676   0.16849   0.87798   0.00000  Uiso   1.00
C714   C     0.90991   0.16483   0.62202   0.00000  Uiso   1.00
C715   C     0.71663   0.14640   0.95655   0.00000  Uiso   1.00
C716   C     0.95003   0.18694   0.54345   0.00000  Uiso   1.00
C717   C     0.90835   0.17539   0.97731   0.00000  Uiso   1.00
C718   C     0.68796   0.12576   0.75001   0.00000  Uiso   1.00
C719   C     0.97871   0.20757   0.74999   0.00000  Uiso   1.00
C720   C     0.97871   0.12577   0.75034   0.00000  Uiso   1.00
C721   C     0.68796   0.20756   0.74965   0.00000  Uiso   1.00
C722   C     0.95749   0.16667   0.75036   0.00000  Uiso   1.00
H723   H     0.72935   0.15336   0.53986   0.00000  Uiso   1.00
H724   H     0.93731   0.17997   0.96014   0.00000  Uiso   1.00
H725   H     0.70406   0.09385   0.75017   0.00000  Uiso   1.00
H726   H     0.96261   0.23948   0.74982   0.00000  Uiso   1.00
H727   H     0.96260   0.09386   0.75044   0.00000  Uiso   1.00
H728   H     0.70407   0.23947   0.74955   0.00000  Uiso   1.00
N729   N     0.83333   0.28573   0.75000   0.00000  Uiso   1.00
N730   N     0.83333   0.04760   0.75000   0.00000  Uiso   1.00
N731   N     0.72682   0.17147   0.85598   0.00000  Uiso   1.00
N732   N     0.93985   0.16185   0.64401   0.00000  Uiso   1.00
N733   N     0.68421   0.13800   0.94111   0.00000  Uiso   1.00
N734   N     0.98244   0.19533   0.55890   0.00000  Uiso   1.00
O735   O     0.77226   0.20487   0.74999   0.00000  Uiso   1.00
O736   O     0.89441   0.12846   0.75001   0.00000  Uiso   1.00
O737   O     0.89441   0.20487   0.75000   0.00000  Uiso   1.00
O738   O     0.77226   0.12846   0.74999   0.00000  Uiso   1.00
O739   O     0.83333   0.20489   0.68392   0.00000  Uiso   1.00
O740   O     0.83334   0.12844   0.81607   0.00000  Uiso   1.00
O741   O     0.83334   0.20489   0.81607   0.00000  Uiso   1.00
O742   O     0.83333   0.12844   0.68392   0.00000  Uiso   1.00
Zn743  Zn    0.83333   0.21771   0.75000   0.00000  Uiso   1.00
Zn744  Zn    0.83333   0.11563   0.75000   0.00000  Uiso   1.00
Br745  Br    0.25558   0.50146   0.87401   0.00000  Uiso   1.00
Br746  Br    0.07775   0.49854   0.62599   0.00000  Uiso   1.00
Br747  Br    0.22988   0.38845   0.81855   0.00000  Uiso   1.00
Br748  Br    0.10346   0.61155   0.68145   0.00000  Uiso   1.00
Br749  Br    0.10340   0.38831   0.68152   0.00000  Uiso   1.00
Br750  Br    0.22993   0.61169   0.81848   0.00000  Uiso   1.00
C751   C     0.08673   0.50000   0.74979   0.00000  Uiso   1.00
C752   C     0.04251   0.49999   0.74964   0.00000  Uiso   1.00
C753   C     0.19272   0.35724   0.77821   0.00000  Uiso   1.00
C754   C     0.14061   0.64276   0.72179   0.00000  Uiso   1.00
C755   C     0.14061   0.35719   0.72180   0.00000  Uiso   1.00
C756   C     0.19273   0.64281   0.77820   0.00000  Uiso   1.00
C757   C     0.16662   0.50001   0.66380   0.00000  Uiso   1.00
C758   C     0.16672   0.49999   0.83620   0.00000  Uiso   1.00
C759   C     0.20413   0.50148   0.90705   0.00000  Uiso   1.00
C760   C     0.12920   0.49853   0.59295   0.00000  Uiso   1.00
C761   C     0.16618   0.49991   0.88384   0.00000  Uiso   1.00
C762   C     0.24661   0.50000   0.75021   0.00000  Uiso   1.00
C763   C     0.16715   0.50009   0.61616   0.00000  Uiso   1.00
C764   C     0.12792   0.49837   0.90530   0.00000  Uiso   1.00
C765   C     0.20541   0.50163   0.59470   0.00000  Uiso   1.00
C766   C     0.12746   0.49592   0.95236   0.00000  Uiso   1.00
C767   C     0.20587   0.50407   0.54764   0.00000  Uiso   1.00
C768   C     0.16621   0.49976   0.97645   0.00000  Uiso   1.00
C769   C     0.16712   0.50024   0.52355   0.00000  Uiso   1.00
C770   C     0.20420   0.50309   0.95354   0.00000  Uiso   1.00
C771   C     0.12913   0.49691   0.54646   0.00000  Uiso   1.00
C772   C     0.09027   0.48996   0.97656   0.00000  Uiso   1.00
C773   C     0.09165   0.49128   0.52269   0.00000  Uiso   1.00
C774   C     0.24305   0.51003   0.52344   0.00000  Uiso   1.00
C775   C     0.09009   0.50183   0.87798   0.00000  Uiso   1.00
C776   C     0.24324   0.49816   0.62202   0.00000  Uiso   1.00
C777   C     0.04996   0.47973   0.95655   0.00000  Uiso   1.00
C778   C     0.28336   0.52027   0.54345   0.00000  Uiso   1.00
C779   C     0.24168   0.50872   0.97731   0.00000  Uiso   1.00
C780   C     0.02129   0.45910   0.75001   0.00000  Uiso   1.00
C781   C     0.31204   0.54090   0.74999   0.00000  Uiso   1.00
C782   C     0.31204   0.45911   0.75034   0.00000  Uiso   1.00
C783   C     0.02129   0.54089   0.74965   0.00000  Uiso   1.00
C784   C     0.29083   0.50001   0.75036   0.00000  Uiso   1.00
H785   H     0.06269   0.48669   0.53986   0.00000  Uiso   1.00
H786   H     0.27064   0.51330   0.96014   0.00000  Uiso   1.00
H787   H     0.03739   0.42718   0.75017   0.00000  Uiso   1.00
H788   H     0.29594   0.57281   0.74982   0.00000  Uiso   1.00
H789   H     0.29593   0.42720   0.75044   0.00000  Uiso   1.00
H790   H     0.03740   0.57280   0.74955   0.00000  Uiso   1.00
N791   N     0.16667   0.61907   0.75000   0.00000  Uiso   1.00
N792   N     0.16667   0.38093   0.75000   0.00000  Uiso   1.00
N793   N     0.06015   0.50480   0.85598   0.00000  Uiso   1.00
N794   N     0.27318   0.49518   0.64401   0.00000  Uiso   1.00
N795   N     0.01754   0.47134   0.94111   0.00000  Uiso   1.00
N796   N     0.31577   0.52867   0.55890   0.00000  Uiso   1.00
O797   O     0.10559   0.53821   0.74999   0.00000  Uiso   1.00
O798   O     0.22774   0.46179   0.75001   0.00000  Uiso   1.00
O799   O     0.22774   0.53821   0.75000   0.00000  Uiso   1.00
O800   O     0.10559   0.46179   0.74999   0.00000  Uiso   1.00
O801   O     0.16666   0.53823   0.68392   0.00000  Uiso   1.00
O802   O     0.16667   0.46177   0.81607   0.00000  Uiso   1.00
O803   O     0.16667   0.53823   0.81607   0.00000  Uiso   1.00
O804   O     0.16666   0.46177   0.68392   0.00000  Uiso   1.00
Zn805  Zn    0.16667   0.55104   0.75000   0.00000  Uiso   1.00
Zn806  Zn    0.16667   0.44896   0.75000   0.00000  Uiso   1.00
Br807  Br    0.58892   0.50146   0.87401   0.00000  Uiso   1.00
Br808  Br    0.41108   0.49854   0.62599   0.00000  Uiso   1.00
Br809  Br    0.56321   0.38845   0.81855   0.00000  Uiso   1.00
Br810  Br    0.43679   0.61155   0.68145   0.00000  Uiso   1.00
Br811  Br    0.43674   0.38831   0.68152   0.00000  Uiso   1.00
Br812  Br    0.56326   0.61169   0.81848   0.00000  Uiso   1.00
C813   C     0.42006   0.50000   0.74979   0.00000  Uiso   1.00
C814   C     0.37584   0.49999   0.74964   0.00000  Uiso   1.00
C815   C     0.52606   0.35724   0.77821   0.00000  Uiso   1.00
C816   C     0.47394   0.64276   0.72179   0.00000  Uiso   1.00
C817   C     0.47394   0.35719   0.72180   0.00000  Uiso   1.00
C818   C     0.52606   0.64281   0.77820   0.00000  Uiso   1.00
C819   C     0.49995   0.50001   0.66380   0.00000  Uiso   1.00
C820   C     0.50005   0.49999   0.83620   0.00000  Uiso   1.00
C821   C     0.53747   0.50148   0.90705   0.00000  Uiso   1.00
C822   C     0.46253   0.49853   0.59295   0.00000  Uiso   1.00
C823   C     0.49951   0.49991   0.88384   0.00000  Uiso   1.00
C824   C     0.57994   0.50000   0.75021   0.00000  Uiso   1.00
C825   C     0.50048   0.50009   0.61616   0.00000  Uiso   1.00
C826   C     0.46125   0.49837   0.90530   0.00000  Uiso   1.00
C827   C     0.53874   0.50163   0.59470   0.00000  Uiso   1.00
C828   C     0.46079   0.49592   0.95236   0.00000  Uiso   1.00
C829   C     0.53920   0.50407   0.54764   0.00000  Uiso   1.00
C830   C     0.49954   0.49976   0.97645   0.00000  Uiso   1.00
C831   C     0.50045   0.50024   0.52355   0.00000  Uiso   1.00
C832   C     0.53753   0.50309   0.95354   0.00000  Uiso   1.00
C833   C     0.46246   0.49691   0.54646   0.00000  Uiso   1.00
C834   C     0.42361   0.48996   0.97656   0.00000  Uiso   1.00
C835   C     0.42498   0.49128   0.52269   0.00000  Uiso   1.00
C836   C     0.57639   0.51003   0.52344   0.00000  Uiso   1.00
C837   C     0.42343   0.50183   0.87798   0.00000  Uiso   1.00
C838   C     0.57657   0.49816   0.62202   0.00000  Uiso   1.00
C839   C     0.38329   0.47973   0.95655   0.00000  Uiso   1.00
C840   C     0.61670   0.52027   0.54345   0.00000  Uiso   1.00
C841   C     0.57501   0.50872   0.97731   0.00000  Uiso   1.00
C842   C     0.35462   0.45910   0.75001   0.00000  Uiso   1.00
C843   C     0.64538   0.54090   0.74999   0.00000  Uiso   1.00
C844   C     0.64538   0.45911   0.75034   0.00000  Uiso   1.00
C845   C     0.35462   0.54089   0.74965   0.00000  Uiso   1.00
C846   C     0.62416   0.50001   0.75036   0.00000  Uiso   1.00
H847   H     0.39602   0.48669   0.53986   0.00000  Uiso   1.00
H848   H     0.60398   0.51330   0.96014   0.00000  Uiso   1.00
H849   H     0.37073   0.42718   0.75017   0.00000  Uiso   1.00
H850   H     0.62927   0.57281   0.74982   0.00000  Uiso   1.00
H851   H     0.62927   0.42720   0.75044   0.00000  Uiso   1.00
H852   H     0.37073   0.57280   0.74955   0.00000  Uiso   1.00
N853   N     0.50000   0.61907   0.75000   0.00000  Uiso   1.00
N854   N     0.50000   0.38093   0.75000   0.00000  Uiso   1.00
N855   N     0.39349   0.50480   0.85598   0.00000  Uiso   1.00
N856   N     0.60651   0.49518   0.64401   0.00000  Uiso   1.00
N857   N     0.35088   0.47134   0.94111   0.00000  Uiso   1.00
N858   N     0.64911   0.52867   0.55890   0.00000  Uiso   1.00
O859   O     0.43892   0.53821   0.74999   0.00000  Uiso   1.00
O860   O     0.56108   0.46179   0.75001   0.00000  Uiso   1.00
O861   O     0.56108   0.53821   0.75000   0.00000  Uiso   1.00
O862   O     0.43892   0.46179   0.74999   0.00000  Uiso   1.00
O863   O     0.49999   0.53823   0.68392   0.00000  Uiso   1.00
O864   O     0.50001   0.46177   0.81607   0.00000  Uiso   1.00
O865   O     0.50001   0.53823   0.81607   0.00000  Uiso   1.00
O866   O     0.49999   0.46177   0.68392   0.00000  Uiso   1.00
Zn867  Zn    0.50000   0.55104   0.75000   0.00000  Uiso   1.00
Zn868  Zn    0.50000   0.44896   0.75000   0.00000  Uiso   1.00
Br869  Br    0.92225   0.50146   0.87401   0.00000  Uiso   1.00
Br870  Br    0.74441   0.49854   0.62599   0.00000  Uiso   1.00
Br871  Br    0.89654   0.38845   0.81855   0.00000  Uiso   1.00
Br872  Br    0.77012   0.61155   0.68145   0.00000  Uiso   1.00
Br873  Br    0.77007   0.38831   0.68152   0.00000  Uiso   1.00
Br874  Br    0.89660   0.61169   0.81848   0.00000  Uiso   1.00
C875   C     0.75339   0.50000   0.74979   0.00000  Uiso   1.00
C876   C     0.70918   0.49999   0.74964   0.00000  Uiso   1.00
C877   C     0.85939   0.35724   0.77821   0.00000  Uiso   1.00
C878   C     0.80728   0.64276   0.72179   0.00000  Uiso   1.00
C879   C     0.80727   0.35719   0.72180   0.00000  Uiso   1.00
C880   C     0.85939   0.64281   0.77820   0.00000  Uiso   1.00
C881   C     0.83328   0.50001   0.66380   0.00000  Uiso   1.00
C882   C     0.83338   0.49999   0.83620   0.00000  Uiso   1.00
C883   C     0.87080   0.50148   0.90705   0.00000  Uiso   1.00
C884   C     0.79586   0.49853   0.59295   0.00000  Uiso   1.00
C885   C     0.83285   0.49991   0.88384   0.00000  Uiso   1.00
C886   C     0.91327   0.50000   0.75021   0.00000  Uiso   1.00
C887   C     0.83382   0.50009   0.61616   0.00000  Uiso   1.00
C888   C     0.79459   0.49837   0.90530   0.00000  Uiso   1.00
C889   C     0.87208   0.50163   0.59470   0.00000  Uiso   1.00
C890   C     0.79413   0.49592   0.95236   0.00000  Uiso   1.00
C891   C     0.87253   0.50407   0.54764   0.00000  Uiso   1.00
C892   C     0.83287   0.49976   0.97645   0.00000  Uiso   1.00
C893   C     0.83379   0.50024   0.52355   0.00000  Uiso   1.00
C894   C     0.87087   0.50309   0.95354   0.00000  Uiso   1.00
C895   C     0.79580   0.49691   0.54646   0.00000  Uiso   1.00
C896   C     0.75694   0.48996   0.97656   0.00000  Uiso   1.00
C897   C     0.75831   0.49128   0.52269   0.00000  Uiso   1.00
C898   C     0.90972   0.51003   0.52344   0.00000  Uiso   1.00
C899   C     0.75676   0.50183   0.87798   0.00000  Uiso   1.00
C900   C     0.90991   0.49816   0.62202   0.00000  Uiso   1.00
C901   C     0.71663   0.47973   0.95655   0.00000  Uiso   1.00
C902   C     0.95003   0.52027   0.54345   0.00000  Uiso   1.00
C903   C     0.90835   0.50872   0.97731   0.00000  Uiso   1.00
C904   C     0.68796   0.45910   0.75001   0.00000  Uiso   1.00
C905   C     0.97871   0.54090   0.74999   0.00000  Uiso   1.00
C906   C     0.97871   0.45911   0.75034   0.00000  Uiso   1.00
C907   C     0.68796   0.54089   0.74965   0.00000  Uiso   1.00
C908   C     0.95749   0.50001   0.75036   0.00000  Uiso   1.00
H909   H     0.72935   0.48669   0.53986   0.00000  Uiso   1.00
H910   H     0.93731   0.51330   0.96014   0.00000  Uiso   1.00
H911   H     0.70406   0.42718   0.75017   0.00000  Uiso   1.00
H912   H     0.96261   0.57281   0.74982   0.00000  Uiso   1.00
H913   H     0.96260   0.42720   0.75044   0.00000  Uiso   1.00
H914   H     0.70407   0.57280   0.74955   0.00000  Uiso   1.00
N915   N     0.83333   0.61907   0.75000   0.00000  Uiso   1.00
N916   N     0.83333   0.38093   0.75000   0.00000  Uiso   1.00
N917   N     0.72682   0.50480   0.85598   0.00000  Uiso   1.00
N918   N     0.93985   0.49518   0.64401   0.00000  Uiso   1.00
N919   N     0.68421   0.47134   0.94111   0.00000  Uiso   1.00
N920   N     0.98244   0.52867   0.55890   0.00000  Uiso   1.00
O921   O     0.77226   0.53821   0.74999   0.00000  Uiso   1.00
O922   O     0.89441   0.46179   0.75001   0.00000  Uiso   1.00
O923   O     0.89441   0.53821   0.75000   0.00000  Uiso   1.00
O924   O     0.77226   0.46179   0.74999   0.00000  Uiso   1.00
O925   O     0.83333   0.53823   0.68392   0.00000  Uiso   1.00
O926   O     0.83334   0.46177   0.81607   0.00000  Uiso   1.00
O927   O     0.83334   0.53823   0.81607   0.00000  Uiso   1.00
O928   O     0.83333   0.46177   0.68392   0.00000  Uiso   1.00
Zn929  Zn    0.83333   0.55104   0.75000   0.00000  Uiso   1.00
Zn930  Zn    0.83333   0.44896   0.75000   0.00000  Uiso   1.00
Br931  Br    0.25558   0.83480   0.87401   0.00000  Uiso   1.00
Br932  Br    0.07775   0.83188   0.62599   0.00000  Uiso   1.00
Br933  Br    0.22988   0.72178   0.81855   0.00000  Uiso   1.00
Br934  Br    0.10346   0.94489   0.68145   0.00000  Uiso   1.00
Br935  Br    0.10340   0.72165   0.68152   0.00000  Uiso   1.00
Br936  Br    0.22993   0.94502   0.81848   0.00000  Uiso   1.00
C937   C     0.08673   0.83333   0.74979   0.00000  Uiso   1.00
C938   C     0.04251   0.83333   0.74964   0.00000  Uiso   1.00
C939   C     0.19272   0.69057   0.77821   0.00000  Uiso   1.00
C940   C     0.14061   0.97609   0.72179   0.00000  Uiso   1.00
C941   C     0.14061   0.69052   0.72180   0.00000  Uiso   1.00
C942   C     0.19273   0.97614   0.77820   0.00000  Uiso   1.00
C943   C     0.16662   0.83334   0.66380   0.00000  Uiso   1.00
C944   C     0.16672   0.83333   0.83620   0.00000  Uiso   1.00
C945   C     0.20413   0.83481   0.90705   0.00000  Uiso   1.00
C946   C     0.12920   0.83186   0.59295   0.00000  Uiso   1.00
C947   C     0.16618   0.83324   0.88384   0.00000  Uiso   1.00
C948   C     0.24661   0.83334   0.75021   0.00000  Uiso   1.00
C949   C     0.16715   0.83342   0.61616   0.00000  Uiso   1.00
C950   C     0.12792   0.83170   0.90530   0.00000  Uiso   1.00
C951   C     0.20541   0.83496   0.59470   0.00000  Uiso   1.00
C952   C     0.12746   0.82926   0.95236   0.00000  Uiso   1.00
C953   C     0.20587   0.83741   0.54764   0.00000  Uiso   1.00
C954   C     0.16621   0.83310   0.97645   0.00000  Uiso   1.00
C955   C     0.16712   0.83357   0.52355   0.00000  Uiso   1.00
C956   C     0.20420   0.83643   0.95354   0.00000  Uiso   1.00
C957   C     0.12913   0.83024   0.54646   0.00000  Uiso   1.00
C958   C     0.09027   0.82330   0.97656   0.00000  Uiso   1.00
C959   C     0.09165   0.82461   0.52269   0.00000  Uiso   1.00
C960   C     0.24305   0.84337   0.52344   0.00000  Uiso   1.00
C961   C     0.09009   0.83516   0.87798   0.00000  Uiso   1.00
C962   C     0.24324   0.83150   0.62202   0.00000  Uiso   1.00
C963   C     0.04996   0.81306   0.95655   0.00000  Uiso   1.00
C964   C     0.28336   0.85361   0.54345   0.00000  Uiso   1.00
C965   C     0.24168   0.84206   0.97731   0.00000  Uiso   1.00
C966   C     0.02129   0.79243   0.75001   0.00000  Uiso   1.00
C967   C     0.31204   0.87423   0.74999   0.00000  Uiso   1.00
C968   C     0.31204   0.79244   0.75034   0.00000  Uiso   1.00
C969   C     0.02129   0.87423   0.74965   0.00000  Uiso   1.00
C970   C     0.29083   0.83334   0.75036   0.00000  Uiso   1.00
H971   H     0.06269   0.82003   0.53986   0.00000  Uiso   1.00
H972   H     0.27064   0.84664   0.96014   0.00000  Uiso   1.00
H973   H     0.03739   0.76052   0.75017   0.00000  Uiso   1.00
H974   H     0.29594   0.90615   0.74982   0.00000  Uiso   1.00
H975   H     0.29593   0.76053   0.75044   0.00000  Uiso   1.00
H976   H     0.03740   0.90614   0.74955   0.00000  Uiso   1.00
N977   N     0.16667   0.95240   0.75000   0.00000  Uiso   1.00
N978   N     0.16667   0.71427   0.75000   0.00000  Uiso   1.00
N979   N     0.06015   0.83814   0.85598   0.00000  Uiso   1.00
N980   N     0.27318   0.82851   0.64401   0.00000  Uiso   1.00
N981   N     0.01754   0.80467   0.94111   0.00000  Uiso   1.00
N982   N     0.31577   0.86200   0.55890   0.00000  Uiso   1.00
O983   O     0.10559   0.87154   0.74999   0.00000  Uiso   1.00
O984   O     0.22774   0.79513   0.75001   0.00000  Uiso   1.00
O985   O     0.22774   0.87154   0.75000   0.00000  Uiso   1.00
O986   O     0.10559   0.79513   0.74999   0.00000  Uiso   1.00
O987   O     0.16666   0.87156   0.68392   0.00000  Uiso   1.00
O988   O     0.16667   0.79511   0.81607   0.00000  Uiso   1.00
O989   O     0.16667   0.87156   0.81607   0.00000  Uiso   1.00
O990   O     0.16666   0.79511   0.68392   0.00000  Uiso   1.00
Zn991  Zn    0.16667   0.88437   0.75000   0.00000  Uiso   1.00
Zn992  Zn    0.16667   0.78229   0.75000   0.00000  Uiso   1.00
Br993  Br    0.58892   0.83480   0.87401   0.00000  Uiso   1.00
Br994  Br    0.41108   0.83188   0.62599   0.00000  Uiso   1.00
Br995  Br    0.56321   0.72178   0.81855   0.00000  Uiso   1.00
Br996  Br    0.43679   0.94489   0.68145   0.00000  Uiso   1.00
Br997  Br    0.43674   0.72165   0.68152   0.00000  Uiso   1.00
Br998  Br    0.56326   0.94502   0.81848   0.00000  Uiso   1.00
C999   C     0.42006   0.83333   0.74979   0.00000  Uiso   1.00
C1000  C     0.37584   0.83333   0.74964   0.00000  Uiso   1.00
C1001  C     0.52606   0.69057   0.77821   0.00000  Uiso   1.00
C1002  C     0.47394   0.97609   0.72179   0.00000  Uiso   1.00
C1003  C     0.47394   0.69052   0.72180   0.00000  Uiso   1.00
C1004  C     0.52606   0.97614   0.77820   0.00000  Uiso   1.00
C1005  C     0.49995   0.83334   0.66380   0.00000  Uiso   1.00
C1006  C     0.50005   0.83333   0.83620   0.00000  Uiso   1.00
C1007  C     0.53747   0.83481   0.90705   0.00000  Uiso   1.00
C1008  C     0.46253   0.83186   0.59295   0.00000  Uiso   1.00
C1009  C     0.49951   0.83324   0.88384   0.00000  Uiso   1.00
C1010  C     0.57994   0.83334   0.75021   0.00000  Uiso   1.00
C1011  C     0.50048   0.83342   0.61616   0.00000  Uiso   1.00
C1012  C     0.46125   0.83170   0.90530   0.00000  Uiso   1.00
C1013  C     0.53874   0.83496   0.59470   0.00000  Uiso   1.00
C1014  C     0.46079   0.82926   0.95236   0.00000  Uiso   1.00
C1015  C     0.53920   0.83741   0.54764   0.00000  Uiso   1.00
C1016  C     0.49954   0.83310   0.97645   0.00000  Uiso   1.00
C1017  C     0.50045   0.83357   0.52355   0.00000  Uiso   1.00
C1018  C     0.53753   0.83643   0.95354   0.00000  Uiso   1.00
C1019  C     0.46246   0.83024   0.54646   0.00000  Uiso   1.00
C1020  C     0.42361   0.82330   0.97656   0.00000  Uiso   1.00
C1021  C     0.42498   0.82461   0.52269   0.00000  Uiso   1.00
C1022  C     0.57639   0.84337   0.52344   0.00000  Uiso   1.00
C1023  C     0.42343   0.83516   0.87798   0.00000  Uiso   1.00
C1024  C     0.57657   0.83150   0.62202   0.00000  Uiso   1.00
C1025  C     0.38329   0.81306   0.95655   0.00000  Uiso   1.00
C1026  C     0.61670   0.85361   0.54345   0.00000  Uiso   1.00
C1027  C     0.57501   0.84206   0.97731   0.00000  Uiso   1.00
C1028  C     0.35462   0.79243   0.75001   0.00000  Uiso   1.00
C1029  C     0.64538   0.87423   0.74999   0.00000  Uiso   1.00
C1030  C     0.64538   0.79244   0.75034   0.00000  Uiso   1.00
C1031  C     0.35462   0.87423   0.74965   0.00000  Uiso   1.00
C1032  C     0.62416   0.83334   0.75036   0.00000  Uiso   1.00
H1033  H     0.39602   0.82003   0.53986   0.00000  Uiso   1.00
H1034  H     0.60398   0.84664   0.96014   0.00000  Uiso   1.00
H1035  H     0.37073   0.76052   0.75017   0.00000  Uiso   1.00
H1036  H     0.62927   0.90615   0.74982   0.00000  Uiso   1.00
H1037  H     0.62927   0.76053   0.75044   0.00000  Uiso   1.00
H1038  H     0.37073   0.90614   0.74955   0.00000  Uiso   1.00
N1039  N     0.50000   0.95240   0.75000   0.00000  Uiso   1.00
N1040  N     0.50000   0.71427   0.75000   0.00000  Uiso   1.00
N1041  N     0.39349   0.83814   0.85598   0.00000  Uiso   1.00
N1042  N     0.60651   0.82851   0.64401   0.00000  Uiso   1.00
N1043  N     0.35088   0.80467   0.94111   0.00000  Uiso   1.00
N1044  N     0.64911   0.86200   0.55890   0.00000  Uiso   1.00
O1045  O     0.43892   0.87154   0.74999   0.00000  Uiso   1.00
O1046  O     0.56108   0.79513   0.75001   0.00000  Uiso   1.00
O1047  O     0.56108   0.87154   0.75000   0.00000  Uiso   1.00
O1048  O     0.43892   0.79513   0.74999   0.00000  Uiso   1.00
O1049  O     0.49999   0.87156   0.68392   0.00000  Uiso   1.00
O1050  O     0.50001   0.79511   0.81607   0.00000  Uiso   1.00
O1051  O     0.50001   0.87156   0.81607   0.00000  Uiso   1.00
O1052  O     0.49999   0.79511   0.68392   0.00000  Uiso   1.00
Zn1053 Zn    0.50000   0.88437   0.75000   0.00000  Uiso   1.00
Zn1054 Zn    0.50000   0.78229   0.75000   0.00000  Uiso   1.00
Br1055 Br    0.92225   0.83480   0.87401   0.00000  Uiso   1.00
Br1056 Br    0.74441   0.83188   0.62599   0.00000  Uiso   1.00
Br1057 Br    0.89654   0.72178   0.81855   0.00000  Uiso   1.00
Br1058 Br    0.77012   0.94489   0.68145   0.00000  Uiso   1.00
Br1059 Br    0.77007   0.72165   0.68152   0.00000  Uiso   1.00
Br1060 Br    0.89660   0.94502   0.81848   0.00000  Uiso   1.00
C1061  C     0.75339   0.83333   0.74979   0.00000  Uiso   1.00
C1062  C     0.70918   0.83333   0.74964   0.00000  Uiso   1.00
C1063  C     0.85939   0.69057   0.77821   0.00000  Uiso   1.00
C1064  C     0.80728   0.97609   0.72179   0.00000  Uiso   1.00
C1065  C     0.80727   0.69052   0.72180   0.00000  Uiso   1.00
C1066  C     0.85939   0.97614   0.77820   0.00000  Uiso   1.00
C1067  C     0.83328   0.83334   0.66380   0.00000  Uiso   1.00
C1068  C     0.83338   0.83333   0.83620   0.00000  Uiso   1.00
C1069  C     0.87080   0.83481   0.90705   0.00000  Uiso   1.00
C1070  C     0.79586   0.83186   0.59295   0.00000  Uiso   1.00
C1071  C     0.83285   0.83324   0.88384   0.00000  Uiso   1.00
C1072  C     0.91327   0.83334   0.75021   0.00000  Uiso   1.00
C1073  C     0.83382   0.83342   0.61616   0.00000  Uiso   1.00
C1074  C     0.79459   0.83170   0.90530   0.00000  Uiso   1.00
C1075  C     0.87208   0.83496   0.59470   0.00000  Uiso   1.00
C1076  C     0.79413   0.82926   0.95236   0.00000  Uiso   1.00
C1077  C     0.87253   0.83741   0.54764   0.00000  Uiso   1.00
C1078  C     0.83287   0.83310   0.97645   0.00000  Uiso   1.00
C1079  C     0.83379   0.83357   0.52355   0.00000  Uiso   1.00
C1080  C     0.87087   0.83643   0.95354   0.00000  Uiso   1.00
C1081  C     0.79580   0.83024   0.54646   0.00000  Uiso   1.00
C1082  C     0.75694   0.82330   0.97656   0.00000  Uiso   1.00
C1083  C     0.75831   0.82461   0.52269   0.00000  Uiso   1.00
C1084  C     0.90972   0.84337   0.52344   0.00000  Uiso   1.00
C1085  C     0.75676   0.83516   0.87798   0.00000  Uiso   1.00
C1086  C     0.90991   0.83150   0.62202   0.00000  Uiso   1.00
C1087  C     0.71663   0.81306   0.95655   0.00000  Uiso   1.00
C1088  C     0.95003   0.85361   0.54345   0.00000  Uiso   1.00
C1089  C     0.90835   0.84206   0.97731   0.00000  Uiso   1.00
C1090  C     0.68796   0.79243   0.75001   0.00000  Uiso   1.00
C1091  C     0.97871   0.87423   0.74999   0.00000  Uiso   1.00
C1092  C     0.97871   0.79244   0.75034   0.00000  Uiso   1.00
C1093  C     0.68796   0.87423   0.74965   0.00000  Uiso   1.00
C1094  C     0.95749   0.83334   0.75036   0.00000  Uiso   1.00
H1095  H     0.72935   0.82003   0.53986   0.00000  Uiso   1.00
H1096  H     0.93731   0.84664   0.96014   0.00000  Uiso   1.00
H1097  H     0.70406   0.76052   0.75017   0.00000  Uiso   1.00
H1098  H     0.96261   0.90615   0.74982   0.00000  Uiso   1.00
H1099  H     0.96260   0.76053   0.75044   0.00000  Uiso   1.00
H1100  H     0.70407   0.90614   0.74955   0.00000  Uiso   1.00
N1101  N     0.83333   0.95240   0.75000   0.00000  Uiso   1.00
N1102  N     0.83333   0.71427   0.75000   0.00000  Uiso   1.00
N1103  N     0.72682   0.83814   0.85598   0.00000  Uiso   1.00
N1104  N     0.93985   0.82851   0.64401   0.00000  Uiso   1.00
N1105  N     0.68421   0.80467   0.94111   0.00000  Uiso   1.00
N1106  N     0.98244   0.86200   0.55890   0.00000  Uiso   1.00
O1107  O     0.77226   0.87154   0.74999   0.00000  Uiso   1.00
O1108  O     0.89441   0.79513   0.75001   0.00000  Uiso   1.00
O1109  O     0.89441   0.87154   0.75000   0.00000  Uiso   1.00
O1110  O     0.77226   0.79513   0.74999   0.00000  Uiso   1.00
O1111  O     0.83333   0.87156   0.68392   0.00000  Uiso   1.00
O1112  O     0.83334   0.79511   0.81607   0.00000  Uiso   1.00
O1113  O     0.83334   0.87156   0.81607   0.00000  Uiso   1.00
O1114  O     0.83333   0.79511   0.68392   0.00000  Uiso   1.00
Zn1115 Zn    0.83333   0.88437   0.75000   0.00000  Uiso   1.00
Zn1116 Zn    0.83333   0.78229   0.75000   0.00000  Uiso   1.00
loop_
_geom_bond_atom_site_label_1
_geom_bond_atom_site_label_2
_geom_bond_distance
_geom_bond_site_symmetry_2
_ccdc_geom_bond_type
Br1    C15     1.945   .     S
Br2    C16     1.945   .     S
Br3    C9      1.920   .     S
Br4    C10     1.920   .     S
Br5    C11     1.919   .     S
Br6    C12     1.919   .     S
C7     C8      1.421   .     S
C7     O56     1.290   .     A
C7     O53     1.290   .     A
C8     C39     1.397   .     A
C8     C36     1.397   .     A
C9     N48     1.372   .     A
C9     C384    1.424   1_545 S
C10    N47     1.372   .     A
C10    C197    1.424   .     S
C11    N48     1.373   .     A
C11    C382    1.424   1_545 S
C12    N47     1.373   .     A
C12    C195    1.424   .     S
C13    O60     1.290   .     A
C13    O57     1.289   .     A
C13    C19     1.428   .     S
C14    O59     1.290   .     A
C14    C17     1.428   .     S
C14    O58     1.289   .     A
C15    C17     1.391   .     A
C15    C26     1.393   .     A
C16    C27     1.393   .     A
C16    C19     1.391   .     A
C17    C20     1.400   .     A
C18    O55     1.290   .     A
C18    O54     1.290   .     A
C18    C40     1.421   .     S
C19    C21     1.400   .     A
C20    C22     1.412   .     A
C20    C31     1.454   .     S
C21    C23     1.412   .     A
C21    C32     1.454   .     S
C22    C28     1.422   .     A
C22    C24     1.430   .     A
C23    C30     1.422   .     A
C23    C25     1.430   .     A
C24    C26     1.417   .     A
C24    C583    1.410   .     S
C25    C27     1.417   .     A
C25    C582    1.410   1_554 S
C26    C35     1.395   .     A
C27    C29     1.395   .     A
C28    C33     1.448   .     S
C28    C587    1.382   .     S
C29    H41     1.082   .     S
C29    C586    1.382   1_554 S
C30    C34     1.447   .     S
C30    C593    1.382   1_554 S
C31    N49     1.157   .     T
C32    N50     1.157   .     T
C33    N51     1.158   .     T
C34    N52     1.157   .     T
C35    H42     1.082   .     S
C35    C588    1.382   .     S
C36    H43     1.083   .     S
C36    C162    1.368   1_455 S
C37    H44     1.083   .     S
C37    C40     1.397   .     A
C37    C101    1.368   .     S
C38    C40     1.397   .     A
C38    H45     1.083   .     S
C38    C98     1.368   .     S
C39    H46     1.083   .     S
C39    C161    1.368   1_455 S
N47    Zn61    2.028   .     S
N48    Zn62    2.028   .     S
O53    Zn61    1.999   .     S
O54    Zn62    1.999   .     S
O55    Zn61    1.999   .     S
O56    Zn62    1.999   .     S
O57    Zn61    2.016   .     S
O58    Zn62    2.016   .     S
O59    Zn61    2.016   .     S
O60    Zn62    2.016   .     S
Br63   C77     1.945   .     S
Br64   C78     1.945   .     S
Br65   C71     1.920   .     S
Br66   C72     1.920   .     S
Br67   C73     1.919   .     S
Br68   C74     1.919   .     S
C69    C70     1.421   .     S
C69    O118    1.290   .     A
C69    O115    1.290   .     A
C70    C101    1.397   .     A
C70    C98     1.397   .     A
C71    N110    1.372   .     A
C71    C446    1.424   1_545 S
C72    N109    1.372   .     A
C72    C259    1.424   .     S
C73    N110    1.373   .     A
C73    C444    1.424   1_545 S
C74    N109    1.373   .     A
C74    C257    1.424   .     S
C75    O122    1.290   .     A
C75    O119    1.289   .     A
C75    C81     1.428   .     S
C76    O121    1.290   .     A
C76    C79     1.428   .     S
C76    O120    1.289   .     A
C77    C79     1.391   .     A
C77    C88     1.393   .     A
C78    C89     1.393   .     A
C78    C81     1.391   .     A
C79    C82     1.400   .     A
C80    O117    1.290   .     A
C80    O116    1.290   .     A
C80    C102    1.421   .     S
C81    C83     1.400   .     A
C82    C84     1.412   .     A
C82    C93     1.454   .     S
C83    C85     1.412   .     A
C83    C94     1.454   .     S
C84    C90     1.422   .     A
C84    C86     1.430   .     A
C85    C92     1.422   .     A
C85    C87     1.430   .     A
C86    C88     1.417   .     A
C86    C645    1.410   .     S
C87    C89     1.417   .     A
C87    C644    1.410   1_554 S
C88    C97     1.395   .     A
C89    C91     1.395   .     A
C90    C95     1.448   .     S
C90    C649    1.382   .     S
C91    H103    1.082   .     S
C91    C648    1.382   1_554 S
C92    C96     1.447   .     S
C92    C655    1.382   1_554 S
C93    N111    1.157   .     T
C94    N112    1.157   .     T
C95    N113    1.158   .     T
C96    N114    1.157   .     T
C97    H104    1.082   .     S
C97    C650    1.382   .     S
C98    H105    1.083   .     S
C99    H106    1.083   .     S
C99    C102    1.397   .     A
C99    C163    1.368   .     S
C100   C102    1.397   .     A
C100   H107    1.083   .     S
C100   C160    1.368   .     S
C101   H108    1.083   .     S
N109   Zn123   2.028   .     S
N110   Zn124   2.028   .     S
O115   Zn123   1.999   .     S
O116   Zn124   1.999   .     S
O117   Zn123   1.999   .     S
O118   Zn124   1.999   .     S
O119   Zn123   2.016   .     S
O120   Zn124   2.016   .     S
O121   Zn123   2.016   .     S
O122   Zn124   2.016   .     S
Br125  C139    1.945   .     S
Br126  C140    1.945   .     S
Br127  C133    1.920   .     S
Br128  C134    1.920   .     S
Br129  C135    1.919   .     S
Br130  C136    1.919   .     S
C131   C132    1.421   .     S
C131   O180    1.290   .     A
C131   O177    1.290   .     A
C132   C163    1.397   .     A
C132   C160    1.397   .     A
C133   N172    1.372   .     A
C133   C508    1.424   1_545 S
C134   N171    1.372   .     A
C134   C321    1.424   .     S
C135   N172    1.373   .     A
C135   C506    1.424   1_545 S
C136   N171    1.373   .     A
C136   C319    1.424   .     S
C137   O184    1.290   .     A
C137   O181    1.289   .     A
C137   C143    1.428   .     S
C138   O183    1.290   .     A
C138   C141    1.428   .     S
C138   O182    1.289   .     A
C139   C141    1.391   .     A
C139   C150    1.393   .     A
C140   C151    1.393   .     A
C140   C143    1.391   .     A
C141   C144    1.400   .     A
C142   O179    1.290   .     A
C142   O178    1.290   .     A
C142   C164    1.421   .     S
C143   C145    1.400   .     A
C144   C146    1.412   .     A
C144   C155    1.454   .     S
C145   C147    1.412   .     A
C145   C156    1.454   .     S
C146   C152    1.422   .     A
C146   C148    1.430   .     A
C147   C154    1.422   .     A
C147   C149    1.430   .     A
C148   C150    1.417   .     A
C148   C707    1.410   .     S
C149   C151    1.417   .     A
C149   C706    1.410   1_554 S
C150   C159    1.395   .     A
C151   C153    1.395   .     A
C152   C157    1.448   .     S
C152   C711    1.382   .     S
C153   H165    1.082   .     S
C153   C710    1.382   1_554 S
C154   C158    1.447   .     S
C154   C717    1.382   1_554 S
C155   N173    1.157   .     T
C156   N174    1.157   .     T
C157   N175    1.158   .     T
C158   N176    1.157   .     T
C159   H166    1.082   .     S
C159   C712    1.382   .     S
C160   H167    1.083   .     S
C161   H168    1.083   .     S
C161   C164    1.397   .     A
C161   C39     1.368   1_655 S
C162   C164    1.397   .     A
C162   H169    1.083   .     S
C162   C36     1.368   1_655 S
C163   H170    1.083   .     S
N171   Zn185   2.028   .     S
N172   Zn186   2.028   .     S
O177   Zn185   1.999   .     S
O178   Zn186   1.999   .     S
O179   Zn185   1.999   .     S
O180   Zn186   1.999   .     S
O181   Zn185   2.016   .     S
O182   Zn186   2.016   .     S
O183   Zn185   2.016   .     S
O184   Zn186   2.016   .     S
Br187  C201    1.945   .     S
Br188  C202    1.945   .     S
Br189  C195    1.920   .     S
Br190  C196    1.920   .     S
Br191  C197    1.919   .     S
Br192  C198    1.919   .     S
C193   C194    1.421   .     S
C193   O242    1.290   .     A
C193   O239    1.290   .     A
C194   C225    1.397   .     A
C194   C222    1.397   .     A
C195   N234    1.372   .     A
C196   N233    1.372   .     A
C196   C383    1.424   .     S
C197   N234    1.373   .     A
C198   N233    1.373   .     A
C198   C381    1.424   .     S
C199   O246    1.290   .     A
C199   O243    1.289   .     A
C199   C205    1.428   .     S
C200   O245    1.290   .     A
C200   C203    1.428   .     S
C200   O244    1.289   .     A
C201   C203    1.391   .     A
C201   C212    1.393   .     A
C202   C213    1.393   .     A
C202   C205    1.391   .     A
C203   C206    1.400   .     A
C204   O241    1.290   .     A
C204   O240    1.290   .     A
C204   C226    1.421   .     S
C205   C207    1.400   .     A
C206   C208    1.412   .     A
C206   C217    1.454   .     S
C207   C209    1.412   .     A
C207   C218    1.454   .     S
C208   C214    1.422   .     A
C208   C210    1.430   .     A
C209   C216    1.422   .     A
C209   C211    1.430   .     A
C210   C212    1.417   .     A
C210   C769    1.410   .     S
C211   C213    1.417   .     A
C211   C768    1.410   1_554 S
C212   C221    1.395   .     A
C213   C215    1.395   .     A
C214   C219    1.448   .     S
C214   C773    1.382   .     S
C215   H227    1.082   .     S
C215   C772    1.382   1_554 S
C216   C220    1.447   .     S
C216   C779    1.382   1_554 S
C217   N235    1.157   .     T
C218   N236    1.157   .     T
C219   N237    1.158   .     T
C220   N238    1.157   .     T
C221   H228    1.082   .     S
C221   C774    1.382   .     S
C222   H229    1.083   .     S
C222   C348    1.368   1_455 S
C223   H230    1.083   .     S
C223   C226    1.397   .     A
C223   C287    1.368   .     S
C224   C226    1.397   .     A
C224   H231    1.083   .     S
C224   C284    1.368   .     S
C225   H232    1.083   .     S
C225   C347    1.368   1_455 S
N233   Zn247   2.028   .     S
N234   Zn248   2.028   .     S
O239   Zn247   1.999   .     S
O240   Zn248   1.999   .     S
O241   Zn247   1.999   .     S
O242   Zn248   1.999   .     S
O243   Zn247   2.016   .     S
O244   Zn248   2.016   .     S
O245   Zn247   2.016   .     S
O246   Zn248   2.016   .     S
Br249  C263    1.945   .     S
Br250  C264    1.945   .     S
Br251  C257    1.920   .     S
Br252  C258    1.920   .     S
Br253  C259    1.919   .     S
Br254  C260    1.919   .     S
C255   C256    1.421   .     S
C255   O304    1.290   .     A
C255   O301    1.290   .     A
C256   C287    1.397   .     A
C256   C284    1.397   .     A
C257   N296    1.372   .     A
C258   N295    1.372   .     A
C258   C445    1.424   .     S
C259   N296    1.373   .     A
C260   N295    1.373   .     A
C260   C443    1.424   .     S
C261   O308    1.290   .     A
C261   O305    1.289   .     A
C261   C267    1.428   .     S
C262   O307    1.290   .     A
C262   C265    1.428   .     S
C262   O306    1.289   .     A
C263   C265    1.391   .     A
C263   C274    1.393   .     A
C264   C275    1.393   .     A
C264   C267    1.391   .     A
C265   C268    1.400   .     A
C266   O303    1.290   .     A
C266   O302    1.290   .     A
C266   C288    1.421   .     S
C267   C269    1.400   .     A
C268   C270    1.412   .     A
C268   C279    1.454   .     S
C269   C271    1.412   .     A
C269   C280    1.454   .     S
C270   C276    1.422   .     A
C270   C272    1.430   .     A
C271   C278    1.422   .     A
C271   C273    1.430   .     A
C272   C274    1.417   .     A
C272   C831    1.410   .     S
C273   C275    1.417   .     A
C273   C830    1.410   1_554 S
C274   C283    1.395   .     A
C275   C277    1.395   .     A
C276   C281    1.448   .     S
C276   C835    1.382   .     S
C277   H289    1.082   .     S
C277   C834    1.382   1_554 S
C278   C282    1.447   .     S
C278   C841    1.382   1_554 S
C279   N297    1.157   .     T
C280   N298    1.157   .     T
C281   N299    1.158   .     T
C282   N300    1.157   .     T
C283   H290    1.082   .     S
C283   C836    1.382   .     S
C284   H291    1.083   .     S
C285   H292    1.083   .     S
C285   C288    1.397   .     A
C285   C349    1.368   .     S
C286   C288    1.397   .     A
C286   H293    1.083   .     S
C286   C346    1.368   .     S
C287   H294    1.083   .     S
N295   Zn309   2.028   .     S
N296   Zn310   2.028   .     S
O301   Zn309   1.999   .     S
O302   Zn310   1.999   .     S
O303   Zn309   1.999   .     S
O304   Zn310   1.999   .     S
O305   Zn309   2.016   .     S
O306   Zn310   2.016   .     S
O307   Zn309   2.016   .     S
O308   Zn310   2.016   .     S
Br311  C325    1.945   .     S
Br312  C326    1.945   .     S
Br313  C319    1.920   .     S
Br314  C320    1.920   .     S
Br315  C321    1.919   .     S
Br316  C322    1.919   .     S
C317   C318    1.421   .     S
C317   O366    1.290   .     A
C317   O363    1.290   .     A
C318   C349    1.397   .     A
C318   C346    1.397   .     A
C319   N358    1.372   .     A
C320   N357    1.372   .     A
C320   C507    1.424   .     S
C321   N358    1.373   .     A
C322   N357    1.373   .     A
C322   C505    1.424   .     S
C323   O370    1.290   .     A
C323   O367    1.289   .     A
C323   C329    1.428   .     S
C324   O369    1.290   .     A
C324   C327    1.428   .     S
C324   O368    1.289   .     A
C325   C327    1.391   .     A
C325   C336    1.393   .     A
C326   C337    1.393   .     A
C326   C329    1.391   .     A
C327   C330    1.400   .     A
C328   O365    1.290   .     A
C328   O364    1.290   .     A
C328   C350    1.421   .     S
C329   C331    1.400   .     A
C330   C332    1.412   .     A
C330   C341    1.454   .     S
C331   C333    1.412   .     A
C331   C342    1.454   .     S
C332   C338    1.422   .     A
C332   C334    1.430   .     A
C333   C340    1.422   .     A
C333   C335    1.430   .     A
C334   C336    1.417   .     A
C334   C893    1.410   .     S
C335   C337    1.417   .     A
C335   C892    1.410   1_554 S
C336   C345    1.395   .     A
C337   C339    1.395   .     A
C338   C343    1.448   .     S
C338   C897    1.382   .     S
C339   H351    1.082   .     S
C339   C896    1.382   1_554 S
C340   C344    1.447   .     S
C340   C903    1.382   1_554 S
C341   N359    1.157   .     T
C342   N360    1.157   .     T
C343   N361    1.158   .     T
C344   N362    1.157   .     T
C345   H352    1.082   .     S
C345   C898    1.382   .     S
C346   H353    1.083   .     S
C347   H354    1.083   .     S
C347   C350    1.397   .     A
C347   C225    1.368   1_655 S
C348   C350    1.397   .     A
C348   H355    1.083   .     S
C348   C222    1.368   1_655 S
C349   H356    1.083   .     S
N357   Zn371   2.028   .     S
N358   Zn372   2.028   .     S
O363   Zn371   1.999   .     S
O364   Zn372   1.999   .     S
O365   Zn371   1.999   .     S
O366   Zn372   1.999   .     S
O367   Zn371   2.016   .     S
O368   Zn372   2.016   .     S
O369   Zn371   2.016   .     S
O370   Zn372   2.016   .     S
Br373  C387    1.945   .     S
Br374  C388    1.945   .     S
Br375  C381    1.920   .     S
Br376  C382    1.920   .     S
Br377  C383    1.919   .     S
Br378  C384    1.919   .     S
C379   C380    1.421   .     S
C379   O428    1.290   .     A
C379   O425    1.290   .     A
C380   C411    1.397   .     A
C380   C408    1.397   .     A
C381   N420    1.372   .     A
C382   N419    1.372   .     A
C382   C11     1.424   1_565 S
C383   N420    1.373   .     A
C384   N419    1.373   .     A
C384   C9      1.424   1_565 S
C385   O432    1.290   .     A
C385   O429    1.289   .     A
C385   C391    1.428   .     S
C386   O431    1.290   .     A
C386   C389    1.428   .     S
C386   O430    1.289   .     A
C387   C389    1.391   .     A
C387   C398    1.393   .     A
C388   C399    1.393   .     A
C388   C391    1.391   .     A
C389   C392    1.400   .     A
C390   O427    1.290   .     A
C390   O426    1.290   .     A
C390   C412    1.421   .     S
C391   C393    1.400   .     A
C392   C394    1.412   .     A
C392   C403    1.454   .     S
C393   C395    1.412   .     A
C393   C404    1.454   .     S
C394   C400    1.422   .     A
C394   C396    1.430   .     A
C395   C402    1.422   .     A
C395   C397    1.430   .     A
C396   C398    1.417   .     A
C396   C955    1.410   .     S
C397   C399    1.417   .     A
C397   C954    1.410   1_554 S
C398   C407    1.395   .     A
C399   C401    1.395   .     A
C400   C405    1.448   .     S
C400   C959    1.382   .     S
C401   H413    1.082   .     S
C401   C958    1.382   1_554 S
C402   C406    1.447   .     S
C402   C965    1.382   1_554 S
C403   N421    1.157   .     T
C404   N422    1.157   .     T
C405   N423    1.158   .     T
C406   N424    1.157   .     T
C407   H414    1.082   .     S
C407   C960    1.382   .     S
C408   H415    1.083   .     S
C408   C534    1.368   1_455 S
C409   H416    1.083   .     S
C409   C412    1.397   .     A
C409   C473    1.368   .     S
C410   C412    1.397   .     A
C410   H417    1.083   .     S
C410   C470    1.368   .     S
C411   H418    1.083   .     S
C411   C533    1.368   1_455 S
N419   Zn433   2.028   .     S
N420   Zn434   2.028   .     S
O425   Zn433   1.999   .     S
O426   Zn434   1.999   .     S
O427   Zn433   1.999   .     S
O428   Zn434   1.999   .     S
O429   Zn433   2.016   .     S
O430   Zn434   2.016   .     S
O431   Zn433   2.016   .     S
O432   Zn434   2.016   .     S
Br435  C449    1.945   .     S
Br436  C450    1.945   .     S
Br437  C443    1.920   .     S
Br438  C444    1.920   .     S
Br439  C445    1.919   .     S
Br440  C446    1.919   .     S
C441   C442    1.421   .     S
C441   O490    1.290   .     A
C441   O487    1.290   .     A
C442   C473    1.397   .     A
C442   C470    1.397   .     A
C443   N482    1.372   .     A
C444   N481    1.372   .     A
C444   C73     1.424   1_565 S
C445   N482    1.373   .     A
C446   N481    1.373   .     A
C446   C71     1.424   1_565 S
C447   O494    1.290   .     A
C447   O491    1.289   .     A
C447   C453    1.428   .     S
C448   O493    1.290   .     A
C448   C451    1.428   .     S
C448   O492    1.289   .     A
C449   C451    1.391   .     A
C449   C460    1.393   .     A
C450   C461    1.393   .     A
C450   C453    1.391   .     A
C451   C454    1.400   .     A
C452   O489    1.290   .     A
C452   O488    1.290   .     A
C452   C474    1.421   .     S
C453   C455    1.400   .     A
C454   C456    1.412   .     A
C454   C465    1.454   .     S
C455   C457    1.412   .     A
C455   C466    1.454   .     S
C456   C462    1.422   .     A
C456   C458    1.430   .     A
C457   C464    1.422   .     A
C457   C459    1.430   .     A
C458   C460    1.417   .     A
C458   C1017   1.410   .     S
C459   C461    1.417   .     A
C459   C1016   1.410   1_554 S
C460   C469    1.395   .     A
C461   C463    1.395   .     A
C462   C467    1.448   .     S
C462   C1021   1.382   .     S
C463   H475    1.082   .     S
C463   C1020   1.382   1_554 S
C464   C468    1.447   .     S
C464   C1027   1.382   1_554 S
C465   N483    1.157   .     T
C466   N484    1.157   .     T
C467   N485    1.158   .     T
C468   N486    1.157   .     T
C469   H476    1.082   .     S
C469   C1022   1.382   .     S
C470   H477    1.083   .     S
C471   H478    1.083   .     S
C471   C474    1.397   .     A
C471   C535    1.368   .     S
C472   C474    1.397   .     A
C472   H479    1.083   .     S
C472   C532    1.368   .     S
C473   H480    1.083   .     S
N481   Zn495   2.028   .     S
N482   Zn496   2.028   .     S
O487   Zn495   1.999   .     S
O488   Zn496   1.999   .     S
O489   Zn495   1.999   .     S
O490   Zn496   1.999   .     S
O491   Zn495   2.016   .     S
O492   Zn496   2.016   .     S
O493   Zn495   2.016   .     S
O494   Zn496   2.016   .     S
Br497  C511    1.945   .     S
Br498  C512    1.945   .     S
Br499  C505    1.920   .     S
Br500  C506    1.920   .     S
Br501  C507    1.919   .     S
Br502  C508    1.919   .     S
C503   C504    1.421   .     S
C503   O552    1.290   .     A
C503   O549    1.290   .     A
C504   C535    1.397   .     A
C504   C532    1.397   .     A
C505   N544    1.372   .     A
C506   N543    1.372   .     A
C506   C135    1.424   1_565 S
C507   N544    1.373   .     A
C508   N543    1.373   .     A
C508   C133    1.424   1_565 S
C509   O556    1.290   .     A
C509   O553    1.289   .     A
C509   C515    1.428   .     S
C510   O555    1.290   .     A
C510   C513    1.428   .     S
C510   O554    1.289   .     A
C511   C513    1.391   .     A
C511   C522    1.393   .     A
C512   C523    1.393   .     A
C512   C515    1.391   .     A
C513   C516    1.400   .     A
C514   O551    1.290   .     A
C514   O550    1.290   .     A
C514   C536    1.421   .     S
C515   C517    1.400   .     A
C516   C518    1.412   .     A
C516   C527    1.454   .     S
C517   C519    1.412   .     A
C517   C528    1.454   .     S
C518   C524    1.422   .     A
C518   C520    1.430   .     A
C519   C526    1.422   .     A
C519   C521    1.430   .     A
C520   C522    1.417   .     A
C520   C1079   1.410   .     S
C521   C523    1.417   .     A
C521   C1078   1.410   1_554 S
C522   C531    1.395   .     A
C523   C525    1.395   .     A
C524   C529    1.448   .     S
C524   C1083   1.382   .     S
C525   H537    1.082   .     S
C525   C1082   1.382   1_554 S
C526   C530    1.447   .     S
C526   C1089   1.382   1_554 S
C527   N545    1.157   .     T
C528   N546    1.157   .     T
C529   N547    1.158   .     T
C530   N548    1.157   .     T
C531   H538    1.082   .     S
C531   C1084   1.382   .     S
C532   H539    1.083   .     S
C533   H540    1.083   .     S
C533   C536    1.397   .     A
C533   C411    1.368   1_655 S
C534   C536    1.397   .     A
C534   H541    1.083   .     S
C534   C408    1.368   1_655 S
C535   H542    1.083   .     S
N543   Zn557   2.028   .     S
N544   Zn558   2.028   .     S
O549   Zn557   1.999   .     S
O550   Zn558   1.999   .     S
O551   Zn557   1.999   .     S
O552   Zn558   1.999   .     S
O553   Zn557   2.016   .     S
O554   Zn558   2.016   .     S
O555   Zn557   2.016   .     S
O556   Zn558   2.016   .     S
Br559  C573    1.945   .     S
Br560  C574    1.945   .     S
Br561  C567    1.920   .     S
Br562  C568    1.920   .     S
Br563  C569    1.919   .     S
Br564  C570    1.919   .     S
C565   C566    1.421   .     S
C565   O614    1.290   .     A
C565   O611    1.290   .     A
C566   C597    1.397   .     A
C566   C594    1.397   .     A
C567   N606    1.372   .     A
C567   C942    1.424   1_545 S
C568   N605    1.372   .     A
C568   C755    1.424   .     S
C569   N606    1.373   .     A
C569   C940    1.424   1_545 S
C570   N605    1.373   .     A
C570   C753    1.424   .     S
C571   O618    1.290   .     A
C571   O615    1.289   .     A
C571   C577    1.428   .     S
C572   O617    1.290   .     A
C572   C575    1.428   .     S
C572   O616    1.289   .     A
C573   C575    1.391   .     A
C573   C584    1.393   .     A
C574   C585    1.393   .     A
C574   C577    1.391   .     A
C575   C578    1.400   .     A
C576   O613    1.290   .     A
C576   O612    1.290   .     A
C576   C598    1.421   .     S
C577   C579    1.400   .     A
C578   C580    1.412   .     A
C578   C589    1.454   .     S
C579   C581    1.412   .     A
C579   C590    1.454   .     S
C580   C586    1.422   .     A
C580   C582    1.430   .     A
C581   C588    1.422   .     A
C581   C583    1.430   .     A
C582   C584    1.417   .     A
C582   C25     1.410   1_556 S
C583   C585    1.417   .     A
C584   C593    1.395   .     A
C585   C587    1.395   .     A
C586   C591    1.448   .     S
C586   C29     1.382   1_556 S
C587   H599    1.082   .     S
C588   C592    1.447   .     S
C589   N607    1.157   .     T
C590   N608    1.157   .     T
C591   N609    1.158   .     T
C592   N610    1.157   .     T
C593   H600    1.082   .     S
C593   C30     1.382   1_556 S
C594   H601    1.083   .     S
C594   C720    1.368   1_455 S
C595   H602    1.083   .     S
C595   C598    1.397   .     A
C595   C659    1.368   .     S
C596   C598    1.397   .     A
C596   H603    1.083   .     S
C596   C656    1.368   .     S
C597   H604    1.083   .     S
C597   C719    1.368   1_455 S
N605   Zn619   2.028   .     S
N606   Zn620   2.028   .     S
O611   Zn619   1.999   .     S
O612   Zn620   1.999   .     S
O613   Zn619   1.999   .     S
O614   Zn620   1.999   .     S
O615   Zn619   2.016   .     S
O616   Zn620   2.016   .     S
O617   Zn619   2.016   .     S
O618   Zn620   2.016   .     S
Br621  C635    1.945   .     S
Br622  C636    1.945   .     S
Br623  C629    1.920   .     S
Br624  C630    1.920   .     S
Br625  C631    1.919   .     S
Br626  C632    1.919   .     S
C627   C628    1.421   .     S
C627   O676    1.290   .     A
C627   O673    1.290   .     A
C628   C659    1.397   .     A
C628   C656    1.397   .     A
C629   N668    1.372   .     A
C629   C1004   1.424   1_545 S
C630   N667    1.372   .     A
C630   C817    1.424   .     S
C631   N668    1.373   .     A
C631   C1002   1.424   1_545 S
C632   N667    1.373   .     A
C632   C815    1.424   .     S
C633   O680    1.290   .     A
C633   O677    1.289   .     A
C633   C639    1.428   .     S
C634   O679    1.290   .     A
C634   C637    1.428   .     S
C634   O678    1.289   .     A
C635   C637    1.391   .     A
C635   C646    1.393   .     A
C636   C647    1.393   .     A
C636   C639    1.391   .     A
C637   C640    1.400   .     A
C638   O675    1.290   .     A
C638   O674    1.290   .     A
C638   C660    1.421   .     S
C639   C641    1.400   .     A
C640   C642    1.412   .     A
C640   C651    1.454   .     S
C641   C643    1.412   .     A
C641   C652    1.454   .     S
C642   C648    1.422   .     A
C642   C644    1.430   .     A
C643   C650    1.422   .     A
C643   C645    1.430   .     A
C644   C646    1.417   .     A
C644   C87     1.410   1_556 S
C645   C647    1.417   .     A
C646   C655    1.395   .     A
C647   C649    1.395   .     A
C648   C653    1.448   .     S
C648   C91     1.382   1_556 S
C649   H661    1.082   .     S
C650   C654    1.447   .     S
C651   N669    1.157   .     T
C652   N670    1.157   .     T
C653   N671    1.158   .     T
C654   N672    1.157   .     T
C655   H662    1.082   .     S
C655   C92     1.382   1_556 S
C656   H663    1.083   .     S
C657   H664    1.083   .     S
C657   C660    1.397   .     A
C657   C721    1.368   .     S
C658   C660    1.397   .     A
C658   H665    1.083   .     S
C658   C718    1.368   .     S
C659   H666    1.083   .     S
N667   Zn681   2.028   .     S
N668   Zn682   2.028   .     S
O673   Zn681   1.999   .     S
O674   Zn682   1.999   .     S
O675   Zn681   1.999   .     S
O676   Zn682   1.999   .     S
O677   Zn681   2.016   .     S
O678   Zn682   2.016   .     S
O679   Zn681   2.016   .     S
O680   Zn682   2.016   .     S
Br683  C697    1.945   .     S
Br684  C698    1.945   .     S
Br685  C691    1.920   .     S
Br686  C692    1.920   .     S
Br687  C693    1.919   .     S
Br688  C694    1.919   .     S
C689   C690    1.421   .     S
C689   O738    1.290   .     A
C689   O735    1.290   .     A
C690   C721    1.397   .     A
C690   C718    1.397   .     A
C691   N730    1.372   .     A
C691   C1066   1.424   1_545 S
C692   N729    1.372   .     A
C692   C879    1.424   .     S
C693   N730    1.373   .     A
C693   C1064   1.424   1_545 S
C694   N729    1.373   .     A
C694   C877    1.424   .     S
C695   O742    1.290   .     A
C695   O739    1.289   .     A
C695   C701    1.428   .     S
C696   O741    1.290   .     A
C696   C699    1.428   .     S
C696   O740    1.289   .     A
C697   C699    1.391   .     A
C697   C708    1.393   .     A
C698   C709    1.393   .     A
C698   C701    1.391   .     A
C699   C702    1.400   .     A
C700   O737    1.290   .     A
C700   O736    1.290   .     A
C700   C722    1.421   .     S
C701   C703    1.400   .     A
C702   C704    1.412   .     A
C702   C713    1.454   .     S
C703   C705    1.412   .     A
C703   C714    1.454   .     S
C704   C710    1.422   .     A
C704   C706    1.430   .     A
C705   C712    1.422   .     A
C705   C707    1.430   .     A
C706   C708    1.417   .     A
C706   C149    1.410   1_556 S
C707   C709    1.417   .     A
C708   C717    1.395   .     A
C709   C711    1.395   .     A
C710   C715    1.448   .     S
C710   C153    1.382   1_556 S
C711   H723    1.082   .     S
C712   C716    1.447   .     S
C713   N731    1.157   .     T
C714   N732    1.157   .     T
C715   N733    1.158   .     T
C716   N734    1.157   .     T
C717   H724    1.082   .     S
C717   C154    1.382   1_556 S
C718   H725    1.083   .     S
C719   H726    1.083   .     S
C719   C722    1.397   .     A
C719   C597    1.368   1_655 S
C720   C722    1.397   .     A
C720   H727    1.083   .     S
C720   C594    1.368   1_655 S
C721   H728    1.083   .     S
N729   Zn743   2.028   .     S
N730   Zn744   2.028   .     S
O735   Zn743   1.999   .     S
O736   Zn744   1.999   .     S
O737   Zn743   1.999   .     S
O738   Zn744   1.999   .     S
O739   Zn743   2.016   .     S
O740   Zn744   2.016   .     S
O741   Zn743   2.016   .     S
O742   Zn744   2.016   .     S
Br745  C759    1.945   .     S
Br746  C760    1.945   .     S
Br747  C753    1.920   .     S
Br748  C754    1.920   .     S
Br749  C755    1.919   .     S
Br750  C756    1.919   .     S
C751   C752    1.421   .     S
C751   O800    1.290   .     A
C751   O797    1.290   .     A
C752   C783    1.397   .     A
C752   C780    1.397   .     A
C753   N792    1.372   .     A
C754   N791    1.372   .     A
C754   C941    1.424   .     S
C755   N792    1.373   .     A
C756   N791    1.373   .     A
C756   C939    1.424   .     S
C757   O804    1.290   .     A
C757   O801    1.289   .     A
C757   C763    1.428   .     S
C758   O803    1.290   .     A
C758   C761    1.428   .     S
C758   O802    1.289   .     A
C759   C761    1.391   .     A
C759   C770    1.393   .     A
C760   C771    1.393   .     A
C760   C763    1.391   .     A
C761   C764    1.400   .     A
C762   O799    1.290   .     A
C762   O798    1.290   .     A
C762   C784    1.421   .     S
C763   C765    1.400   .     A
C764   C766    1.412   .     A
C764   C775    1.454   .     S
C765   C767    1.412   .     A
C765   C776    1.454   .     S
C766   C772    1.422   .     A
C766   C768    1.430   .     A
C767   C774    1.422   .     A
C767   C769    1.430   .     A
C768   C770    1.417   .     A
C768   C211    1.410   1_556 S
C769   C771    1.417   .     A
C770   C779    1.395   .     A
C771   C773    1.395   .     A
C772   C777    1.448   .     S
C772   C215    1.382   1_556 S
C773   H785    1.082   .     S
C774   C778    1.447   .     S
C775   N793    1.157   .     T
C776   N794    1.157   .     T
C777   N795    1.158   .     T
C778   N796    1.157   .     T
C779   H786    1.082   .     S
C779   C216    1.382   1_556 S
C780   H787    1.083   .     S
C780   C906    1.368   1_455 S
C781   H788    1.083   .     S
C781   C784    1.397   .     A
C781   C845    1.368   .     S
C782   C784    1.397   .     A
C782   H789    1.083   .     S
C782   C842    1.368   .     S
C783   H790    1.083   .     S
C783   C905    1.368   1_455 S
N791   Zn805   2.028   .     S
N792   Zn806   2.028   .     S
O797   Zn805   1.999   .     S
O798   Zn806   1.999   .     S
O799   Zn805   1.999   .     S
O800   Zn806   1.999   .     S
O801   Zn805   2.016   .     S
O802   Zn806   2.016   .     S
O803   Zn805   2.016   .     S
O804   Zn806   2.016   .     S
Br807  C821    1.945   .     S
Br808  C822    1.945   .     S
Br809  C815    1.920   .     S
Br810  C816    1.920   .     S
Br811  C817    1.919   .     S
Br812  C818    1.919   .     S
C813   C814    1.421   .     S
C813   O862    1.290   .     A
C813   O859    1.290   .     A
C814   C845    1.397   .     A
C814   C842    1.397   .     A
C815   N854    1.372   .     A
C816   N853    1.372   .     A
C816   C1003   1.424   .     S
C817   N854    1.373   .     A
C818   N853    1.373   .     A
C818   C1001   1.424   .     S
C819   O866    1.290   .     A
C819   O863    1.289   .     A
C819   C825    1.428   .     S
C820   O865    1.290   .     A
C820   C823    1.428   .     S
C820   O864    1.289   .     A
C821   C823    1.391   .     A
C821   C832    1.393   .     A
C822   C833    1.393   .     A
C822   C825    1.391   .     A
C823   C826    1.400   .     A
C824   O861    1.290   .     A
C824   O860    1.290   .     A
C824   C846    1.421   .     S
C825   C827    1.400   .     A
C826   C828    1.412   .     A
C826   C837    1.454   .     S
C827   C829    1.412   .     A
C827   C838    1.454   .     S
C828   C834    1.422   .     A
C828   C830    1.430   .     A
C829   C836    1.422   .     A
C829   C831    1.430   .     A
C830   C832    1.417   .     A
C830   C273    1.410   1_556 S
C831   C833    1.417   .     A
C832   C841    1.395   .     A
C833   C835    1.395   .     A
C834   C839    1.448   .     S
C834   C277    1.382   1_556 S
C835   H847    1.082   .     S
C836   C840    1.447   .     S
C837   N855    1.157   .     T
C838   N856    1.157   .     T
C839   N857    1.158   .     T
C840   N858    1.157   .     T
C841   H848    1.082   .     S
C841   C278    1.382   1_556 S
C842   H849    1.083   .     S
C843   H850    1.083   .     S
C843   C846    1.397   .     A
C843   C907    1.368   .     S
C844   C846    1.397   .     A
C844   H851    1.083   .     S
C844   C904    1.368   .     S
C845   H852    1.083   .     S
N853   Zn867   2.028   .     S
N854   Zn868   2.028   .     S
O859   Zn867   1.999   .     S
O860   Zn868   1.999   .     S
O861   Zn867   1.999   .     S
O862   Zn868   1.999   .     S
O863   Zn867   2.016   .     S
O864   Zn868   2.016   .     S
O865   Zn867   2.016   .     S
O866   Zn868   2.016   .     S
Br869  C883    1.945   .     S
Br870  C884    1.945   .     S
Br871  C877    1.920   .     S
Br872  C878    1.920   .     S
Br873  C879    1.919   .     S
Br874  C880    1.919   .     S
C875   C876    1.421   .     S
C875   O924    1.290   .     A
C875   O921    1.290   .     A
C876   C907    1.397   .     A
C876   C904    1.397   .     A
C877   N916    1.372   .     A
C878   N915    1.372   .     A
C878   C1065   1.424   .     S
C879   N916    1.373   .     A
C880   N915    1.373   .     A
C880   C1063   1.424   .     S
C881   O928    1.290   .     A
C881   O925    1.289   .     A
C881   C887    1.428   .     S
C882   O927    1.290   .     A
C882   C885    1.428   .     S
C882   O926    1.289   .     A
C883   C885    1.391   .     A
C883   C894    1.393   .     A
C884   C895    1.393   .     A
C884   C887    1.391   .     A
C885   C888    1.400   .     A
C886   O923    1.290   .     A
C886   O922    1.290   .     A
C886   C908    1.421   .     S
C887   C889    1.400   .     A
C888   C890    1.412   .     A
C888   C899    1.454   .     S
C889   C891    1.412   .     A
C889   C900    1.454   .     S
C890   C896    1.422   .     A
C890   C892    1.430   .     A
C891   C898    1.422   .     A
C891   C893    1.430   .     A
C892   C894    1.417   .     A
C892   C335    1.410   1_556 S
C893   C895    1.417   .     A
C894   C903    1.395   .     A
C895   C897    1.395   .     A
C896   C901    1.448   .     S
C896   C339    1.382   1_556 S
C897   H909    1.082   .     S
C898   C902    1.447   .     S
C899   N917    1.157   .     T
C900   N918    1.157   .     T
C901   N919    1.158   .     T
C902   N920    1.157   .     T
C903   H910    1.082   .     S
C903   C340    1.382   1_556 S
C904   H911    1.083   .     S
C905   H912    1.083   .     S
C905   C908    1.397   .     A
C905   C783    1.368   1_655 S
C906   C908    1.397   .     A
C906   H913    1.083   .     S
C906   C780    1.368   1_655 S
C907   H914    1.083   .     S
N915   Zn929   2.028   .     S
N916   Zn930   2.028   .     S
O921   Zn929   1.999   .     S
O922   Zn930   1.999   .     S
O923   Zn929   1.999   .     S
O924   Zn930   1.999   .     S
O925   Zn929   2.016   .     S
O926   Zn930   2.016   .     S
O927   Zn929   2.016   .     S
O928   Zn930   2.016   .     S
Br931  C945    1.945   .     S
Br932  C946    1.945   .     S
Br933  C939    1.920   .     S
Br934  C940    1.920   .     S
Br935  C941    1.919   .     S
Br936  C942    1.919   .     S
C937   C938    1.421   .     S
C937   O986    1.290   .     A
C937   O983    1.290   .     A
C938   C969    1.397   .     A
C938   C966    1.397   .     A
C939   N978    1.372   .     A
C940   N977    1.372   .     A
C940   C569    1.424   1_565 S
C941   N978    1.373   .     A
C942   N977    1.373   .     A
C942   C567    1.424   1_565 S
C943   O990    1.290   .     A
C943   O987    1.289   .     A
C943   C949    1.428   .     S
C944   O989    1.290   .     A
C944   C947    1.428   .     S
C944   O988    1.289   .     A
C945   C947    1.391   .     A
C945   C956    1.393   .     A
C946   C957    1.393   .     A
C946   C949    1.391   .     A
C947   C950    1.400   .     A
C948   O985    1.290   .     A
C948   O984    1.290   .     A
C948   C970    1.421   .     S
C949   C951    1.400   .     A
C950   C952    1.412   .     A
C950   C961    1.454   .     S
C951   C953    1.412   .     A
C951   C962    1.454   .     S
C952   C958    1.422   .     A
C952   C954    1.430   .     A
C953   C960    1.422   .     A
C953   C955    1.430   .     A
C954   C956    1.417   .     A
C954   C397    1.410   1_556 S
C955   C957    1.417   .     A
C956   C965    1.395   .     A
C957   C959    1.395   .     A
C958   C963    1.448   .     S
C958   C401    1.382   1_556 S
C959   H971    1.082   .     S
C960   C964    1.447   .     S
C961   N979    1.157   .     T
C962   N980    1.157   .     T
C963   N981    1.158   .     T
C964   N982    1.157   .     T
C965   H972    1.082   .     S
C965   C402    1.382   1_556 S
C966   H973    1.083   .     S
C966   C1092   1.368   1_455 S
C967   H974    1.083   .     S
C967   C970    1.397   .     A
C967   C1031   1.368   .     S
C968   C970    1.397   .     A
C968   H975    1.083   .     S
C968   C1028   1.368   .     S
C969   H976    1.083   .     S
C969   C1091   1.368   1_455 S
N977   Zn991   2.028   .     S
N978   Zn992   2.028   .     S
O983   Zn991   1.999   .     S
O984   Zn992   1.999   .     S
O985   Zn991   1.999   .     S
O986   Zn992   1.999   .     S
O987   Zn991   2.016   .     S
O988   Zn992   2.016   .     S
O989   Zn991   2.016   .     S
O990   Zn992   2.016   .     S
Br993  C1007   1.945   .     S
Br994  C1008   1.945   .     S
Br995  C1001   1.920   .     S
Br996  C1002   1.920   .     S
Br997  C1003   1.919   .     S
Br998  C1004   1.919   .     S
C999   C1000   1.421   .     S
C999   O1048   1.290   .     A
C999   O1045   1.290   .     A
C1000  C1031   1.397   .     A
C1000  C1028   1.397   .     A
C1001  N1040   1.372   .     A
C1002  N1039   1.372   .     A
C1002  C631    1.424   1_565 S
C1003  N1040   1.373   .     A
C1004  N1039   1.373   .     A
C1004  C629    1.424   1_565 S
C1005  O1052   1.290   .     A
C1005  O1049   1.289   .     A
C1005  C1011   1.428   .     S
C1006  O1051   1.290   .     A
C1006  C1009   1.428   .     S
C1006  O1050   1.289   .     A
C1007  C1009   1.391   .     A
C1007  C1018   1.393   .     A
C1008  C1019   1.393   .     A
C1008  C1011   1.391   .     A
C1009  C1012   1.400   .     A
C1010  O1047   1.290   .     A
C1010  O1046   1.290   .     A
C1010  C1032   1.421   .     S
C1011  C1013   1.400   .     A
C1012  C1014   1.412   .     A
C1012  C1023   1.454   .     S
C1013  C1015   1.412   .     A
C1013  C1024   1.454   .     S
C1014  C1020   1.422   .     A
C1014  C1016   1.430   .     A
C1015  C1022   1.422   .     A
C1015  C1017   1.430   .     A
C1016  C1018   1.417   .     A
C1016  C459    1.410   1_556 S
C1017  C1019   1.417   .     A
C1018  C1027   1.395   .     A
C1019  C1021   1.395   .     A
C1020  C1025   1.448   .     S
C1020  C463    1.382   1_556 S
C1021  H1033   1.082   .     S
C1022  C1026   1.447   .     S
C1023  N1041   1.157   .     T
C1024  N1042   1.157   .     T
C1025  N1043   1.158   .     T
C1026  N1044   1.157   .     T
C1027  H1034   1.082   .     S
C1027  C464    1.382   1_556 S
C1028  H1035   1.083   .     S
C1029  H1036   1.083   .     S
C1029  C1032   1.397   .     A
C1029  C1093   1.368   .     S
C1030  C1032   1.397   .     A
C1030  H1037   1.083   .     S
C1030  C1090   1.368   .     S
C1031  H1038   1.083   .     S
N1039  Zn1053  2.028   .     S
N1040  Zn1054  2.028   .     S
O1045  Zn1053  1.999   .     S
O1046  Zn1054  1.999   .     S
O1047  Zn1053  1.999   .     S
O1048  Zn1054  1.999   .     S
O1049  Zn1053  2.016   .     S
O1050  Zn1054  2.016   .     S
O1051  Zn1053  2.016   .     S
O1052  Zn1054  2.016   .     S
Br1055 C1069   1.945   .     S
Br1056 C1070   1.945   .     S
Br1057 C1063   1.920   .     S
Br1058 C1064   1.920   .     S
Br1059 C1065   1.919   .     S
Br1060 C1066   1.919   .     S
C1061  C1062   1.421   .     S
C1061  O1110   1.290   .     A
C1061  O1107   1.290   .     A
C1062  C1093   1.397   .     A
C1062  C1090   1.397   .     A
C1063  N1102   1.372   .     A
C1064  N1101   1.372   .     A
C1064  C693    1.424   1_565 S
C1065  N1102   1.373   .     A
C1066  N1101   1.373   .     A
C1066  C691    1.424   1_565 S
C1067  O1114   1.290   .     A
C1067  O1111   1.289   .     A
C1067  C1073   1.428   .     S
C1068  O1113   1.290   .     A
C1068  C1071   1.428   .     S
C1068  O1112   1.289   .     A
C1069  C1071   1.391   .     A
C1069  C1080   1.393   .     A
C1070  C1081   1.393   .     A
C1070  C1073   1.391   .     A
C1071  C1074   1.400   .     A
C1072  O1109   1.290   .     A
C1072  O1108   1.290   .     A
C1072  C1094   1.421   .     S
C1073  C1075   1.400   .     A
C1074  C1076   1.412   .     A
C1074  C1085   1.454   .     S
C1075  C1077   1.412   .     A
C1075  C1086   1.454   .     S
C1076  C1082   1.422   .     A
C1076  C1078   1.430   .     A
C1077  C1084   1.422   .     A
C1077  C1079   1.430   .     A
C1078  C1080   1.417   .     A
C1078  C521    1.410   1_556 S
C1079  C1081   1.417   .     A
C1080  C1089   1.395   .     A
C1081  C1083   1.395   .     A
C1082  C1087   1.448   .     S
C1082  C525    1.382   1_556 S
C1083  H1095   1.082   .     S
C1084  C1088   1.447   .     S
C1085  N1103   1.157   .     T
C1086  N1104   1.157   .     T
C1087  N1105   1.158   .     T
C1088  N1106   1.157   .     T
C1089  H1096   1.082   .     S
C1089  C526    1.382   1_556 S
C1090  H1097   1.083   .     S
C1091  H1098   1.083   .     S
C1091  C1094   1.397   .     A
C1091  C969    1.368   1_655 S
C1092  C1094   1.397   .     A
C1092  H1099   1.083   .     S
C1092  C966    1.368   1_655 S
C1093  H1100   1.083   .     S
N1101  Zn1115  2.028   .     S
N1102  Zn1116  2.028   .     S
O1107  Zn1115  1.999   .     S
O1108  Zn1116  1.999   .     S
O1109  Zn1115  1.999   .     S
O1110  Zn1116  1.999   .     S
O1111  Zn1115  2.016   .     S
O1112  Zn1116  2.016   .     S
O1113  Zn1115  2.016   .     S
O1114  Zn1116  2.016   .     S
