data_str_m3_o1_o18_pcu_sym.29
_audit_creation_date              2020-01-03
_audit_creation_method            'Materials Studio'
_symmetry_space_group_name_H-M    'P1'
_symmetry_Int_Tables_number       1
_symmetry_cell_setting            triclinic
loop_
_symmetry_equiv_pos_as_xyz
  x,y,z
_cell_length_a                    29.6753
_cell_length_b                    31.7825
_cell_length_c                    30.6109
_cell_angle_alpha                 91.3130
_cell_angle_beta                  68.0961
_cell_angle_gamma                 91.0364
loop_
_atom_site_label
_atom_site_type_symbol
_atom_site_fract_x
_atom_site_fract_y
_atom_site_fract_z
_atom_site_U_iso_or_equiv
_atom_site_adp_type
_atom_site_occupancy
Br1    Br    0.02073   0.23388   0.06835   0.00000  Uiso   1.00
Br2    Br    0.24103   0.03686   0.47680   0.00000  Uiso   1.00
Br3    Br    0.31679   0.20684   0.48767   0.00000  Uiso   1.00
Br4    Br    0.31607   0.08450   0.01344   0.00000  Uiso   1.00
Br5    Br    0.07471   0.18695   0.12603   0.00000  Uiso   1.00
Br6    Br    0.16588   0.06417   0.42856   0.00000  Uiso   1.00
Br7    Br    0.07428   0.09329   0.18822   0.00000  Uiso   1.00
Br8    Br    0.25697   0.23659   0.31619   0.00000  Uiso   1.00
C9     C     0.16681   0.24650   0.25054   0.00000  Uiso   1.00
C10    C     0.18021   0.31005   0.20787   0.00000  Uiso   1.00
C11    C     0.16604   0.04265   0.24894   0.00000  Uiso   1.00
C12    C     0.16716   0.29064   0.25123   0.00000  Uiso   1.00
C13    C     0.31810   0.13704   0.22491   0.00000  Uiso   1.00
C14    C     0.01494   0.19585   0.27575   0.00000  Uiso   1.00
C15    C     0.03231   0.13655   0.22525   0.00000  Uiso   1.00
C16    C     0.30039   0.19574   0.27623   0.00000  Uiso   1.00
C17    C     0.13619   0.16727   0.33819   0.00000  Uiso   1.00
C18    C     0.19704   0.16714   0.16170   0.00000  Uiso   1.00
C19    C     0.11570   0.16989   0.38946   0.00000  Uiso   1.00
C20    C     0.16648   0.08682   0.24956   0.00000  Uiso   1.00
C21    C     0.21490   0.16019   0.11079   0.00000  Uiso   1.00
C22    C     0.05081   0.19110   0.46194   0.00000  Uiso   1.00
C23    C     0.25537   0.11237   0.04623   0.00000  Uiso   1.00
C24    C     0.06909   0.18548   0.41317   0.00000  Uiso   1.00
C25    C     0.25184   0.13171   0.08876   0.00000  Uiso   1.00
C26    C     0.14240   0.15607   0.41486   0.00000  Uiso   1.00
C27    C     0.18612   0.17352   0.08718   0.00000  Uiso   1.00
C28    C     0.12321   0.15741   0.46407   0.00000  Uiso   1.00
C29    C     0.18165   0.14922   0.05034   0.00000  Uiso   1.00
C30    C     0.08021   0.18071   0.48790   0.00000  Uiso   1.00
C31    C     0.10076   0.18015   0.05826   0.00000  Uiso   1.00
C32    C     0.21730   0.11760   0.02884   0.00000  Uiso   1.00
C33    C     0.14950   0.13965   0.48895   0.00000  Uiso   1.00
C34    C     0.14390   0.15677   0.03333   0.00000  Uiso   1.00
C35    C     0.13813   0.29193   0.34029   0.00000  Uiso   1.00
C36    C     0.19362   0.04123   0.15999   0.00000  Uiso   1.00
C37    C     0.17897   0.10357   0.47200   0.00000  Uiso   1.00
C38    C     0.06982   0.19275   0.03545   0.00000  Uiso   1.00
C39    C     0.21189   0.09190   0.49271   0.00000  Uiso   1.00
C40    C     0.15305   0.31317   0.29414   0.00000  Uiso   1.00
C41    C     0.17977   0.02008   0.20608   0.00000  Uiso   1.00
C42    C     0.15294   0.02323   0.29232   0.00000  Uiso   1.00
H43    H     0.16564   0.20182   0.10000   0.00000  Uiso   1.00
H44    H     0.19209   0.07514   0.15848   0.00000  Uiso   1.00
H45    H     0.17888   0.14471   0.39600   0.00000  Uiso   1.00
H46    H     0.27702   0.12354   0.10523   0.00000  Uiso   1.00
H47    H     0.04697   0.19417   0.39357   0.00000  Uiso   1.00
H48    H     0.14268   0.04214   0.32447   0.00000  Uiso   1.00
H49    H     0.19042   0.29113   0.17572   0.00000  Uiso   1.00
H50    H     0.30712   0.11363   0.20453   0.00000  Uiso   1.00
H51    H     0.02579   0.21905   0.29644   0.00000  Uiso   1.00
H52    H     0.13849   0.25793   0.34196   0.00000  Uiso   1.00
N53    N     0.04759   0.16668   0.25001   0.00000  Uiso   1.00
N54    N     0.28574   0.16666   0.24999   0.00000  Uiso   1.00
O55    O     0.12846   0.22775   0.25000   0.00000  Uiso   1.00
O56    O     0.20679   0.02097   0.12305   0.00000  Uiso   1.00
O57    O     0.20488   0.10558   0.24999   0.00000  Uiso   1.00
O58    O     0.20490   0.22774   0.25000   0.00000  Uiso   1.00
O59    O     0.12843   0.10559   0.25000   0.00000  Uiso   1.00
O60    O     0.10661   0.16667   0.31612   0.00000  Uiso   1.00
O61    O     0.22672   0.16666   0.18387   0.00000  Uiso   1.00
O62    O     0.18305   0.16666   0.31612   0.00000  Uiso   1.00
O63    O     0.15028   0.16667   0.18388   0.00000  Uiso   1.00
O64    O     0.12509   0.31221   0.37720   0.00000  Uiso   1.00
Zn65   Zn    0.11562   0.16667   0.25000   0.00000  Uiso   1.00
Zn66   Zn    0.21771   0.16666   0.25000   0.00000  Uiso   1.00
Br67   Br    0.35406   0.23388   0.06835   0.00000  Uiso   1.00
Br68   Br    0.57436   0.03686   0.47680   0.00000  Uiso   1.00
Br69   Br    0.65013   0.20684   0.48767   0.00000  Uiso   1.00
Br70   Br    0.64940   0.08450   0.01344   0.00000  Uiso   1.00
Br71   Br    0.40805   0.18695   0.12603   0.00000  Uiso   1.00
Br72   Br    0.49921   0.06417   0.42856   0.00000  Uiso   1.00
Br73   Br    0.40762   0.09329   0.18822   0.00000  Uiso   1.00
Br74   Br    0.59031   0.23659   0.31619   0.00000  Uiso   1.00
C75    C     0.50014   0.24650   0.25054   0.00000  Uiso   1.00
C76    C     0.51354   0.31005   0.20787   0.00000  Uiso   1.00
C77    C     0.49937   0.04265   0.24894   0.00000  Uiso   1.00
C78    C     0.50049   0.29064   0.25123   0.00000  Uiso   1.00
C79    C     0.65143   0.13704   0.22491   0.00000  Uiso   1.00
C80    C     0.34828   0.19585   0.27575   0.00000  Uiso   1.00
C81    C     0.36565   0.13655   0.22525   0.00000  Uiso   1.00
C82    C     0.63372   0.19574   0.27623   0.00000  Uiso   1.00
C83    C     0.46953   0.16727   0.33819   0.00000  Uiso   1.00
C84    C     0.53037   0.16714   0.16170   0.00000  Uiso   1.00
C85    C     0.44903   0.16989   0.38946   0.00000  Uiso   1.00
C86    C     0.49981   0.08682   0.24956   0.00000  Uiso   1.00
C87    C     0.54823   0.16019   0.11079   0.00000  Uiso   1.00
C88    C     0.38414   0.19110   0.46194   0.00000  Uiso   1.00
C89    C     0.58871   0.11237   0.04623   0.00000  Uiso   1.00
C90    C     0.40242   0.18548   0.41317   0.00000  Uiso   1.00
C91    C     0.58517   0.13171   0.08876   0.00000  Uiso   1.00
C92    C     0.47574   0.15607   0.41486   0.00000  Uiso   1.00
C93    C     0.51946   0.17352   0.08718   0.00000  Uiso   1.00
C94    C     0.45654   0.15741   0.46407   0.00000  Uiso   1.00
C95    C     0.51499   0.14922   0.05034   0.00000  Uiso   1.00
C96    C     0.41355   0.18071   0.48790   0.00000  Uiso   1.00
C97    C     0.43409   0.18015   0.05826   0.00000  Uiso   1.00
C98    C     0.55064   0.11760   0.02884   0.00000  Uiso   1.00
C99    C     0.48283   0.13965   0.48895   0.00000  Uiso   1.00
C100   C     0.47723   0.15677   0.03333   0.00000  Uiso   1.00
C101   C     0.47147   0.29193   0.34029   0.00000  Uiso   1.00
C102   C     0.52696   0.04123   0.15999   0.00000  Uiso   1.00
C103   C     0.51230   0.10357   0.47200   0.00000  Uiso   1.00
C104   C     0.40315   0.19275   0.03545   0.00000  Uiso   1.00
C105   C     0.54523   0.09190   0.49271   0.00000  Uiso   1.00
C106   C     0.48639   0.31317   0.29414   0.00000  Uiso   1.00
C107   C     0.51311   0.02008   0.20608   0.00000  Uiso   1.00
C108   C     0.48627   0.02323   0.29232   0.00000  Uiso   1.00
H109   H     0.49898   0.20182   0.10000   0.00000  Uiso   1.00
H110   H     0.52543   0.07514   0.15848   0.00000  Uiso   1.00
H111   H     0.51221   0.14471   0.39600   0.00000  Uiso   1.00
H112   H     0.61035   0.12354   0.10523   0.00000  Uiso   1.00
H113   H     0.38031   0.19417   0.39357   0.00000  Uiso   1.00
H114   H     0.47602   0.04214   0.32447   0.00000  Uiso   1.00
H115   H     0.52375   0.29113   0.17572   0.00000  Uiso   1.00
H116   H     0.64045   0.11363   0.20453   0.00000  Uiso   1.00
H117   H     0.35912   0.21905   0.29644   0.00000  Uiso   1.00
H118   H     0.47182   0.25793   0.34196   0.00000  Uiso   1.00
N119   N     0.38093   0.16668   0.25001   0.00000  Uiso   1.00
N120   N     0.61907   0.16666   0.24999   0.00000  Uiso   1.00
O121   O     0.46179   0.22775   0.25000   0.00000  Uiso   1.00
O122   O     0.54013   0.02097   0.12305   0.00000  Uiso   1.00
O123   O     0.53821   0.10558   0.24999   0.00000  Uiso   1.00
O124   O     0.53823   0.22774   0.25000   0.00000  Uiso   1.00
O125   O     0.46177   0.10559   0.25000   0.00000  Uiso   1.00
O126   O     0.43994   0.16667   0.31612   0.00000  Uiso   1.00
O127   O     0.56006   0.16666   0.18387   0.00000  Uiso   1.00
O128   O     0.51639   0.16666   0.31612   0.00000  Uiso   1.00
O129   O     0.48361   0.16667   0.18388   0.00000  Uiso   1.00
O130   O     0.45842   0.31221   0.37720   0.00000  Uiso   1.00
Zn131  Zn    0.44896   0.16667   0.25000   0.00000  Uiso   1.00
Zn132  Zn    0.55104   0.16666   0.25000   0.00000  Uiso   1.00
Br133  Br    0.68740   0.23388   0.06835   0.00000  Uiso   1.00
Br134  Br    0.90770   0.03686   0.47680   0.00000  Uiso   1.00
Br135  Br    0.98346   0.20684   0.48767   0.00000  Uiso   1.00
Br136  Br    0.98274   0.08450   0.01344   0.00000  Uiso   1.00
Br137  Br    0.74138   0.18695   0.12603   0.00000  Uiso   1.00
Br138  Br    0.83254   0.06417   0.42856   0.00000  Uiso   1.00
Br139  Br    0.74095   0.09329   0.18822   0.00000  Uiso   1.00
Br140  Br    0.92364   0.23659   0.31619   0.00000  Uiso   1.00
C141   C     0.83348   0.24650   0.25054   0.00000  Uiso   1.00
C142   C     0.84687   0.31005   0.20787   0.00000  Uiso   1.00
C143   C     0.83271   0.04265   0.24894   0.00000  Uiso   1.00
C144   C     0.83382   0.29064   0.25123   0.00000  Uiso   1.00
C145   C     0.98476   0.13704   0.22491   0.00000  Uiso   1.00
C146   C     0.68161   0.19585   0.27575   0.00000  Uiso   1.00
C147   C     0.69898   0.13655   0.22525   0.00000  Uiso   1.00
C148   C     0.96706   0.19574   0.27623   0.00000  Uiso   1.00
C149   C     0.80286   0.16727   0.33819   0.00000  Uiso   1.00
C150   C     0.86371   0.16714   0.16170   0.00000  Uiso   1.00
C151   C     0.78236   0.16989   0.38946   0.00000  Uiso   1.00
C152   C     0.83314   0.08682   0.24956   0.00000  Uiso   1.00
C153   C     0.88157   0.16019   0.11079   0.00000  Uiso   1.00
C154   C     0.71747   0.19110   0.46194   0.00000  Uiso   1.00
C155   C     0.92204   0.11237   0.04623   0.00000  Uiso   1.00
C156   C     0.73575   0.18548   0.41317   0.00000  Uiso   1.00
C157   C     0.91850   0.13171   0.08876   0.00000  Uiso   1.00
C158   C     0.80907   0.15607   0.41486   0.00000  Uiso   1.00
C159   C     0.85279   0.17352   0.08718   0.00000  Uiso   1.00
C160   C     0.78988   0.15741   0.46407   0.00000  Uiso   1.00
C161   C     0.84832   0.14922   0.05034   0.00000  Uiso   1.00
C162   C     0.74688   0.18071   0.48790   0.00000  Uiso   1.00
C163   C     0.76742   0.18015   0.05826   0.00000  Uiso   1.00
C164   C     0.88397   0.11760   0.02884   0.00000  Uiso   1.00
C165   C     0.81617   0.13965   0.48895   0.00000  Uiso   1.00
C166   C     0.81057   0.15677   0.03333   0.00000  Uiso   1.00
C167   C     0.80480   0.29193   0.34029   0.00000  Uiso   1.00
C168   C     0.86029   0.04123   0.15999   0.00000  Uiso   1.00
C169   C     0.84563   0.10357   0.47200   0.00000  Uiso   1.00
C170   C     0.73649   0.19275   0.03545   0.00000  Uiso   1.00
C171   C     0.87856   0.09190   0.49271   0.00000  Uiso   1.00
C172   C     0.81972   0.31317   0.29414   0.00000  Uiso   1.00
C173   C     0.84644   0.02008   0.20608   0.00000  Uiso   1.00
C174   C     0.81961   0.02323   0.29232   0.00000  Uiso   1.00
H175   H     0.83231   0.20182   0.10000   0.00000  Uiso   1.00
H176   H     0.85876   0.07514   0.15848   0.00000  Uiso   1.00
H177   H     0.84555   0.14471   0.39600   0.00000  Uiso   1.00
H178   H     0.94368   0.12354   0.10523   0.00000  Uiso   1.00
H179   H     0.71364   0.19417   0.39357   0.00000  Uiso   1.00
H180   H     0.80935   0.04214   0.32447   0.00000  Uiso   1.00
H181   H     0.85708   0.29113   0.17572   0.00000  Uiso   1.00
H182   H     0.97378   0.11363   0.20453   0.00000  Uiso   1.00
H183   H     0.69245   0.21905   0.29644   0.00000  Uiso   1.00
H184   H     0.80515   0.25793   0.34196   0.00000  Uiso   1.00
N185   N     0.71426   0.16668   0.25001   0.00000  Uiso   1.00
N186   N     0.95241   0.16666   0.24999   0.00000  Uiso   1.00
O187   O     0.79512   0.22775   0.25000   0.00000  Uiso   1.00
O188   O     0.87346   0.02097   0.12305   0.00000  Uiso   1.00
O189   O     0.87154   0.10558   0.24999   0.00000  Uiso   1.00
O190   O     0.87157   0.22774   0.25000   0.00000  Uiso   1.00
O191   O     0.79510   0.10559   0.25000   0.00000  Uiso   1.00
O192   O     0.77328   0.16667   0.31612   0.00000  Uiso   1.00
O193   O     0.89339   0.16666   0.18387   0.00000  Uiso   1.00
O194   O     0.84972   0.16666   0.31612   0.00000  Uiso   1.00
O195   O     0.81695   0.16667   0.18388   0.00000  Uiso   1.00
O196   O     0.79176   0.31221   0.37720   0.00000  Uiso   1.00
Zn197  Zn    0.78229   0.16667   0.25000   0.00000  Uiso   1.00
Zn198  Zn    0.88438   0.16666   0.25000   0.00000  Uiso   1.00
Br199  Br    0.02073   0.56721   0.06835   0.00000  Uiso   1.00
Br200  Br    0.24103   0.37019   0.47680   0.00000  Uiso   1.00
Br201  Br    0.31679   0.54017   0.48767   0.00000  Uiso   1.00
Br202  Br    0.31607   0.41783   0.01344   0.00000  Uiso   1.00
Br203  Br    0.07471   0.52028   0.12603   0.00000  Uiso   1.00
Br204  Br    0.16588   0.39750   0.42856   0.00000  Uiso   1.00
Br205  Br    0.07428   0.42662   0.18822   0.00000  Uiso   1.00
Br206  Br    0.25697   0.56992   0.31619   0.00000  Uiso   1.00
C207   C     0.16681   0.57983   0.25054   0.00000  Uiso   1.00
C208   C     0.18021   0.64338   0.20787   0.00000  Uiso   1.00
C209   C     0.16604   0.37599   0.24894   0.00000  Uiso   1.00
C210   C     0.16716   0.62397   0.25123   0.00000  Uiso   1.00
C211   C     0.31810   0.47037   0.22491   0.00000  Uiso   1.00
C212   C     0.01494   0.52918   0.27575   0.00000  Uiso   1.00
C213   C     0.03231   0.46989   0.22525   0.00000  Uiso   1.00
C214   C     0.30039   0.52907   0.27623   0.00000  Uiso   1.00
C215   C     0.13619   0.50060   0.33819   0.00000  Uiso   1.00
C216   C     0.19704   0.50048   0.16170   0.00000  Uiso   1.00
C217   C     0.11570   0.50323   0.38946   0.00000  Uiso   1.00
C218   C     0.16648   0.42015   0.24956   0.00000  Uiso   1.00
C219   C     0.21490   0.49352   0.11079   0.00000  Uiso   1.00
C220   C     0.05081   0.52443   0.46194   0.00000  Uiso   1.00
C221   C     0.25537   0.44570   0.04623   0.00000  Uiso   1.00
C222   C     0.06909   0.51882   0.41317   0.00000  Uiso   1.00
C223   C     0.25184   0.46505   0.08876   0.00000  Uiso   1.00
C224   C     0.14240   0.48940   0.41486   0.00000  Uiso   1.00
C225   C     0.18612   0.50686   0.08718   0.00000  Uiso   1.00
C226   C     0.12321   0.49074   0.46407   0.00000  Uiso   1.00
C227   C     0.18165   0.48255   0.05034   0.00000  Uiso   1.00
C228   C     0.08021   0.51404   0.48790   0.00000  Uiso   1.00
C229   C     0.10076   0.51349   0.05826   0.00000  Uiso   1.00
C230   C     0.21730   0.45094   0.02884   0.00000  Uiso   1.00
C231   C     0.14950   0.47298   0.48895   0.00000  Uiso   1.00
C232   C     0.14390   0.49011   0.03333   0.00000  Uiso   1.00
C233   C     0.13813   0.62526   0.34029   0.00000  Uiso   1.00
C234   C     0.19362   0.37456   0.15999   0.00000  Uiso   1.00
C235   C     0.17897   0.43690   0.47200   0.00000  Uiso   1.00
C236   C     0.06982   0.52608   0.03545   0.00000  Uiso   1.00
C237   C     0.21189   0.42523   0.49271   0.00000  Uiso   1.00
C238   C     0.15305   0.64650   0.29414   0.00000  Uiso   1.00
C239   C     0.17977   0.35341   0.20608   0.00000  Uiso   1.00
C240   C     0.15294   0.35656   0.29232   0.00000  Uiso   1.00
H241   H     0.16564   0.53516   0.10000   0.00000  Uiso   1.00
H242   H     0.19209   0.40848   0.15848   0.00000  Uiso   1.00
H243   H     0.17888   0.47804   0.39600   0.00000  Uiso   1.00
H244   H     0.27702   0.45687   0.10523   0.00000  Uiso   1.00
H245   H     0.04697   0.52750   0.39357   0.00000  Uiso   1.00
H246   H     0.14268   0.37548   0.32447   0.00000  Uiso   1.00
H247   H     0.19042   0.62447   0.17572   0.00000  Uiso   1.00
H248   H     0.30712   0.44696   0.20453   0.00000  Uiso   1.00
H249   H     0.02579   0.55239   0.29644   0.00000  Uiso   1.00
H250   H     0.13849   0.59126   0.34196   0.00000  Uiso   1.00
N251   N     0.04759   0.50001   0.25001   0.00000  Uiso   1.00
N252   N     0.28574   0.49999   0.24999   0.00000  Uiso   1.00
O253   O     0.12846   0.56108   0.25000   0.00000  Uiso   1.00
O254   O     0.20679   0.35430   0.12305   0.00000  Uiso   1.00
O255   O     0.20488   0.43892   0.24999   0.00000  Uiso   1.00
O256   O     0.20490   0.56107   0.25000   0.00000  Uiso   1.00
O257   O     0.12843   0.43893   0.25000   0.00000  Uiso   1.00
O258   O     0.10661   0.50001   0.31612   0.00000  Uiso   1.00
O259   O     0.22672   0.49999   0.18387   0.00000  Uiso   1.00
O260   O     0.18305   0.50000   0.31612   0.00000  Uiso   1.00
O261   O     0.15028   0.50000   0.18388   0.00000  Uiso   1.00
O262   O     0.12509   0.64554   0.37720   0.00000  Uiso   1.00
Zn263  Zn    0.11562   0.50001   0.25000   0.00000  Uiso   1.00
Zn264  Zn    0.21771   0.49999   0.25000   0.00000  Uiso   1.00
Br265  Br    0.35406   0.56721   0.06835   0.00000  Uiso   1.00
Br266  Br    0.57436   0.37019   0.47680   0.00000  Uiso   1.00
Br267  Br    0.65013   0.54017   0.48767   0.00000  Uiso   1.00
Br268  Br    0.64940   0.41783   0.01344   0.00000  Uiso   1.00
Br269  Br    0.40805   0.52028   0.12603   0.00000  Uiso   1.00
Br270  Br    0.49921   0.39750   0.42856   0.00000  Uiso   1.00
Br271  Br    0.40762   0.42662   0.18822   0.00000  Uiso   1.00
Br272  Br    0.59031   0.56992   0.31619   0.00000  Uiso   1.00
C273   C     0.50014   0.57983   0.25054   0.00000  Uiso   1.00
C274   C     0.51354   0.64338   0.20787   0.00000  Uiso   1.00
C275   C     0.49937   0.37599   0.24894   0.00000  Uiso   1.00
C276   C     0.50049   0.62397   0.25123   0.00000  Uiso   1.00
C277   C     0.65143   0.47037   0.22491   0.00000  Uiso   1.00
C278   C     0.34828   0.52918   0.27575   0.00000  Uiso   1.00
C279   C     0.36565   0.46989   0.22525   0.00000  Uiso   1.00
C280   C     0.63372   0.52907   0.27623   0.00000  Uiso   1.00
C281   C     0.46953   0.50060   0.33819   0.00000  Uiso   1.00
C282   C     0.53037   0.50048   0.16170   0.00000  Uiso   1.00
C283   C     0.44903   0.50323   0.38946   0.00000  Uiso   1.00
C284   C     0.49981   0.42015   0.24956   0.00000  Uiso   1.00
C285   C     0.54823   0.49352   0.11079   0.00000  Uiso   1.00
C286   C     0.38414   0.52443   0.46194   0.00000  Uiso   1.00
C287   C     0.58871   0.44570   0.04623   0.00000  Uiso   1.00
C288   C     0.40242   0.51882   0.41317   0.00000  Uiso   1.00
C289   C     0.58517   0.46505   0.08876   0.00000  Uiso   1.00
C290   C     0.47574   0.48940   0.41486   0.00000  Uiso   1.00
C291   C     0.51946   0.50686   0.08718   0.00000  Uiso   1.00
C292   C     0.45654   0.49074   0.46407   0.00000  Uiso   1.00
C293   C     0.51499   0.48255   0.05034   0.00000  Uiso   1.00
C294   C     0.41355   0.51404   0.48790   0.00000  Uiso   1.00
C295   C     0.43409   0.51349   0.05826   0.00000  Uiso   1.00
C296   C     0.55064   0.45094   0.02884   0.00000  Uiso   1.00
C297   C     0.48283   0.47298   0.48895   0.00000  Uiso   1.00
C298   C     0.47723   0.49011   0.03333   0.00000  Uiso   1.00
C299   C     0.47147   0.62526   0.34029   0.00000  Uiso   1.00
C300   C     0.52696   0.37456   0.15999   0.00000  Uiso   1.00
C301   C     0.51230   0.43690   0.47200   0.00000  Uiso   1.00
C302   C     0.40315   0.52608   0.03545   0.00000  Uiso   1.00
C303   C     0.54523   0.42523   0.49271   0.00000  Uiso   1.00
C304   C     0.48639   0.64650   0.29414   0.00000  Uiso   1.00
C305   C     0.51311   0.35341   0.20608   0.00000  Uiso   1.00
C306   C     0.48627   0.35656   0.29232   0.00000  Uiso   1.00
H307   H     0.49898   0.53516   0.10000   0.00000  Uiso   1.00
H308   H     0.52543   0.40848   0.15848   0.00000  Uiso   1.00
H309   H     0.51221   0.47804   0.39600   0.00000  Uiso   1.00
H310   H     0.61035   0.45687   0.10523   0.00000  Uiso   1.00
H311   H     0.38031   0.52750   0.39357   0.00000  Uiso   1.00
H312   H     0.47602   0.37548   0.32447   0.00000  Uiso   1.00
H313   H     0.52375   0.62447   0.17572   0.00000  Uiso   1.00
H314   H     0.64045   0.44696   0.20453   0.00000  Uiso   1.00
H315   H     0.35912   0.55239   0.29644   0.00000  Uiso   1.00
H316   H     0.47182   0.59126   0.34196   0.00000  Uiso   1.00
N317   N     0.38093   0.50001   0.25001   0.00000  Uiso   1.00
N318   N     0.61907   0.49999   0.24999   0.00000  Uiso   1.00
O319   O     0.46179   0.56108   0.25000   0.00000  Uiso   1.00
O320   O     0.54013   0.35430   0.12305   0.00000  Uiso   1.00
O321   O     0.53821   0.43892   0.24999   0.00000  Uiso   1.00
O322   O     0.53823   0.56107   0.25000   0.00000  Uiso   1.00
O323   O     0.46177   0.43893   0.25000   0.00000  Uiso   1.00
O324   O     0.43994   0.50001   0.31612   0.00000  Uiso   1.00
O325   O     0.56006   0.49999   0.18387   0.00000  Uiso   1.00
O326   O     0.51639   0.50000   0.31612   0.00000  Uiso   1.00
O327   O     0.48361   0.50000   0.18388   0.00000  Uiso   1.00
O328   O     0.45842   0.64554   0.37720   0.00000  Uiso   1.00
Zn329  Zn    0.44896   0.50001   0.25000   0.00000  Uiso   1.00
Zn330  Zn    0.55104   0.49999   0.25000   0.00000  Uiso   1.00
Br331  Br    0.68740   0.56721   0.06835   0.00000  Uiso   1.00
Br332  Br    0.90770   0.37019   0.47680   0.00000  Uiso   1.00
Br333  Br    0.98346   0.54017   0.48767   0.00000  Uiso   1.00
Br334  Br    0.98274   0.41783   0.01344   0.00000  Uiso   1.00
Br335  Br    0.74138   0.52028   0.12603   0.00000  Uiso   1.00
Br336  Br    0.83254   0.39750   0.42856   0.00000  Uiso   1.00
Br337  Br    0.74095   0.42662   0.18822   0.00000  Uiso   1.00
Br338  Br    0.92364   0.56992   0.31619   0.00000  Uiso   1.00
C339   C     0.83348   0.57983   0.25054   0.00000  Uiso   1.00
C340   C     0.84687   0.64338   0.20787   0.00000  Uiso   1.00
C341   C     0.83271   0.37599   0.24894   0.00000  Uiso   1.00
C342   C     0.83382   0.62397   0.25123   0.00000  Uiso   1.00
C343   C     0.98476   0.47037   0.22491   0.00000  Uiso   1.00
C344   C     0.68161   0.52918   0.27575   0.00000  Uiso   1.00
C345   C     0.69898   0.46989   0.22525   0.00000  Uiso   1.00
C346   C     0.96706   0.52907   0.27623   0.00000  Uiso   1.00
C347   C     0.80286   0.50060   0.33819   0.00000  Uiso   1.00
C348   C     0.86371   0.50048   0.16170   0.00000  Uiso   1.00
C349   C     0.78236   0.50323   0.38946   0.00000  Uiso   1.00
C350   C     0.83314   0.42015   0.24956   0.00000  Uiso   1.00
C351   C     0.88157   0.49352   0.11079   0.00000  Uiso   1.00
C352   C     0.71747   0.52443   0.46194   0.00000  Uiso   1.00
C353   C     0.92204   0.44570   0.04623   0.00000  Uiso   1.00
C354   C     0.73575   0.51882   0.41317   0.00000  Uiso   1.00
C355   C     0.91850   0.46505   0.08876   0.00000  Uiso   1.00
C356   C     0.80907   0.48940   0.41486   0.00000  Uiso   1.00
C357   C     0.85279   0.50686   0.08718   0.00000  Uiso   1.00
C358   C     0.78988   0.49074   0.46407   0.00000  Uiso   1.00
C359   C     0.84832   0.48255   0.05034   0.00000  Uiso   1.00
C360   C     0.74688   0.51404   0.48790   0.00000  Uiso   1.00
C361   C     0.76742   0.51349   0.05826   0.00000  Uiso   1.00
C362   C     0.88397   0.45094   0.02884   0.00000  Uiso   1.00
C363   C     0.81617   0.47298   0.48895   0.00000  Uiso   1.00
C364   C     0.81057   0.49011   0.03333   0.00000  Uiso   1.00
C365   C     0.80480   0.62526   0.34029   0.00000  Uiso   1.00
C366   C     0.86029   0.37456   0.15999   0.00000  Uiso   1.00
C367   C     0.84563   0.43690   0.47200   0.00000  Uiso   1.00
C368   C     0.73649   0.52608   0.03545   0.00000  Uiso   1.00
C369   C     0.87856   0.42523   0.49271   0.00000  Uiso   1.00
C370   C     0.81972   0.64650   0.29414   0.00000  Uiso   1.00
C371   C     0.84644   0.35341   0.20608   0.00000  Uiso   1.00
C372   C     0.81961   0.35656   0.29232   0.00000  Uiso   1.00
H373   H     0.83231   0.53516   0.10000   0.00000  Uiso   1.00
H374   H     0.85876   0.40848   0.15848   0.00000  Uiso   1.00
H375   H     0.84555   0.47804   0.39600   0.00000  Uiso   1.00
H376   H     0.94368   0.45687   0.10523   0.00000  Uiso   1.00
H377   H     0.71364   0.52750   0.39357   0.00000  Uiso   1.00
H378   H     0.80935   0.37548   0.32447   0.00000  Uiso   1.00
H379   H     0.85708   0.62447   0.17572   0.00000  Uiso   1.00
H380   H     0.97378   0.44696   0.20453   0.00000  Uiso   1.00
H381   H     0.69245   0.55239   0.29644   0.00000  Uiso   1.00
H382   H     0.80515   0.59126   0.34196   0.00000  Uiso   1.00
N383   N     0.71426   0.50001   0.25001   0.00000  Uiso   1.00
N384   N     0.95241   0.49999   0.24999   0.00000  Uiso   1.00
O385   O     0.79512   0.56108   0.25000   0.00000  Uiso   1.00
O386   O     0.87346   0.35430   0.12305   0.00000  Uiso   1.00
O387   O     0.87154   0.43892   0.24999   0.00000  Uiso   1.00
O388   O     0.87157   0.56107   0.25000   0.00000  Uiso   1.00
O389   O     0.79510   0.43893   0.25000   0.00000  Uiso   1.00
O390   O     0.77328   0.50001   0.31612   0.00000  Uiso   1.00
O391   O     0.89339   0.49999   0.18387   0.00000  Uiso   1.00
O392   O     0.84972   0.50000   0.31612   0.00000  Uiso   1.00
O393   O     0.81695   0.50000   0.18388   0.00000  Uiso   1.00
O394   O     0.79176   0.64554   0.37720   0.00000  Uiso   1.00
Zn395  Zn    0.78229   0.50001   0.25000   0.00000  Uiso   1.00
Zn396  Zn    0.88438   0.49999   0.25000   0.00000  Uiso   1.00
Br397  Br    0.02073   0.90055   0.06835   0.00000  Uiso   1.00
Br398  Br    0.24103   0.70352   0.47680   0.00000  Uiso   1.00
Br399  Br    0.31679   0.87350   0.48767   0.00000  Uiso   1.00
Br400  Br    0.31607   0.75116   0.01344   0.00000  Uiso   1.00
Br401  Br    0.07471   0.85362   0.12603   0.00000  Uiso   1.00
Br402  Br    0.16588   0.73083   0.42856   0.00000  Uiso   1.00
Br403  Br    0.07428   0.75996   0.18822   0.00000  Uiso   1.00
Br404  Br    0.25697   0.90325   0.31619   0.00000  Uiso   1.00
C405   C     0.16681   0.91316   0.25054   0.00000  Uiso   1.00
C406   C     0.18021   0.97671   0.20787   0.00000  Uiso   1.00
C407   C     0.16604   0.70932   0.24894   0.00000  Uiso   1.00
C408   C     0.16716   0.95730   0.25123   0.00000  Uiso   1.00
C409   C     0.31810   0.80371   0.22491   0.00000  Uiso   1.00
C410   C     0.01494   0.86252   0.27575   0.00000  Uiso   1.00
C411   C     0.03231   0.80322   0.22525   0.00000  Uiso   1.00
C412   C     0.30039   0.86241   0.27623   0.00000  Uiso   1.00
C413   C     0.13619   0.83393   0.33819   0.00000  Uiso   1.00
C414   C     0.19704   0.83381   0.16170   0.00000  Uiso   1.00
C415   C     0.11570   0.83656   0.38946   0.00000  Uiso   1.00
C416   C     0.16648   0.75349   0.24956   0.00000  Uiso   1.00
C417   C     0.21490   0.82686   0.11079   0.00000  Uiso   1.00
C418   C     0.05081   0.85776   0.46194   0.00000  Uiso   1.00
C419   C     0.25537   0.77903   0.04623   0.00000  Uiso   1.00
C420   C     0.06909   0.85215   0.41317   0.00000  Uiso   1.00
C421   C     0.25184   0.79838   0.08876   0.00000  Uiso   1.00
C422   C     0.14240   0.82274   0.41486   0.00000  Uiso   1.00
C423   C     0.18612   0.84019   0.08718   0.00000  Uiso   1.00
C424   C     0.12321   0.82408   0.46407   0.00000  Uiso   1.00
C425   C     0.18165   0.81589   0.05034   0.00000  Uiso   1.00
C426   C     0.08021   0.84737   0.48790   0.00000  Uiso   1.00
C427   C     0.10076   0.84682   0.05826   0.00000  Uiso   1.00
C428   C     0.21730   0.78427   0.02884   0.00000  Uiso   1.00
C429   C     0.14950   0.80631   0.48895   0.00000  Uiso   1.00
C430   C     0.14390   0.82344   0.03333   0.00000  Uiso   1.00
C431   C     0.13813   0.95859   0.34029   0.00000  Uiso   1.00
C432   C     0.19362   0.70790   0.15999   0.00000  Uiso   1.00
C433   C     0.17897   0.77023   0.47200   0.00000  Uiso   1.00
C434   C     0.06982   0.85941   0.03545   0.00000  Uiso   1.00
C435   C     0.21189   0.75856   0.49271   0.00000  Uiso   1.00
C436   C     0.15305   0.97984   0.29414   0.00000  Uiso   1.00
C437   C     0.17977   0.68674   0.20608   0.00000  Uiso   1.00
C438   C     0.15294   0.68990   0.29232   0.00000  Uiso   1.00
H439   H     0.16564   0.86849   0.10000   0.00000  Uiso   1.00
H440   H     0.19209   0.74181   0.15848   0.00000  Uiso   1.00
H441   H     0.17888   0.81137   0.39600   0.00000  Uiso   1.00
H442   H     0.27702   0.79021   0.10523   0.00000  Uiso   1.00
H443   H     0.04697   0.86083   0.39357   0.00000  Uiso   1.00
H444   H     0.14268   0.70881   0.32447   0.00000  Uiso   1.00
H445   H     0.19042   0.95780   0.17572   0.00000  Uiso   1.00
H446   H     0.30712   0.78030   0.20453   0.00000  Uiso   1.00
H447   H     0.02579   0.88572   0.29644   0.00000  Uiso   1.00
H448   H     0.13849   0.92460   0.34196   0.00000  Uiso   1.00
N449   N     0.04759   0.83334   0.25001   0.00000  Uiso   1.00
N450   N     0.28574   0.83332   0.24999   0.00000  Uiso   1.00
O451   O     0.12846   0.89442   0.25000   0.00000  Uiso   1.00
O452   O     0.20679   0.68763   0.12305   0.00000  Uiso   1.00
O453   O     0.20488   0.77225   0.24999   0.00000  Uiso   1.00
O454   O     0.20490   0.89441   0.25000   0.00000  Uiso   1.00
O455   O     0.12843   0.77226   0.25000   0.00000  Uiso   1.00
O456   O     0.10661   0.83334   0.31612   0.00000  Uiso   1.00
O457   O     0.22672   0.83333   0.18387   0.00000  Uiso   1.00
O458   O     0.18305   0.83333   0.31612   0.00000  Uiso   1.00
O459   O     0.15028   0.83334   0.18388   0.00000  Uiso   1.00
O460   O     0.12509   0.97888   0.37720   0.00000  Uiso   1.00
Zn461  Zn    0.11562   0.83334   0.25000   0.00000  Uiso   1.00
Zn462  Zn    0.21771   0.83333   0.25000   0.00000  Uiso   1.00
Br463  Br    0.35406   0.90055   0.06835   0.00000  Uiso   1.00
Br464  Br    0.57436   0.70352   0.47680   0.00000  Uiso   1.00
Br465  Br    0.65013   0.87350   0.48767   0.00000  Uiso   1.00
Br466  Br    0.64940   0.75116   0.01344   0.00000  Uiso   1.00
Br467  Br    0.40805   0.85362   0.12603   0.00000  Uiso   1.00
Br468  Br    0.49921   0.73083   0.42856   0.00000  Uiso   1.00
Br469  Br    0.40762   0.75996   0.18822   0.00000  Uiso   1.00
Br470  Br    0.59031   0.90325   0.31619   0.00000  Uiso   1.00
C471   C     0.50014   0.91316   0.25054   0.00000  Uiso   1.00
C472   C     0.51354   0.97671   0.20787   0.00000  Uiso   1.00
C473   C     0.49937   0.70932   0.24894   0.00000  Uiso   1.00
C474   C     0.50049   0.95730   0.25123   0.00000  Uiso   1.00
C475   C     0.65143   0.80371   0.22491   0.00000  Uiso   1.00
C476   C     0.34828   0.86252   0.27575   0.00000  Uiso   1.00
C477   C     0.36565   0.80322   0.22525   0.00000  Uiso   1.00
C478   C     0.63372   0.86241   0.27623   0.00000  Uiso   1.00
C479   C     0.46953   0.83393   0.33819   0.00000  Uiso   1.00
C480   C     0.53037   0.83381   0.16170   0.00000  Uiso   1.00
C481   C     0.44903   0.83656   0.38946   0.00000  Uiso   1.00
C482   C     0.49981   0.75349   0.24956   0.00000  Uiso   1.00
C483   C     0.54823   0.82686   0.11079   0.00000  Uiso   1.00
C484   C     0.38414   0.85776   0.46194   0.00000  Uiso   1.00
C485   C     0.58871   0.77903   0.04623   0.00000  Uiso   1.00
C486   C     0.40242   0.85215   0.41317   0.00000  Uiso   1.00
C487   C     0.58517   0.79838   0.08876   0.00000  Uiso   1.00
C488   C     0.47574   0.82274   0.41486   0.00000  Uiso   1.00
C489   C     0.51946   0.84019   0.08718   0.00000  Uiso   1.00
C490   C     0.45654   0.82408   0.46407   0.00000  Uiso   1.00
C491   C     0.51499   0.81589   0.05034   0.00000  Uiso   1.00
C492   C     0.41355   0.84737   0.48790   0.00000  Uiso   1.00
C493   C     0.43409   0.84682   0.05826   0.00000  Uiso   1.00
C494   C     0.55064   0.78427   0.02884   0.00000  Uiso   1.00
C495   C     0.48283   0.80631   0.48895   0.00000  Uiso   1.00
C496   C     0.47723   0.82344   0.03333   0.00000  Uiso   1.00
C497   C     0.47147   0.95859   0.34029   0.00000  Uiso   1.00
C498   C     0.52696   0.70790   0.15999   0.00000  Uiso   1.00
C499   C     0.51230   0.77023   0.47200   0.00000  Uiso   1.00
C500   C     0.40315   0.85941   0.03545   0.00000  Uiso   1.00
C501   C     0.54523   0.75856   0.49271   0.00000  Uiso   1.00
C502   C     0.48639   0.97984   0.29414   0.00000  Uiso   1.00
C503   C     0.51311   0.68674   0.20608   0.00000  Uiso   1.00
C504   C     0.48627   0.68990   0.29232   0.00000  Uiso   1.00
H505   H     0.49898   0.86849   0.10000   0.00000  Uiso   1.00
H506   H     0.52543   0.74181   0.15848   0.00000  Uiso   1.00
H507   H     0.51221   0.81137   0.39600   0.00000  Uiso   1.00
H508   H     0.61035   0.79021   0.10523   0.00000  Uiso   1.00
H509   H     0.38031   0.86083   0.39357   0.00000  Uiso   1.00
H510   H     0.47602   0.70881   0.32447   0.00000  Uiso   1.00
H511   H     0.52375   0.95780   0.17572   0.00000  Uiso   1.00
H512   H     0.64045   0.78030   0.20453   0.00000  Uiso   1.00
H513   H     0.35912   0.88572   0.29644   0.00000  Uiso   1.00
H514   H     0.47182   0.92460   0.34196   0.00000  Uiso   1.00
N515   N     0.38093   0.83334   0.25001   0.00000  Uiso   1.00
N516   N     0.61907   0.83332   0.24999   0.00000  Uiso   1.00
O517   O     0.46179   0.89442   0.25000   0.00000  Uiso   1.00
O518   O     0.54013   0.68763   0.12305   0.00000  Uiso   1.00
O519   O     0.53821   0.77225   0.24999   0.00000  Uiso   1.00
O520   O     0.53823   0.89441   0.25000   0.00000  Uiso   1.00
O521   O     0.46177   0.77226   0.25000   0.00000  Uiso   1.00
O522   O     0.43994   0.83334   0.31612   0.00000  Uiso   1.00
O523   O     0.56006   0.83333   0.18387   0.00000  Uiso   1.00
O524   O     0.51639   0.83333   0.31612   0.00000  Uiso   1.00
O525   O     0.48361   0.83334   0.18388   0.00000  Uiso   1.00
O526   O     0.45842   0.97888   0.37720   0.00000  Uiso   1.00
Zn527  Zn    0.44896   0.83334   0.25000   0.00000  Uiso   1.00
Zn528  Zn    0.55104   0.83333   0.25000   0.00000  Uiso   1.00
Br529  Br    0.68740   0.90055   0.06835   0.00000  Uiso   1.00
Br530  Br    0.90770   0.70352   0.47680   0.00000  Uiso   1.00
Br531  Br    0.98346   0.87350   0.48767   0.00000  Uiso   1.00
Br532  Br    0.98274   0.75116   0.01344   0.00000  Uiso   1.00
Br533  Br    0.74138   0.85362   0.12603   0.00000  Uiso   1.00
Br534  Br    0.83254   0.73083   0.42856   0.00000  Uiso   1.00
Br535  Br    0.74095   0.75996   0.18822   0.00000  Uiso   1.00
Br536  Br    0.92364   0.90325   0.31619   0.00000  Uiso   1.00
C537   C     0.83348   0.91316   0.25054   0.00000  Uiso   1.00
C538   C     0.84687   0.97671   0.20787   0.00000  Uiso   1.00
C539   C     0.83271   0.70932   0.24894   0.00000  Uiso   1.00
C540   C     0.83382   0.95730   0.25123   0.00000  Uiso   1.00
C541   C     0.98476   0.80371   0.22491   0.00000  Uiso   1.00
C542   C     0.68161   0.86252   0.27575   0.00000  Uiso   1.00
C543   C     0.69898   0.80322   0.22525   0.00000  Uiso   1.00
C544   C     0.96706   0.86241   0.27623   0.00000  Uiso   1.00
C545   C     0.80286   0.83393   0.33819   0.00000  Uiso   1.00
C546   C     0.86371   0.83381   0.16170   0.00000  Uiso   1.00
C547   C     0.78236   0.83656   0.38946   0.00000  Uiso   1.00
C548   C     0.83314   0.75349   0.24956   0.00000  Uiso   1.00
C549   C     0.88157   0.82686   0.11079   0.00000  Uiso   1.00
C550   C     0.71747   0.85776   0.46194   0.00000  Uiso   1.00
C551   C     0.92204   0.77903   0.04623   0.00000  Uiso   1.00
C552   C     0.73575   0.85215   0.41317   0.00000  Uiso   1.00
C553   C     0.91850   0.79838   0.08876   0.00000  Uiso   1.00
C554   C     0.80907   0.82274   0.41486   0.00000  Uiso   1.00
C555   C     0.85279   0.84019   0.08718   0.00000  Uiso   1.00
C556   C     0.78988   0.82408   0.46407   0.00000  Uiso   1.00
C557   C     0.84832   0.81589   0.05034   0.00000  Uiso   1.00
C558   C     0.74688   0.84737   0.48790   0.00000  Uiso   1.00
C559   C     0.76742   0.84682   0.05826   0.00000  Uiso   1.00
C560   C     0.88397   0.78427   0.02884   0.00000  Uiso   1.00
C561   C     0.81617   0.80631   0.48895   0.00000  Uiso   1.00
C562   C     0.81057   0.82344   0.03333   0.00000  Uiso   1.00
C563   C     0.80480   0.95859   0.34029   0.00000  Uiso   1.00
C564   C     0.86029   0.70790   0.15999   0.00000  Uiso   1.00
C565   C     0.84563   0.77023   0.47200   0.00000  Uiso   1.00
C566   C     0.73649   0.85941   0.03545   0.00000  Uiso   1.00
C567   C     0.87856   0.75856   0.49271   0.00000  Uiso   1.00
C568   C     0.81972   0.97984   0.29414   0.00000  Uiso   1.00
C569   C     0.84644   0.68674   0.20608   0.00000  Uiso   1.00
C570   C     0.81961   0.68990   0.29232   0.00000  Uiso   1.00
H571   H     0.83231   0.86849   0.10000   0.00000  Uiso   1.00
H572   H     0.85876   0.74181   0.15848   0.00000  Uiso   1.00
H573   H     0.84555   0.81137   0.39600   0.00000  Uiso   1.00
H574   H     0.94368   0.79021   0.10523   0.00000  Uiso   1.00
H575   H     0.71364   0.86083   0.39357   0.00000  Uiso   1.00
H576   H     0.80935   0.70881   0.32447   0.00000  Uiso   1.00
H577   H     0.85708   0.95780   0.17572   0.00000  Uiso   1.00
H578   H     0.97378   0.78030   0.20453   0.00000  Uiso   1.00
H579   H     0.69245   0.88572   0.29644   0.00000  Uiso   1.00
H580   H     0.80515   0.92460   0.34196   0.00000  Uiso   1.00
N581   N     0.71426   0.83334   0.25001   0.00000  Uiso   1.00
N582   N     0.95241   0.83332   0.24999   0.00000  Uiso   1.00
O583   O     0.79512   0.89442   0.25000   0.00000  Uiso   1.00
O584   O     0.87346   0.68763   0.12305   0.00000  Uiso   1.00
O585   O     0.87154   0.77225   0.24999   0.00000  Uiso   1.00
O586   O     0.87157   0.89441   0.25000   0.00000  Uiso   1.00
O587   O     0.79510   0.77226   0.25000   0.00000  Uiso   1.00
O588   O     0.77328   0.83334   0.31612   0.00000  Uiso   1.00
O589   O     0.89339   0.83333   0.18387   0.00000  Uiso   1.00
O590   O     0.84972   0.83333   0.31612   0.00000  Uiso   1.00
O591   O     0.81695   0.83334   0.18388   0.00000  Uiso   1.00
O592   O     0.79176   0.97888   0.37720   0.00000  Uiso   1.00
Zn593  Zn    0.78229   0.83334   0.25000   0.00000  Uiso   1.00
Zn594  Zn    0.88438   0.83333   0.25000   0.00000  Uiso   1.00
Br595  Br    0.02073   0.23388   0.56835   0.00000  Uiso   1.00
Br596  Br    0.24103   0.03686   0.97680   0.00000  Uiso   1.00
Br597  Br    0.31679   0.20684   0.98767   0.00000  Uiso   1.00
Br598  Br    0.31607   0.08450   0.51344   0.00000  Uiso   1.00
Br599  Br    0.07471   0.18695   0.62603   0.00000  Uiso   1.00
Br600  Br    0.16588   0.06417   0.92856   0.00000  Uiso   1.00
Br601  Br    0.07428   0.09329   0.68822   0.00000  Uiso   1.00
Br602  Br    0.25697   0.23659   0.81619   0.00000  Uiso   1.00
C603   C     0.16681   0.24650   0.75054   0.00000  Uiso   1.00
C604   C     0.18021   0.31005   0.70787   0.00000  Uiso   1.00
C605   C     0.16604   0.04265   0.74894   0.00000  Uiso   1.00
C606   C     0.16716   0.29064   0.75123   0.00000  Uiso   1.00
C607   C     0.31810   0.13704   0.72491   0.00000  Uiso   1.00
C608   C     0.01494   0.19585   0.77575   0.00000  Uiso   1.00
C609   C     0.03231   0.13655   0.72525   0.00000  Uiso   1.00
C610   C     0.30039   0.19574   0.77623   0.00000  Uiso   1.00
C611   C     0.13619   0.16727   0.83819   0.00000  Uiso   1.00
C612   C     0.19704   0.16714   0.66170   0.00000  Uiso   1.00
C613   C     0.11570   0.16989   0.88946   0.00000  Uiso   1.00
C614   C     0.16648   0.08682   0.74956   0.00000  Uiso   1.00
C615   C     0.21490   0.16019   0.61079   0.00000  Uiso   1.00
C616   C     0.05081   0.19110   0.96194   0.00000  Uiso   1.00
C617   C     0.25537   0.11237   0.54623   0.00000  Uiso   1.00
C618   C     0.06909   0.18548   0.91317   0.00000  Uiso   1.00
C619   C     0.25184   0.13171   0.58876   0.00000  Uiso   1.00
C620   C     0.14240   0.15607   0.91486   0.00000  Uiso   1.00
C621   C     0.18612   0.17352   0.58718   0.00000  Uiso   1.00
C622   C     0.12321   0.15741   0.96407   0.00000  Uiso   1.00
C623   C     0.18165   0.14922   0.55034   0.00000  Uiso   1.00
C624   C     0.08021   0.18071   0.98790   0.00000  Uiso   1.00
C625   C     0.10076   0.18015   0.55826   0.00000  Uiso   1.00
C626   C     0.21730   0.11760   0.52884   0.00000  Uiso   1.00
C627   C     0.14950   0.13965   0.98895   0.00000  Uiso   1.00
C628   C     0.14390   0.15677   0.53333   0.00000  Uiso   1.00
C629   C     0.13813   0.29193   0.84029   0.00000  Uiso   1.00
C630   C     0.19362   0.04123   0.65999   0.00000  Uiso   1.00
C631   C     0.17897   0.10357   0.97200   0.00000  Uiso   1.00
C632   C     0.06982   0.19275   0.53545   0.00000  Uiso   1.00
C633   C     0.21189   0.09190   0.99271   0.00000  Uiso   1.00
C634   C     0.15305   0.31317   0.79414   0.00000  Uiso   1.00
C635   C     0.17977   0.02008   0.70608   0.00000  Uiso   1.00
C636   C     0.15294   0.02323   0.79232   0.00000  Uiso   1.00
H637   H     0.16564   0.20182   0.60000   0.00000  Uiso   1.00
H638   H     0.19209   0.07514   0.65848   0.00000  Uiso   1.00
H639   H     0.17888   0.14471   0.89600   0.00000  Uiso   1.00
H640   H     0.27702   0.12354   0.60523   0.00000  Uiso   1.00
H641   H     0.04697   0.19417   0.89357   0.00000  Uiso   1.00
H642   H     0.14268   0.04214   0.82447   0.00000  Uiso   1.00
H643   H     0.19042   0.29113   0.67572   0.00000  Uiso   1.00
H644   H     0.30712   0.11363   0.70453   0.00000  Uiso   1.00
H645   H     0.02579   0.21905   0.79644   0.00000  Uiso   1.00
H646   H     0.13849   0.25793   0.84196   0.00000  Uiso   1.00
N647   N     0.04759   0.16668   0.75001   0.00000  Uiso   1.00
N648   N     0.28574   0.16666   0.74999   0.00000  Uiso   1.00
O649   O     0.12846   0.22775   0.75000   0.00000  Uiso   1.00
O650   O     0.20679   0.02097   0.62305   0.00000  Uiso   1.00
O651   O     0.20488   0.10558   0.74999   0.00000  Uiso   1.00
O652   O     0.20490   0.22774   0.75000   0.00000  Uiso   1.00
O653   O     0.12843   0.10559   0.75000   0.00000  Uiso   1.00
O654   O     0.10661   0.16667   0.81612   0.00000  Uiso   1.00
O655   O     0.22672   0.16666   0.68387   0.00000  Uiso   1.00
O656   O     0.18305   0.16666   0.81612   0.00000  Uiso   1.00
O657   O     0.15028   0.16667   0.68388   0.00000  Uiso   1.00
O658   O     0.12509   0.31221   0.87720   0.00000  Uiso   1.00
Zn659  Zn    0.11562   0.16667   0.75000   0.00000  Uiso   1.00
Zn660  Zn    0.21771   0.16666   0.75000   0.00000  Uiso   1.00
Br661  Br    0.35406   0.23388   0.56835   0.00000  Uiso   1.00
Br662  Br    0.57436   0.03686   0.97680   0.00000  Uiso   1.00
Br663  Br    0.65013   0.20684   0.98767   0.00000  Uiso   1.00
Br664  Br    0.64940   0.08450   0.51344   0.00000  Uiso   1.00
Br665  Br    0.40805   0.18695   0.62603   0.00000  Uiso   1.00
Br666  Br    0.49921   0.06417   0.92856   0.00000  Uiso   1.00
Br667  Br    0.40762   0.09329   0.68822   0.00000  Uiso   1.00
Br668  Br    0.59031   0.23659   0.81619   0.00000  Uiso   1.00
C669   C     0.50014   0.24650   0.75054   0.00000  Uiso   1.00
C670   C     0.51354   0.31005   0.70787   0.00000  Uiso   1.00
C671   C     0.49937   0.04265   0.74894   0.00000  Uiso   1.00
C672   C     0.50049   0.29064   0.75123   0.00000  Uiso   1.00
C673   C     0.65143   0.13704   0.72491   0.00000  Uiso   1.00
C674   C     0.34828   0.19585   0.77575   0.00000  Uiso   1.00
C675   C     0.36565   0.13655   0.72525   0.00000  Uiso   1.00
C676   C     0.63372   0.19574   0.77623   0.00000  Uiso   1.00
C677   C     0.46953   0.16727   0.83819   0.00000  Uiso   1.00
C678   C     0.53037   0.16714   0.66170   0.00000  Uiso   1.00
C679   C     0.44903   0.16989   0.88946   0.00000  Uiso   1.00
C680   C     0.49981   0.08682   0.74956   0.00000  Uiso   1.00
C681   C     0.54823   0.16019   0.61079   0.00000  Uiso   1.00
C682   C     0.38414   0.19110   0.96194   0.00000  Uiso   1.00
C683   C     0.58871   0.11237   0.54623   0.00000  Uiso   1.00
C684   C     0.40242   0.18548   0.91317   0.00000  Uiso   1.00
C685   C     0.58517   0.13171   0.58876   0.00000  Uiso   1.00
C686   C     0.47574   0.15607   0.91486   0.00000  Uiso   1.00
C687   C     0.51946   0.17352   0.58718   0.00000  Uiso   1.00
C688   C     0.45654   0.15741   0.96407   0.00000  Uiso   1.00
C689   C     0.51499   0.14922   0.55034   0.00000  Uiso   1.00
C690   C     0.41355   0.18071   0.98790   0.00000  Uiso   1.00
C691   C     0.43409   0.18015   0.55826   0.00000  Uiso   1.00
C692   C     0.55064   0.11760   0.52884   0.00000  Uiso   1.00
C693   C     0.48283   0.13965   0.98895   0.00000  Uiso   1.00
C694   C     0.47723   0.15677   0.53333   0.00000  Uiso   1.00
C695   C     0.47147   0.29193   0.84029   0.00000  Uiso   1.00
C696   C     0.52696   0.04123   0.65999   0.00000  Uiso   1.00
C697   C     0.51230   0.10357   0.97200   0.00000  Uiso   1.00
C698   C     0.40315   0.19275   0.53545   0.00000  Uiso   1.00
C699   C     0.54523   0.09190   0.99271   0.00000  Uiso   1.00
C700   C     0.48639   0.31317   0.79414   0.00000  Uiso   1.00
C701   C     0.51311   0.02008   0.70608   0.00000  Uiso   1.00
C702   C     0.48627   0.02323   0.79232   0.00000  Uiso   1.00
H703   H     0.49898   0.20182   0.60000   0.00000  Uiso   1.00
H704   H     0.52543   0.07514   0.65848   0.00000  Uiso   1.00
H705   H     0.51221   0.14471   0.89600   0.00000  Uiso   1.00
H706   H     0.61035   0.12354   0.60523   0.00000  Uiso   1.00
H707   H     0.38031   0.19417   0.89357   0.00000  Uiso   1.00
H708   H     0.47602   0.04214   0.82447   0.00000  Uiso   1.00
H709   H     0.52375   0.29113   0.67572   0.00000  Uiso   1.00
H710   H     0.64045   0.11363   0.70453   0.00000  Uiso   1.00
H711   H     0.35912   0.21905   0.79644   0.00000  Uiso   1.00
H712   H     0.47182   0.25793   0.84196   0.00000  Uiso   1.00
N713   N     0.38093   0.16668   0.75001   0.00000  Uiso   1.00
N714   N     0.61907   0.16666   0.74999   0.00000  Uiso   1.00
O715   O     0.46179   0.22775   0.75000   0.00000  Uiso   1.00
O716   O     0.54013   0.02097   0.62305   0.00000  Uiso   1.00
O717   O     0.53821   0.10558   0.74999   0.00000  Uiso   1.00
O718   O     0.53823   0.22774   0.75000   0.00000  Uiso   1.00
O719   O     0.46177   0.10559   0.75000   0.00000  Uiso   1.00
O720   O     0.43994   0.16667   0.81612   0.00000  Uiso   1.00
O721   O     0.56006   0.16666   0.68387   0.00000  Uiso   1.00
O722   O     0.51639   0.16666   0.81612   0.00000  Uiso   1.00
O723   O     0.48361   0.16667   0.68388   0.00000  Uiso   1.00
O724   O     0.45842   0.31221   0.87720   0.00000  Uiso   1.00
Zn725  Zn    0.44896   0.16667   0.75000   0.00000  Uiso   1.00
Zn726  Zn    0.55104   0.16666   0.75000   0.00000  Uiso   1.00
Br727  Br    0.68740   0.23388   0.56835   0.00000  Uiso   1.00
Br728  Br    0.90770   0.03686   0.97680   0.00000  Uiso   1.00
Br729  Br    0.98346   0.20684   0.98767   0.00000  Uiso   1.00
Br730  Br    0.98274   0.08450   0.51344   0.00000  Uiso   1.00
Br731  Br    0.74138   0.18695   0.62603   0.00000  Uiso   1.00
Br732  Br    0.83254   0.06417   0.92856   0.00000  Uiso   1.00
Br733  Br    0.74095   0.09329   0.68822   0.00000  Uiso   1.00
Br734  Br    0.92364   0.23659   0.81619   0.00000  Uiso   1.00
C735   C     0.83348   0.24650   0.75054   0.00000  Uiso   1.00
C736   C     0.84687   0.31005   0.70787   0.00000  Uiso   1.00
C737   C     0.83271   0.04265   0.74894   0.00000  Uiso   1.00
C738   C     0.83382   0.29064   0.75123   0.00000  Uiso   1.00
C739   C     0.98476   0.13704   0.72491   0.00000  Uiso   1.00
C740   C     0.68161   0.19585   0.77575   0.00000  Uiso   1.00
C741   C     0.69898   0.13655   0.72525   0.00000  Uiso   1.00
C742   C     0.96706   0.19574   0.77623   0.00000  Uiso   1.00
C743   C     0.80286   0.16727   0.83819   0.00000  Uiso   1.00
C744   C     0.86371   0.16714   0.66170   0.00000  Uiso   1.00
C745   C     0.78236   0.16989   0.88946   0.00000  Uiso   1.00
C746   C     0.83314   0.08682   0.74956   0.00000  Uiso   1.00
C747   C     0.88157   0.16019   0.61079   0.00000  Uiso   1.00
C748   C     0.71747   0.19110   0.96194   0.00000  Uiso   1.00
C749   C     0.92204   0.11237   0.54623   0.00000  Uiso   1.00
C750   C     0.73575   0.18548   0.91317   0.00000  Uiso   1.00
C751   C     0.91850   0.13171   0.58876   0.00000  Uiso   1.00
C752   C     0.80907   0.15607   0.91486   0.00000  Uiso   1.00
C753   C     0.85279   0.17352   0.58718   0.00000  Uiso   1.00
C754   C     0.78988   0.15741   0.96407   0.00000  Uiso   1.00
C755   C     0.84832   0.14922   0.55034   0.00000  Uiso   1.00
C756   C     0.74688   0.18071   0.98790   0.00000  Uiso   1.00
C757   C     0.76742   0.18015   0.55826   0.00000  Uiso   1.00
C758   C     0.88397   0.11760   0.52884   0.00000  Uiso   1.00
C759   C     0.81617   0.13965   0.98895   0.00000  Uiso   1.00
C760   C     0.81057   0.15677   0.53333   0.00000  Uiso   1.00
C761   C     0.80480   0.29193   0.84029   0.00000  Uiso   1.00
C762   C     0.86029   0.04123   0.65999   0.00000  Uiso   1.00
C763   C     0.84563   0.10357   0.97200   0.00000  Uiso   1.00
C764   C     0.73649   0.19275   0.53545   0.00000  Uiso   1.00
C765   C     0.87856   0.09190   0.99271   0.00000  Uiso   1.00
C766   C     0.81972   0.31317   0.79414   0.00000  Uiso   1.00
C767   C     0.84644   0.02008   0.70608   0.00000  Uiso   1.00
C768   C     0.81961   0.02323   0.79232   0.00000  Uiso   1.00
H769   H     0.83231   0.20182   0.60000   0.00000  Uiso   1.00
H770   H     0.85876   0.07514   0.65848   0.00000  Uiso   1.00
H771   H     0.84555   0.14471   0.89600   0.00000  Uiso   1.00
H772   H     0.94368   0.12354   0.60523   0.00000  Uiso   1.00
H773   H     0.71364   0.19417   0.89357   0.00000  Uiso   1.00
H774   H     0.80935   0.04214   0.82447   0.00000  Uiso   1.00
H775   H     0.85708   0.29113   0.67572   0.00000  Uiso   1.00
H776   H     0.97378   0.11363   0.70453   0.00000  Uiso   1.00
H777   H     0.69245   0.21905   0.79644   0.00000  Uiso   1.00
H778   H     0.80515   0.25793   0.84196   0.00000  Uiso   1.00
N779   N     0.71426   0.16668   0.75001   0.00000  Uiso   1.00
N780   N     0.95241   0.16666   0.74999   0.00000  Uiso   1.00
O781   O     0.79512   0.22775   0.75000   0.00000  Uiso   1.00
O782   O     0.87346   0.02097   0.62305   0.00000  Uiso   1.00
O783   O     0.87154   0.10558   0.74999   0.00000  Uiso   1.00
O784   O     0.87157   0.22774   0.75000   0.00000  Uiso   1.00
O785   O     0.79510   0.10559   0.75000   0.00000  Uiso   1.00
O786   O     0.77328   0.16667   0.81612   0.00000  Uiso   1.00
O787   O     0.89339   0.16666   0.68387   0.00000  Uiso   1.00
O788   O     0.84972   0.16666   0.81612   0.00000  Uiso   1.00
O789   O     0.81695   0.16667   0.68388   0.00000  Uiso   1.00
O790   O     0.79176   0.31221   0.87720   0.00000  Uiso   1.00
Zn791  Zn    0.78229   0.16667   0.75000   0.00000  Uiso   1.00
Zn792  Zn    0.88438   0.16666   0.75000   0.00000  Uiso   1.00
Br793  Br    0.02073   0.56721   0.56835   0.00000  Uiso   1.00
Br794  Br    0.24103   0.37019   0.97680   0.00000  Uiso   1.00
Br795  Br    0.31679   0.54017   0.98767   0.00000  Uiso   1.00
Br796  Br    0.31607   0.41783   0.51344   0.00000  Uiso   1.00
Br797  Br    0.07471   0.52028   0.62603   0.00000  Uiso   1.00
Br798  Br    0.16588   0.39750   0.92856   0.00000  Uiso   1.00
Br799  Br    0.07428   0.42662   0.68822   0.00000  Uiso   1.00
Br800  Br    0.25697   0.56992   0.81619   0.00000  Uiso   1.00
C801   C     0.16681   0.57983   0.75054   0.00000  Uiso   1.00
C802   C     0.18021   0.64338   0.70787   0.00000  Uiso   1.00
C803   C     0.16604   0.37599   0.74894   0.00000  Uiso   1.00
C804   C     0.16716   0.62397   0.75123   0.00000  Uiso   1.00
C805   C     0.31810   0.47037   0.72491   0.00000  Uiso   1.00
C806   C     0.01494   0.52918   0.77575   0.00000  Uiso   1.00
C807   C     0.03231   0.46989   0.72525   0.00000  Uiso   1.00
C808   C     0.30039   0.52907   0.77623   0.00000  Uiso   1.00
C809   C     0.13619   0.50060   0.83819   0.00000  Uiso   1.00
C810   C     0.19704   0.50048   0.66170   0.00000  Uiso   1.00
C811   C     0.11570   0.50323   0.88946   0.00000  Uiso   1.00
C812   C     0.16648   0.42015   0.74956   0.00000  Uiso   1.00
C813   C     0.21490   0.49352   0.61079   0.00000  Uiso   1.00
C814   C     0.05081   0.52443   0.96194   0.00000  Uiso   1.00
C815   C     0.25537   0.44570   0.54623   0.00000  Uiso   1.00
C816   C     0.06909   0.51882   0.91317   0.00000  Uiso   1.00
C817   C     0.25184   0.46505   0.58876   0.00000  Uiso   1.00
C818   C     0.14240   0.48940   0.91486   0.00000  Uiso   1.00
C819   C     0.18612   0.50686   0.58718   0.00000  Uiso   1.00
C820   C     0.12321   0.49074   0.96407   0.00000  Uiso   1.00
C821   C     0.18165   0.48255   0.55034   0.00000  Uiso   1.00
C822   C     0.08021   0.51404   0.98790   0.00000  Uiso   1.00
C823   C     0.10076   0.51349   0.55826   0.00000  Uiso   1.00
C824   C     0.21730   0.45094   0.52884   0.00000  Uiso   1.00
C825   C     0.14950   0.47298   0.98895   0.00000  Uiso   1.00
C826   C     0.14390   0.49011   0.53333   0.00000  Uiso   1.00
C827   C     0.13813   0.62526   0.84029   0.00000  Uiso   1.00
C828   C     0.19362   0.37456   0.65999   0.00000  Uiso   1.00
C829   C     0.17897   0.43690   0.97200   0.00000  Uiso   1.00
C830   C     0.06982   0.52608   0.53545   0.00000  Uiso   1.00
C831   C     0.21189   0.42523   0.99271   0.00000  Uiso   1.00
C832   C     0.15305   0.64650   0.79414   0.00000  Uiso   1.00
C833   C     0.17977   0.35341   0.70608   0.00000  Uiso   1.00
C834   C     0.15294   0.35656   0.79232   0.00000  Uiso   1.00
H835   H     0.16564   0.53516   0.60000   0.00000  Uiso   1.00
H836   H     0.19209   0.40848   0.65848   0.00000  Uiso   1.00
H837   H     0.17888   0.47804   0.89600   0.00000  Uiso   1.00
H838   H     0.27702   0.45687   0.60523   0.00000  Uiso   1.00
H839   H     0.04697   0.52750   0.89357   0.00000  Uiso   1.00
H840   H     0.14268   0.37548   0.82447   0.00000  Uiso   1.00
H841   H     0.19042   0.62447   0.67572   0.00000  Uiso   1.00
H842   H     0.30712   0.44696   0.70453   0.00000  Uiso   1.00
H843   H     0.02579   0.55239   0.79644   0.00000  Uiso   1.00
H844   H     0.13849   0.59126   0.84196   0.00000  Uiso   1.00
N845   N     0.04759   0.50001   0.75001   0.00000  Uiso   1.00
N846   N     0.28574   0.49999   0.74999   0.00000  Uiso   1.00
O847   O     0.12846   0.56108   0.75000   0.00000  Uiso   1.00
O848   O     0.20679   0.35430   0.62305   0.00000  Uiso   1.00
O849   O     0.20488   0.43892   0.74999   0.00000  Uiso   1.00
O850   O     0.20490   0.56107   0.75000   0.00000  Uiso   1.00
O851   O     0.12843   0.43893   0.75000   0.00000  Uiso   1.00
O852   O     0.10661   0.50001   0.81612   0.00000  Uiso   1.00
O853   O     0.22672   0.49999   0.68387   0.00000  Uiso   1.00
O854   O     0.18305   0.50000   0.81612   0.00000  Uiso   1.00
O855   O     0.15028   0.50000   0.68388   0.00000  Uiso   1.00
O856   O     0.12509   0.64554   0.87720   0.00000  Uiso   1.00
Zn857  Zn    0.11562   0.50001   0.75000   0.00000  Uiso   1.00
Zn858  Zn    0.21771   0.49999   0.75000   0.00000  Uiso   1.00
Br859  Br    0.35406   0.56721   0.56835   0.00000  Uiso   1.00
Br860  Br    0.57436   0.37019   0.97680   0.00000  Uiso   1.00
Br861  Br    0.65013   0.54017   0.98767   0.00000  Uiso   1.00
Br862  Br    0.64940   0.41783   0.51344   0.00000  Uiso   1.00
Br863  Br    0.40805   0.52028   0.62603   0.00000  Uiso   1.00
Br864  Br    0.49921   0.39750   0.92856   0.00000  Uiso   1.00
Br865  Br    0.40762   0.42662   0.68822   0.00000  Uiso   1.00
Br866  Br    0.59031   0.56992   0.81619   0.00000  Uiso   1.00
C867   C     0.50014   0.57983   0.75054   0.00000  Uiso   1.00
C868   C     0.51354   0.64338   0.70787   0.00000  Uiso   1.00
C869   C     0.49937   0.37599   0.74894   0.00000  Uiso   1.00
C870   C     0.50049   0.62397   0.75123   0.00000  Uiso   1.00
C871   C     0.65143   0.47037   0.72491   0.00000  Uiso   1.00
C872   C     0.34828   0.52918   0.77575   0.00000  Uiso   1.00
C873   C     0.36565   0.46989   0.72525   0.00000  Uiso   1.00
C874   C     0.63372   0.52907   0.77623   0.00000  Uiso   1.00
C875   C     0.46953   0.50060   0.83819   0.00000  Uiso   1.00
C876   C     0.53037   0.50048   0.66170   0.00000  Uiso   1.00
C877   C     0.44903   0.50323   0.88946   0.00000  Uiso   1.00
C878   C     0.49981   0.42015   0.74956   0.00000  Uiso   1.00
C879   C     0.54823   0.49352   0.61079   0.00000  Uiso   1.00
C880   C     0.38414   0.52443   0.96194   0.00000  Uiso   1.00
C881   C     0.58871   0.44570   0.54623   0.00000  Uiso   1.00
C882   C     0.40242   0.51882   0.91317   0.00000  Uiso   1.00
C883   C     0.58517   0.46505   0.58876   0.00000  Uiso   1.00
C884   C     0.47574   0.48940   0.91486   0.00000  Uiso   1.00
C885   C     0.51946   0.50686   0.58718   0.00000  Uiso   1.00
C886   C     0.45654   0.49074   0.96407   0.00000  Uiso   1.00
C887   C     0.51499   0.48255   0.55034   0.00000  Uiso   1.00
C888   C     0.41355   0.51404   0.98790   0.00000  Uiso   1.00
C889   C     0.43409   0.51349   0.55826   0.00000  Uiso   1.00
C890   C     0.55064   0.45094   0.52884   0.00000  Uiso   1.00
C891   C     0.48283   0.47298   0.98895   0.00000  Uiso   1.00
C892   C     0.47723   0.49011   0.53333   0.00000  Uiso   1.00
C893   C     0.47147   0.62526   0.84029   0.00000  Uiso   1.00
C894   C     0.52696   0.37456   0.65999   0.00000  Uiso   1.00
C895   C     0.51230   0.43690   0.97200   0.00000  Uiso   1.00
C896   C     0.40315   0.52608   0.53545   0.00000  Uiso   1.00
C897   C     0.54523   0.42523   0.99271   0.00000  Uiso   1.00
C898   C     0.48639   0.64650   0.79414   0.00000  Uiso   1.00
C899   C     0.51311   0.35341   0.70608   0.00000  Uiso   1.00
C900   C     0.48627   0.35656   0.79232   0.00000  Uiso   1.00
H901   H     0.49898   0.53516   0.60000   0.00000  Uiso   1.00
H902   H     0.52543   0.40848   0.65848   0.00000  Uiso   1.00
H903   H     0.51221   0.47804   0.89600   0.00000  Uiso   1.00
H904   H     0.61035   0.45687   0.60523   0.00000  Uiso   1.00
H905   H     0.38031   0.52750   0.89357   0.00000  Uiso   1.00
H906   H     0.47602   0.37548   0.82447   0.00000  Uiso   1.00
H907   H     0.52375   0.62447   0.67572   0.00000  Uiso   1.00
H908   H     0.64045   0.44696   0.70453   0.00000  Uiso   1.00
H909   H     0.35912   0.55239   0.79644   0.00000  Uiso   1.00
H910   H     0.47182   0.59126   0.84196   0.00000  Uiso   1.00
N911   N     0.38093   0.50001   0.75001   0.00000  Uiso   1.00
N912   N     0.61907   0.49999   0.74999   0.00000  Uiso   1.00
O913   O     0.46179   0.56108   0.75000   0.00000  Uiso   1.00
O914   O     0.54013   0.35430   0.62305   0.00000  Uiso   1.00
O915   O     0.53821   0.43892   0.74999   0.00000  Uiso   1.00
O916   O     0.53823   0.56107   0.75000   0.00000  Uiso   1.00
O917   O     0.46177   0.43893   0.75000   0.00000  Uiso   1.00
O918   O     0.43994   0.50001   0.81612   0.00000  Uiso   1.00
O919   O     0.56006   0.49999   0.68387   0.00000  Uiso   1.00
O920   O     0.51639   0.50000   0.81612   0.00000  Uiso   1.00
O921   O     0.48361   0.50000   0.68388   0.00000  Uiso   1.00
O922   O     0.45842   0.64554   0.87720   0.00000  Uiso   1.00
Zn923  Zn    0.44896   0.50001   0.75000   0.00000  Uiso   1.00
Zn924  Zn    0.55104   0.49999   0.75000   0.00000  Uiso   1.00
Br925  Br    0.68740   0.56721   0.56835   0.00000  Uiso   1.00
Br926  Br    0.90770   0.37019   0.97680   0.00000  Uiso   1.00
Br927  Br    0.98346   0.54017   0.98767   0.00000  Uiso   1.00
Br928  Br    0.98274   0.41783   0.51344   0.00000  Uiso   1.00
Br929  Br    0.74138   0.52028   0.62603   0.00000  Uiso   1.00
Br930  Br    0.83254   0.39750   0.92856   0.00000  Uiso   1.00
Br931  Br    0.74095   0.42662   0.68822   0.00000  Uiso   1.00
Br932  Br    0.92364   0.56992   0.81619   0.00000  Uiso   1.00
C933   C     0.83348   0.57983   0.75054   0.00000  Uiso   1.00
C934   C     0.84687   0.64338   0.70787   0.00000  Uiso   1.00
C935   C     0.83271   0.37599   0.74894   0.00000  Uiso   1.00
C936   C     0.83382   0.62397   0.75123   0.00000  Uiso   1.00
C937   C     0.98476   0.47037   0.72491   0.00000  Uiso   1.00
C938   C     0.68161   0.52918   0.77575   0.00000  Uiso   1.00
C939   C     0.69898   0.46989   0.72525   0.00000  Uiso   1.00
C940   C     0.96706   0.52907   0.77623   0.00000  Uiso   1.00
C941   C     0.80286   0.50060   0.83819   0.00000  Uiso   1.00
C942   C     0.86371   0.50048   0.66170   0.00000  Uiso   1.00
C943   C     0.78236   0.50323   0.88946   0.00000  Uiso   1.00
C944   C     0.83314   0.42015   0.74956   0.00000  Uiso   1.00
C945   C     0.88157   0.49352   0.61079   0.00000  Uiso   1.00
C946   C     0.71747   0.52443   0.96194   0.00000  Uiso   1.00
C947   C     0.92204   0.44570   0.54623   0.00000  Uiso   1.00
C948   C     0.73575   0.51882   0.91317   0.00000  Uiso   1.00
C949   C     0.91850   0.46505   0.58876   0.00000  Uiso   1.00
C950   C     0.80907   0.48940   0.91486   0.00000  Uiso   1.00
C951   C     0.85279   0.50686   0.58718   0.00000  Uiso   1.00
C952   C     0.78988   0.49074   0.96407   0.00000  Uiso   1.00
C953   C     0.84832   0.48255   0.55034   0.00000  Uiso   1.00
C954   C     0.74688   0.51404   0.98790   0.00000  Uiso   1.00
C955   C     0.76742   0.51349   0.55826   0.00000  Uiso   1.00
C956   C     0.88397   0.45094   0.52884   0.00000  Uiso   1.00
C957   C     0.81617   0.47298   0.98895   0.00000  Uiso   1.00
C958   C     0.81057   0.49011   0.53333   0.00000  Uiso   1.00
C959   C     0.80480   0.62526   0.84029   0.00000  Uiso   1.00
C960   C     0.86029   0.37456   0.65999   0.00000  Uiso   1.00
C961   C     0.84563   0.43690   0.97200   0.00000  Uiso   1.00
C962   C     0.73649   0.52608   0.53545   0.00000  Uiso   1.00
C963   C     0.87856   0.42523   0.99271   0.00000  Uiso   1.00
C964   C     0.81972   0.64650   0.79414   0.00000  Uiso   1.00
C965   C     0.84644   0.35341   0.70608   0.00000  Uiso   1.00
C966   C     0.81961   0.35656   0.79232   0.00000  Uiso   1.00
H967   H     0.83231   0.53516   0.60000   0.00000  Uiso   1.00
H968   H     0.85876   0.40848   0.65848   0.00000  Uiso   1.00
H969   H     0.84555   0.47804   0.89600   0.00000  Uiso   1.00
H970   H     0.94368   0.45687   0.60523   0.00000  Uiso   1.00
H971   H     0.71364   0.52750   0.89357   0.00000  Uiso   1.00
H972   H     0.80935   0.37548   0.82447   0.00000  Uiso   1.00
H973   H     0.85708   0.62447   0.67572   0.00000  Uiso   1.00
H974   H     0.97378   0.44696   0.70453   0.00000  Uiso   1.00
H975   H     0.69245   0.55239   0.79644   0.00000  Uiso   1.00
H976   H     0.80515   0.59126   0.84196   0.00000  Uiso   1.00
N977   N     0.71426   0.50001   0.75001   0.00000  Uiso   1.00
N978   N     0.95241   0.49999   0.74999   0.00000  Uiso   1.00
O979   O     0.79512   0.56108   0.75000   0.00000  Uiso   1.00
O980   O     0.87346   0.35430   0.62305   0.00000  Uiso   1.00
O981   O     0.87154   0.43892   0.74999   0.00000  Uiso   1.00
O982   O     0.87157   0.56107   0.75000   0.00000  Uiso   1.00
O983   O     0.79510   0.43893   0.75000   0.00000  Uiso   1.00
O984   O     0.77328   0.50001   0.81612   0.00000  Uiso   1.00
O985   O     0.89339   0.49999   0.68387   0.00000  Uiso   1.00
O986   O     0.84972   0.50000   0.81612   0.00000  Uiso   1.00
O987   O     0.81695   0.50000   0.68388   0.00000  Uiso   1.00
O988   O     0.79176   0.64554   0.87720   0.00000  Uiso   1.00
Zn989  Zn    0.78229   0.50001   0.75000   0.00000  Uiso   1.00
Zn990  Zn    0.88438   0.49999   0.75000   0.00000  Uiso   1.00
Br991  Br    0.02073   0.90055   0.56835   0.00000  Uiso   1.00
Br992  Br    0.24103   0.70352   0.97680   0.00000  Uiso   1.00
Br993  Br    0.31679   0.87350   0.98767   0.00000  Uiso   1.00
Br994  Br    0.31607   0.75116   0.51344   0.00000  Uiso   1.00
Br995  Br    0.07471   0.85362   0.62603   0.00000  Uiso   1.00
Br996  Br    0.16588   0.73083   0.92856   0.00000  Uiso   1.00
Br997  Br    0.07428   0.75996   0.68822   0.00000  Uiso   1.00
Br998  Br    0.25697   0.90325   0.81619   0.00000  Uiso   1.00
C999   C     0.16681   0.91316   0.75054   0.00000  Uiso   1.00
C1000  C     0.18021   0.97671   0.70787   0.00000  Uiso   1.00
C1001  C     0.16604   0.70932   0.74894   0.00000  Uiso   1.00
C1002  C     0.16716   0.95730   0.75123   0.00000  Uiso   1.00
C1003  C     0.31810   0.80371   0.72491   0.00000  Uiso   1.00
C1004  C     0.01494   0.86252   0.77575   0.00000  Uiso   1.00
C1005  C     0.03231   0.80322   0.72525   0.00000  Uiso   1.00
C1006  C     0.30039   0.86241   0.77623   0.00000  Uiso   1.00
C1007  C     0.13619   0.83393   0.83819   0.00000  Uiso   1.00
C1008  C     0.19704   0.83381   0.66170   0.00000  Uiso   1.00
C1009  C     0.11570   0.83656   0.88946   0.00000  Uiso   1.00
C1010  C     0.16648   0.75349   0.74956   0.00000  Uiso   1.00
C1011  C     0.21490   0.82686   0.61079   0.00000  Uiso   1.00
C1012  C     0.05081   0.85776   0.96194   0.00000  Uiso   1.00
C1013  C     0.25537   0.77903   0.54623   0.00000  Uiso   1.00
C1014  C     0.06909   0.85215   0.91317   0.00000  Uiso   1.00
C1015  C     0.25184   0.79838   0.58876   0.00000  Uiso   1.00
C1016  C     0.14240   0.82274   0.91486   0.00000  Uiso   1.00
C1017  C     0.18612   0.84019   0.58718   0.00000  Uiso   1.00
C1018  C     0.12321   0.82408   0.96407   0.00000  Uiso   1.00
C1019  C     0.18165   0.81589   0.55034   0.00000  Uiso   1.00
C1020  C     0.08021   0.84737   0.98790   0.00000  Uiso   1.00
C1021  C     0.10076   0.84682   0.55826   0.00000  Uiso   1.00
C1022  C     0.21730   0.78427   0.52884   0.00000  Uiso   1.00
C1023  C     0.14950   0.80631   0.98895   0.00000  Uiso   1.00
C1024  C     0.14390   0.82344   0.53333   0.00000  Uiso   1.00
C1025  C     0.13813   0.95859   0.84029   0.00000  Uiso   1.00
C1026  C     0.19362   0.70790   0.65999   0.00000  Uiso   1.00
C1027  C     0.17897   0.77023   0.97200   0.00000  Uiso   1.00
C1028  C     0.06982   0.85941   0.53545   0.00000  Uiso   1.00
C1029  C     0.21189   0.75856   0.99271   0.00000  Uiso   1.00
C1030  C     0.15305   0.97984   0.79414   0.00000  Uiso   1.00
C1031  C     0.17977   0.68674   0.70608   0.00000  Uiso   1.00
C1032  C     0.15294   0.68990   0.79232   0.00000  Uiso   1.00
H1033  H     0.16564   0.86849   0.60000   0.00000  Uiso   1.00
H1034  H     0.19209   0.74181   0.65848   0.00000  Uiso   1.00
H1035  H     0.17888   0.81137   0.89600   0.00000  Uiso   1.00
H1036  H     0.27702   0.79021   0.60523   0.00000  Uiso   1.00
H1037  H     0.04697   0.86083   0.89357   0.00000  Uiso   1.00
H1038  H     0.14268   0.70881   0.82447   0.00000  Uiso   1.00
H1039  H     0.19042   0.95780   0.67572   0.00000  Uiso   1.00
H1040  H     0.30712   0.78030   0.70453   0.00000  Uiso   1.00
H1041  H     0.02579   0.88572   0.79644   0.00000  Uiso   1.00
H1042  H     0.13849   0.92460   0.84196   0.00000  Uiso   1.00
N1043  N     0.04759   0.83334   0.75001   0.00000  Uiso   1.00
N1044  N     0.28574   0.83332   0.74999   0.00000  Uiso   1.00
O1045  O     0.12846   0.89442   0.75000   0.00000  Uiso   1.00
O1046  O     0.20679   0.68763   0.62305   0.00000  Uiso   1.00
O1047  O     0.20488   0.77225   0.74999   0.00000  Uiso   1.00
O1048  O     0.20490   0.89441   0.75000   0.00000  Uiso   1.00
O1049  O     0.12843   0.77226   0.75000   0.00000  Uiso   1.00
O1050  O     0.10661   0.83334   0.81612   0.00000  Uiso   1.00
O1051  O     0.22672   0.83333   0.68387   0.00000  Uiso   1.00
O1052  O     0.18305   0.83333   0.81612   0.00000  Uiso   1.00
O1053  O     0.15028   0.83334   0.68388   0.00000  Uiso   1.00
O1054  O     0.12509   0.97888   0.87720   0.00000  Uiso   1.00
Zn1055 Zn    0.11562   0.83334   0.75000   0.00000  Uiso   1.00
Zn1056 Zn    0.21771   0.83333   0.75000   0.00000  Uiso   1.00
Br1057 Br    0.35406   0.90055   0.56835   0.00000  Uiso   1.00
Br1058 Br    0.57436   0.70352   0.97680   0.00000  Uiso   1.00
Br1059 Br    0.65013   0.87350   0.98767   0.00000  Uiso   1.00
Br1060 Br    0.64940   0.75116   0.51344   0.00000  Uiso   1.00
Br1061 Br    0.40805   0.85362   0.62603   0.00000  Uiso   1.00
Br1062 Br    0.49921   0.73083   0.92856   0.00000  Uiso   1.00
Br1063 Br    0.40762   0.75996   0.68822   0.00000  Uiso   1.00
Br1064 Br    0.59031   0.90325   0.81619   0.00000  Uiso   1.00
C1065  C     0.50014   0.91316   0.75054   0.00000  Uiso   1.00
C1066  C     0.51354   0.97671   0.70787   0.00000  Uiso   1.00
C1067  C     0.49937   0.70932   0.74894   0.00000  Uiso   1.00
C1068  C     0.50049   0.95730   0.75123   0.00000  Uiso   1.00
C1069  C     0.65143   0.80371   0.72491   0.00000  Uiso   1.00
C1070  C     0.34828   0.86252   0.77575   0.00000  Uiso   1.00
C1071  C     0.36565   0.80322   0.72525   0.00000  Uiso   1.00
C1072  C     0.63372   0.86241   0.77623   0.00000  Uiso   1.00
C1073  C     0.46953   0.83393   0.83819   0.00000  Uiso   1.00
C1074  C     0.53037   0.83381   0.66170   0.00000  Uiso   1.00
C1075  C     0.44903   0.83656   0.88946   0.00000  Uiso   1.00
C1076  C     0.49981   0.75349   0.74956   0.00000  Uiso   1.00
C1077  C     0.54823   0.82686   0.61079   0.00000  Uiso   1.00
C1078  C     0.38414   0.85776   0.96194   0.00000  Uiso   1.00
C1079  C     0.58871   0.77903   0.54623   0.00000  Uiso   1.00
C1080  C     0.40242   0.85215   0.91317   0.00000  Uiso   1.00
C1081  C     0.58517   0.79838   0.58876   0.00000  Uiso   1.00
C1082  C     0.47574   0.82274   0.91486   0.00000  Uiso   1.00
C1083  C     0.51946   0.84019   0.58718   0.00000  Uiso   1.00
C1084  C     0.45654   0.82408   0.96407   0.00000  Uiso   1.00
C1085  C     0.51499   0.81589   0.55034   0.00000  Uiso   1.00
C1086  C     0.41355   0.84737   0.98790   0.00000  Uiso   1.00
C1087  C     0.43409   0.84682   0.55826   0.00000  Uiso   1.00
C1088  C     0.55064   0.78427   0.52884   0.00000  Uiso   1.00
C1089  C     0.48283   0.80631   0.98895   0.00000  Uiso   1.00
C1090  C     0.47723   0.82344   0.53333   0.00000  Uiso   1.00
C1091  C     0.47147   0.95859   0.84029   0.00000  Uiso   1.00
C1092  C     0.52696   0.70790   0.65999   0.00000  Uiso   1.00
C1093  C     0.51230   0.77023   0.97200   0.00000  Uiso   1.00
C1094  C     0.40315   0.85941   0.53545   0.00000  Uiso   1.00
C1095  C     0.54523   0.75856   0.99271   0.00000  Uiso   1.00
C1096  C     0.48639   0.97984   0.79414   0.00000  Uiso   1.00
C1097  C     0.51311   0.68674   0.70608   0.00000  Uiso   1.00
C1098  C     0.48627   0.68990   0.79232   0.00000  Uiso   1.00
H1099  H     0.49898   0.86849   0.60000   0.00000  Uiso   1.00
H1100  H     0.52543   0.74181   0.65848   0.00000  Uiso   1.00
H1101  H     0.51221   0.81137   0.89600   0.00000  Uiso   1.00
H1102  H     0.61035   0.79021   0.60523   0.00000  Uiso   1.00
H1103  H     0.38031   0.86083   0.89357   0.00000  Uiso   1.00
H1104  H     0.47602   0.70881   0.82447   0.00000  Uiso   1.00
H1105  H     0.52375   0.95780   0.67572   0.00000  Uiso   1.00
H1106  H     0.64045   0.78030   0.70453   0.00000  Uiso   1.00
H1107  H     0.35912   0.88572   0.79644   0.00000  Uiso   1.00
H1108  H     0.47182   0.92460   0.84196   0.00000  Uiso   1.00
N1109  N     0.38093   0.83334   0.75001   0.00000  Uiso   1.00
N1110  N     0.61907   0.83332   0.74999   0.00000  Uiso   1.00
O1111  O     0.46179   0.89442   0.75000   0.00000  Uiso   1.00
O1112  O     0.54013   0.68763   0.62305   0.00000  Uiso   1.00
O1113  O     0.53821   0.77225   0.74999   0.00000  Uiso   1.00
O1114  O     0.53823   0.89441   0.75000   0.00000  Uiso   1.00
O1115  O     0.46177   0.77226   0.75000   0.00000  Uiso   1.00
O1116  O     0.43994   0.83334   0.81612   0.00000  Uiso   1.00
O1117  O     0.56006   0.83333   0.68387   0.00000  Uiso   1.00
O1118  O     0.51639   0.83333   0.81612   0.00000  Uiso   1.00
O1119  O     0.48361   0.83334   0.68388   0.00000  Uiso   1.00
O1120  O     0.45842   0.97888   0.87720   0.00000  Uiso   1.00
Zn1121 Zn    0.44896   0.83334   0.75000   0.00000  Uiso   1.00
Zn1122 Zn    0.55104   0.83333   0.75000   0.00000  Uiso   1.00
Br1123 Br    0.68740   0.90055   0.56835   0.00000  Uiso   1.00
Br1124 Br    0.90770   0.70352   0.97680   0.00000  Uiso   1.00
Br1125 Br    0.98346   0.87350   0.98767   0.00000  Uiso   1.00
Br1126 Br    0.98274   0.75116   0.51344   0.00000  Uiso   1.00
Br1127 Br    0.74138   0.85362   0.62603   0.00000  Uiso   1.00
Br1128 Br    0.83254   0.73083   0.92856   0.00000  Uiso   1.00
Br1129 Br    0.74095   0.75996   0.68822   0.00000  Uiso   1.00
Br1130 Br    0.92364   0.90325   0.81619   0.00000  Uiso   1.00
C1131  C     0.83348   0.91316   0.75054   0.00000  Uiso   1.00
C1132  C     0.84687   0.97671   0.70787   0.00000  Uiso   1.00
C1133  C     0.83271   0.70932   0.74894   0.00000  Uiso   1.00
C1134  C     0.83382   0.95730   0.75123   0.00000  Uiso   1.00
C1135  C     0.98476   0.80371   0.72491   0.00000  Uiso   1.00
C1136  C     0.68161   0.86252   0.77575   0.00000  Uiso   1.00
C1137  C     0.69898   0.80322   0.72525   0.00000  Uiso   1.00
C1138  C     0.96706   0.86241   0.77623   0.00000  Uiso   1.00
C1139  C     0.80286   0.83393   0.83819   0.00000  Uiso   1.00
C1140  C     0.86371   0.83381   0.66170   0.00000  Uiso   1.00
C1141  C     0.78236   0.83656   0.88946   0.00000  Uiso   1.00
C1142  C     0.83314   0.75349   0.74956   0.00000  Uiso   1.00
C1143  C     0.88157   0.82686   0.61079   0.00000  Uiso   1.00
C1144  C     0.71747   0.85776   0.96194   0.00000  Uiso   1.00
C1145  C     0.92204   0.77903   0.54623   0.00000  Uiso   1.00
C1146  C     0.73575   0.85215   0.91317   0.00000  Uiso   1.00
C1147  C     0.91850   0.79838   0.58876   0.00000  Uiso   1.00
C1148  C     0.80907   0.82274   0.91486   0.00000  Uiso   1.00
C1149  C     0.85279   0.84019   0.58718   0.00000  Uiso   1.00
C1150  C     0.78988   0.82408   0.96407   0.00000  Uiso   1.00
C1151  C     0.84832   0.81589   0.55034   0.00000  Uiso   1.00
C1152  C     0.74688   0.84737   0.98790   0.00000  Uiso   1.00
C1153  C     0.76742   0.84682   0.55826   0.00000  Uiso   1.00
C1154  C     0.88397   0.78427   0.52884   0.00000  Uiso   1.00
C1155  C     0.81617   0.80631   0.98895   0.00000  Uiso   1.00
C1156  C     0.81057   0.82344   0.53333   0.00000  Uiso   1.00
C1157  C     0.80480   0.95859   0.84029   0.00000  Uiso   1.00
C1158  C     0.86029   0.70790   0.65999   0.00000  Uiso   1.00
C1159  C     0.84563   0.77023   0.97200   0.00000  Uiso   1.00
C1160  C     0.73649   0.85941   0.53545   0.00000  Uiso   1.00
C1161  C     0.87856   0.75856   0.99271   0.00000  Uiso   1.00
C1162  C     0.81972   0.97984   0.79414   0.00000  Uiso   1.00
C1163  C     0.84644   0.68674   0.70608   0.00000  Uiso   1.00
C1164  C     0.81961   0.68990   0.79232   0.00000  Uiso   1.00
H1165  H     0.83231   0.86849   0.60000   0.00000  Uiso   1.00
H1166  H     0.85876   0.74181   0.65848   0.00000  Uiso   1.00
H1167  H     0.84555   0.81137   0.89600   0.00000  Uiso   1.00
H1168  H     0.94368   0.79021   0.60523   0.00000  Uiso   1.00
H1169  H     0.71364   0.86083   0.89357   0.00000  Uiso   1.00
H1170  H     0.80935   0.70881   0.82447   0.00000  Uiso   1.00
H1171  H     0.85708   0.95780   0.67572   0.00000  Uiso   1.00
H1172  H     0.97378   0.78030   0.70453   0.00000  Uiso   1.00
H1173  H     0.69245   0.88572   0.79644   0.00000  Uiso   1.00
H1174  H     0.80515   0.92460   0.84196   0.00000  Uiso   1.00
N1175  N     0.71426   0.83334   0.75001   0.00000  Uiso   1.00
N1176  N     0.95241   0.83332   0.74999   0.00000  Uiso   1.00
O1177  O     0.79512   0.89442   0.75000   0.00000  Uiso   1.00
O1178  O     0.87346   0.68763   0.62305   0.00000  Uiso   1.00
O1179  O     0.87154   0.77225   0.74999   0.00000  Uiso   1.00
O1180  O     0.87157   0.89441   0.75000   0.00000  Uiso   1.00
O1181  O     0.79510   0.77226   0.75000   0.00000  Uiso   1.00
O1182  O     0.77328   0.83334   0.81612   0.00000  Uiso   1.00
O1183  O     0.89339   0.83333   0.68387   0.00000  Uiso   1.00
O1184  O     0.84972   0.83333   0.81612   0.00000  Uiso   1.00
O1185  O     0.81695   0.83334   0.68388   0.00000  Uiso   1.00
O1186  O     0.79176   0.97888   0.87720   0.00000  Uiso   1.00
Zn1187 Zn    0.78229   0.83334   0.75000   0.00000  Uiso   1.00
Zn1188 Zn    0.88438   0.83333   0.75000   0.00000  Uiso   1.00
loop_
_geom_bond_atom_site_label_1
_geom_bond_atom_site_label_2
_geom_bond_distance
_geom_bond_site_symmetry_2
_ccdc_geom_bond_type
Br1    C38     1.939   .     S
Br2    C39     1.936   .     S
Br3    C88     1.926   .     S
Br4    C23     1.925   .     S
Br5    C31     1.933   .     S
Br6    C37     1.944   .     S
Br7    C15     1.914   .     S
Br8    C16     1.911   .     S
C9     O55     1.280   .     A
C9     C12     1.402   .     S
C9     O58     1.282   .     A
C10    H49     1.086   .     S
C10    C12     1.392   .     A
C10    C239    1.381   .     S
C11    C41     1.404   .     A
C11    C20     1.403   .     S
C11    C42     1.393   .     A
C12    C40     1.404   .     A
C13    H50     1.082   .     S
C13    N54     1.359   .     A
C13    C81     1.415   .     S
C14    H51     1.082   .     S
C14    N53     1.360   .     A
C14    C148    1.415   1_455 S
C15    N53     1.380   .     A
C15    C145    1.415   1_455 S
C16    N54     1.379   .     A
C16    C80     1.415   .     S
C17    O62     1.300   .     A
C17    O60     1.292   .     A
C17    C19     1.457   .     S
C18    O61     1.298   .     A
C18    C21     1.460   .     S
C18    O63     1.297   .     A
C19    C26     1.383   .     A
C19    C24     1.395   .     A
C20    O57     1.281   .     A
C20    O59     1.282   .     A
C21    C27     1.385   .     A
C21    C25     1.390   .     A
C22    C24     1.394   .     A
C22    C30     1.429   .     A
C22    Br135   1.926   1_455 S
C23    C32     1.431   .     A
C23    C25     1.395   .     A
C24    H47     1.084   .     S
C25    H46     1.084   .     S
C26    C28     1.398   .     A
C26    H45     1.083   .     S
C27    C29     1.398   .     A
C27    H43     1.076   .     S
C28    C30     1.422   .     A
C28    C33     1.409   .     A
C29    C32     1.432   .     A
C29    C34     1.426   .     A
C30    C632    1.416   .     S
C31    C38     1.412   .     A
C31    C34     1.433   .     A
C32    C633    1.415   1_554 S
C33    C37     1.421   .     A
C33    C628    1.404   .     S
C34    C627    1.404   1_554 S
C35    O64     1.221   .     D
C35    C40     1.488   .     S
C35    H52     1.083   .     S
C36    O56     1.221   .     D
C36    C41     1.487   .     S
C36    H44     1.082   .     S
C37    C39     1.407   .     A
C38    C624    1.416   1_554 S
C39    C626    1.415   .     S
C40    C240    1.382   .     S
C41    C406    1.381   1_545 S
C42    H48     1.086   .     S
C42    C436    1.382   1_545 S
N53    Zn65    2.019   .     S
N54    Zn66    2.019   .     S
O55    Zn65    1.971   .     S
O57    Zn66    1.971   .     S
O58    Zn66    1.985   .     S
O59    Zn65    1.985   .     S
O60    Zn65    1.940   .     S
O61    Zn66    1.940   .     S
O62    Zn66    1.898   .     S
O63    Zn65    1.898   .     S
Br67   C104    1.939   .     S
Br68   C105    1.936   .     S
Br69   C154    1.926   .     S
Br70   C89     1.925   .     S
Br71   C97     1.933   .     S
Br72   C103    1.944   .     S
Br73   C81     1.914   .     S
Br74   C82     1.911   .     S
C75    O121    1.280   .     A
C75    C78     1.402   .     S
C75    O124    1.282   .     A
C76    H115    1.086   .     S
C76    C78     1.392   .     A
C76    C305    1.381   .     S
C77    C107    1.404   .     A
C77    C86     1.403   .     S
C77    C108    1.393   .     A
C78    C106    1.404   .     A
C79    H116    1.082   .     S
C79    N120    1.359   .     A
C79    C147    1.415   .     S
C80    H117    1.082   .     S
C80    N119    1.360   .     A
C81    N119    1.380   .     A
C82    N120    1.379   .     A
C82    C146    1.415   .     S
C83    O128    1.300   .     A
C83    O126    1.292   .     A
C83    C85     1.457   .     S
C84    O127    1.298   .     A
C84    C87     1.460   .     S
C84    O129    1.297   .     A
C85    C92     1.383   .     A
C85    C90     1.395   .     A
C86    O123    1.281   .     A
C86    O125    1.282   .     A
C87    C93     1.385   .     A
C87    C91     1.390   .     A
C88    C90     1.394   .     A
C88    C96     1.429   .     A
C89    C98     1.431   .     A
C89    C91     1.395   .     A
C90    H113    1.084   .     S
C91    H112    1.084   .     S
C92    C94     1.398   .     A
C92    H111    1.083   .     S
C93    C95     1.398   .     A
C93    H109    1.076   .     S
C94    C96     1.422   .     A
C94    C99     1.409   .     A
C95    C98     1.432   .     A
C95    C100    1.426   .     A
C96    C698    1.416   .     S
C97    C104    1.412   .     A
C97    C100    1.433   .     A
C98    C699    1.415   1_554 S
C99    C103    1.421   .     A
C99    C694    1.404   .     S
C100   C693    1.404   1_554 S
C101   O130    1.221   .     D
C101   C106    1.488   .     S
C101   H118    1.083   .     S
C102   O122    1.221   .     D
C102   C107    1.487   .     S
C102   H110    1.082   .     S
C103   C105    1.407   .     A
C104   C690    1.416   1_554 S
C105   C692    1.415   .     S
C106   C306    1.382   .     S
C107   C472    1.381   1_545 S
C108   H114    1.086   .     S
C108   C502    1.382   1_545 S
N119   Zn131   2.019   .     S
N120   Zn132   2.019   .     S
O121   Zn131   1.971   .     S
O123   Zn132   1.971   .     S
O124   Zn132   1.985   .     S
O125   Zn131   1.985   .     S
O126   Zn131   1.940   .     S
O127   Zn132   1.940   .     S
O128   Zn132   1.898   .     S
O129   Zn131   1.898   .     S
Br133  C170    1.939   .     S
Br134  C171    1.936   .     S
Br135  C22     1.926   1_655 S
Br136  C155    1.925   .     S
Br137  C163    1.933   .     S
Br138  C169    1.944   .     S
Br139  C147    1.914   .     S
Br140  C148    1.911   .     S
C141   O187    1.280   .     A
C141   C144    1.402   .     S
C141   O190    1.282   .     A
C142   H181    1.086   .     S
C142   C144    1.392   .     A
C142   C371    1.381   .     S
C143   C173    1.404   .     A
C143   C152    1.403   .     S
C143   C174    1.393   .     A
C144   C172    1.404   .     A
C145   H182    1.082   .     S
C145   N186    1.359   .     A
C145   C15     1.415   1_655 S
C146   H183    1.082   .     S
C146   N185    1.360   .     A
C147   N185    1.380   .     A
C148   N186    1.379   .     A
C148   C14     1.415   1_655 S
C149   O194    1.300   .     A
C149   O192    1.292   .     A
C149   C151    1.457   .     S
C150   O193    1.298   .     A
C150   C153    1.460   .     S
C150   O195    1.297   .     A
C151   C158    1.383   .     A
C151   C156    1.395   .     A
C152   O189    1.281   .     A
C152   O191    1.282   .     A
C153   C159    1.385   .     A
C153   C157    1.390   .     A
C154   C156    1.394   .     A
C154   C162    1.429   .     A
C155   C164    1.431   .     A
C155   C157    1.395   .     A
C156   H179    1.084   .     S
C157   H178    1.084   .     S
C158   C160    1.398   .     A
C158   H177    1.083   .     S
C159   C161    1.398   .     A
C159   H175    1.076   .     S
C160   C162    1.422   .     A
C160   C165    1.409   .     A
C161   C164    1.432   .     A
C161   C166    1.426   .     A
C162   C764    1.416   .     S
C163   C170    1.412   .     A
C163   C166    1.433   .     A
C164   C765    1.415   1_554 S
C165   C169    1.421   .     A
C165   C760    1.404   .     S
C166   C759    1.404   1_554 S
C167   O196    1.221   .     D
C167   C172    1.488   .     S
C167   H184    1.083   .     S
C168   O188    1.221   .     D
C168   C173    1.487   .     S
C168   H176    1.082   .     S
C169   C171    1.407   .     A
C170   C756    1.416   1_554 S
C171   C758    1.415   .     S
C172   C372    1.382   .     S
C173   C538    1.381   1_545 S
C174   H180    1.086   .     S
C174   C568    1.382   1_545 S
N185   Zn197   2.019   .     S
N186   Zn198   2.019   .     S
O187   Zn197   1.971   .     S
O189   Zn198   1.971   .     S
O190   Zn198   1.985   .     S
O191   Zn197   1.985   .     S
O192   Zn197   1.940   .     S
O193   Zn198   1.940   .     S
O194   Zn198   1.898   .     S
O195   Zn197   1.898   .     S
Br199  C236    1.939   .     S
Br200  C237    1.936   .     S
Br201  C286    1.926   .     S
Br202  C221    1.925   .     S
Br203  C229    1.933   .     S
Br204  C235    1.944   .     S
Br205  C213    1.914   .     S
Br206  C214    1.911   .     S
C207   O253    1.280   .     A
C207   C210    1.402   .     S
C207   O256    1.282   .     A
C208   H247    1.086   .     S
C208   C210    1.392   .     A
C208   C437    1.381   .     S
C209   C239    1.404   .     A
C209   C218    1.403   .     S
C209   C240    1.393   .     A
C210   C238    1.404   .     A
C211   H248    1.082   .     S
C211   N252    1.359   .     A
C211   C279    1.415   .     S
C212   H249    1.082   .     S
C212   N251    1.360   .     A
C212   C346    1.415   1_455 S
C213   N251    1.380   .     A
C213   C343    1.415   1_455 S
C214   N252    1.379   .     A
C214   C278    1.415   .     S
C215   O260    1.300   .     A
C215   O258    1.292   .     A
C215   C217    1.457   .     S
C216   O259    1.298   .     A
C216   C219    1.460   .     S
C216   O261    1.297   .     A
C217   C224    1.383   .     A
C217   C222    1.395   .     A
C218   O255    1.281   .     A
C218   O257    1.282   .     A
C219   C225    1.385   .     A
C219   C223    1.390   .     A
C220   C222    1.394   .     A
C220   C228    1.429   .     A
C220   Br333   1.926   1_455 S
C221   C230    1.431   .     A
C221   C223    1.395   .     A
C222   H245    1.084   .     S
C223   H244    1.084   .     S
C224   C226    1.398   .     A
C224   H243    1.083   .     S
C225   C227    1.398   .     A
C225   H241    1.076   .     S
C226   C228    1.422   .     A
C226   C231    1.409   .     A
C227   C230    1.432   .     A
C227   C232    1.426   .     A
C228   C830    1.416   .     S
C229   C236    1.412   .     A
C229   C232    1.433   .     A
C230   C831    1.415   1_554 S
C231   C235    1.421   .     A
C231   C826    1.404   .     S
C232   C825    1.404   1_554 S
C233   O262    1.221   .     D
C233   C238    1.488   .     S
C233   H250    1.083   .     S
C234   O254    1.221   .     D
C234   C239    1.487   .     S
C234   H242    1.082   .     S
C235   C237    1.407   .     A
C236   C822    1.416   1_554 S
C237   C824    1.415   .     S
C238   C438    1.382   .     S
C240   H246    1.086   .     S
N251   Zn263   2.019   .     S
N252   Zn264   2.019   .     S
O253   Zn263   1.971   .     S
O255   Zn264   1.971   .     S
O256   Zn264   1.985   .     S
O257   Zn263   1.985   .     S
O258   Zn263   1.940   .     S
O259   Zn264   1.940   .     S
O260   Zn264   1.898   .     S
O261   Zn263   1.898   .     S
Br265  C302    1.939   .     S
Br266  C303    1.936   .     S
Br267  C352    1.926   .     S
Br268  C287    1.925   .     S
Br269  C295    1.933   .     S
Br270  C301    1.944   .     S
Br271  C279    1.914   .     S
Br272  C280    1.911   .     S
C273   O319    1.280   .     A
C273   C276    1.402   .     S
C273   O322    1.282   .     A
C274   H313    1.086   .     S
C274   C276    1.392   .     A
C274   C503    1.381   .     S
C275   C305    1.404   .     A
C275   C284    1.403   .     S
C275   C306    1.393   .     A
C276   C304    1.404   .     A
C277   H314    1.082   .     S
C277   N318    1.359   .     A
C277   C345    1.415   .     S
C278   H315    1.082   .     S
C278   N317    1.360   .     A
C279   N317    1.380   .     A
C280   N318    1.379   .     A
C280   C344    1.415   .     S
C281   O326    1.300   .     A
C281   O324    1.292   .     A
C281   C283    1.457   .     S
C282   O325    1.298   .     A
C282   C285    1.460   .     S
C282   O327    1.297   .     A
C283   C290    1.383   .     A
C283   C288    1.395   .     A
C284   O321    1.281   .     A
C284   O323    1.282   .     A
C285   C291    1.385   .     A
C285   C289    1.390   .     A
C286   C288    1.394   .     A
C286   C294    1.429   .     A
C287   C296    1.431   .     A
C287   C289    1.395   .     A
C288   H311    1.084   .     S
C289   H310    1.084   .     S
C290   C292    1.398   .     A
C290   H309    1.083   .     S
C291   C293    1.398   .     A
C291   H307    1.076   .     S
C292   C294    1.422   .     A
C292   C297    1.409   .     A
C293   C296    1.432   .     A
C293   C298    1.426   .     A
C294   C896    1.416   .     S
C295   C302    1.412   .     A
C295   C298    1.433   .     A
C296   C897    1.415   1_554 S
C297   C301    1.421   .     A
C297   C892    1.404   .     S
C298   C891    1.404   1_554 S
C299   O328    1.221   .     D
C299   C304    1.488   .     S
C299   H316    1.083   .     S
C300   O320    1.221   .     D
C300   C305    1.487   .     S
C300   H308    1.082   .     S
C301   C303    1.407   .     A
C302   C888    1.416   1_554 S
C303   C890    1.415   .     S
C304   C504    1.382   .     S
C306   H312    1.086   .     S
N317   Zn329   2.019   .     S
N318   Zn330   2.019   .     S
O319   Zn329   1.971   .     S
O321   Zn330   1.971   .     S
O322   Zn330   1.985   .     S
O323   Zn329   1.985   .     S
O324   Zn329   1.940   .     S
O325   Zn330   1.940   .     S
O326   Zn330   1.898   .     S
O327   Zn329   1.898   .     S
Br331  C368    1.939   .     S
Br332  C369    1.936   .     S
Br333  C220    1.926   1_655 S
Br334  C353    1.925   .     S
Br335  C361    1.933   .     S
Br336  C367    1.944   .     S
Br337  C345    1.914   .     S
Br338  C346    1.911   .     S
C339   O385    1.280   .     A
C339   C342    1.402   .     S
C339   O388    1.282   .     A
C340   H379    1.086   .     S
C340   C342    1.392   .     A
C340   C569    1.381   .     S
C341   C371    1.404   .     A
C341   C350    1.403   .     S
C341   C372    1.393   .     A
C342   C370    1.404   .     A
C343   H380    1.082   .     S
C343   N384    1.359   .     A
C343   C213    1.415   1_655 S
C344   H381    1.082   .     S
C344   N383    1.360   .     A
C345   N383    1.380   .     A
C346   N384    1.379   .     A
C346   C212    1.415   1_655 S
C347   O392    1.300   .     A
C347   O390    1.292   .     A
C347   C349    1.457   .     S
C348   O391    1.298   .     A
C348   C351    1.460   .     S
C348   O393    1.297   .     A
C349   C356    1.383   .     A
C349   C354    1.395   .     A
C350   O387    1.281   .     A
C350   O389    1.282   .     A
C351   C357    1.385   .     A
C351   C355    1.390   .     A
C352   C354    1.394   .     A
C352   C360    1.429   .     A
C353   C362    1.431   .     A
C353   C355    1.395   .     A
C354   H377    1.084   .     S
C355   H376    1.084   .     S
C356   C358    1.398   .     A
C356   H375    1.083   .     S
C357   C359    1.398   .     A
C357   H373    1.076   .     S
C358   C360    1.422   .     A
C358   C363    1.409   .     A
C359   C362    1.432   .     A
C359   C364    1.426   .     A
C360   C962    1.416   .     S
C361   C368    1.412   .     A
C361   C364    1.433   .     A
C362   C963    1.415   1_554 S
C363   C367    1.421   .     A
C363   C958    1.404   .     S
C364   C957    1.404   1_554 S
C365   O394    1.221   .     D
C365   C370    1.488   .     S
C365   H382    1.083   .     S
C366   O386    1.221   .     D
C366   C371    1.487   .     S
C366   H374    1.082   .     S
C367   C369    1.407   .     A
C368   C954    1.416   1_554 S
C369   C956    1.415   .     S
C370   C570    1.382   .     S
C372   H378    1.086   .     S
N383   Zn395   2.019   .     S
N384   Zn396   2.019   .     S
O385   Zn395   1.971   .     S
O387   Zn396   1.971   .     S
O388   Zn396   1.985   .     S
O389   Zn395   1.985   .     S
O390   Zn395   1.940   .     S
O391   Zn396   1.940   .     S
O392   Zn396   1.898   .     S
O393   Zn395   1.898   .     S
Br397  C434    1.939   .     S
Br398  C435    1.936   .     S
Br399  C484    1.926   .     S
Br400  C419    1.925   .     S
Br401  C427    1.933   .     S
Br402  C433    1.944   .     S
Br403  C411    1.914   .     S
Br404  C412    1.911   .     S
C405   O451    1.280   .     A
C405   C408    1.402   .     S
C405   O454    1.282   .     A
C406   H445    1.086   .     S
C406   C408    1.392   .     A
C406   C41     1.381   1_565 S
C407   C437    1.404   .     A
C407   C416    1.403   .     S
C407   C438    1.393   .     A
C408   C436    1.404   .     A
C409   H446    1.082   .     S
C409   N450    1.359   .     A
C409   C477    1.415   .     S
C410   H447    1.082   .     S
C410   N449    1.360   .     A
C410   C544    1.415   1_455 S
C411   N449    1.380   .     A
C411   C541    1.415   1_455 S
C412   N450    1.379   .     A
C412   C476    1.415   .     S
C413   O458    1.300   .     A
C413   O456    1.292   .     A
C413   C415    1.457   .     S
C414   O457    1.298   .     A
C414   C417    1.460   .     S
C414   O459    1.297   .     A
C415   C422    1.383   .     A
C415   C420    1.395   .     A
C416   O453    1.281   .     A
C416   O455    1.282   .     A
C417   C423    1.385   .     A
C417   C421    1.390   .     A
C418   C420    1.394   .     A
C418   C426    1.429   .     A
C418   Br531   1.926   1_455 S
C419   C428    1.431   .     A
C419   C421    1.395   .     A
C420   H443    1.084   .     S
C421   H442    1.084   .     S
C422   C424    1.398   .     A
C422   H441    1.083   .     S
C423   C425    1.398   .     A
C423   H439    1.076   .     S
C424   C426    1.422   .     A
C424   C429    1.409   .     A
C425   C428    1.432   .     A
C425   C430    1.426   .     A
C426   C1028   1.416   .     S
C427   C434    1.412   .     A
C427   C430    1.433   .     A
C428   C1029   1.415   1_554 S
C429   C433    1.421   .     A
C429   C1024   1.404   .     S
C430   C1023   1.404   1_554 S
C431   O460    1.221   .     D
C431   C436    1.488   .     S
C431   H448    1.083   .     S
C432   O452    1.221   .     D
C432   C437    1.487   .     S
C432   H440    1.082   .     S
C433   C435    1.407   .     A
C434   C1020   1.416   1_554 S
C435   C1022   1.415   .     S
C436   C42     1.382   1_565 S
C438   H444    1.086   .     S
N449   Zn461   2.019   .     S
N450   Zn462   2.019   .     S
O451   Zn461   1.971   .     S
O453   Zn462   1.971   .     S
O454   Zn462   1.985   .     S
O455   Zn461   1.985   .     S
O456   Zn461   1.940   .     S
O457   Zn462   1.940   .     S
O458   Zn462   1.898   .     S
O459   Zn461   1.898   .     S
Br463  C500    1.939   .     S
Br464  C501    1.936   .     S
Br465  C550    1.926   .     S
Br466  C485    1.925   .     S
Br467  C493    1.933   .     S
Br468  C499    1.944   .     S
Br469  C477    1.914   .     S
Br470  C478    1.911   .     S
C471   O517    1.280   .     A
C471   C474    1.402   .     S
C471   O520    1.282   .     A
C472   H511    1.086   .     S
C472   C474    1.392   .     A
C472   C107    1.381   1_565 S
C473   C503    1.404   .     A
C473   C482    1.403   .     S
C473   C504    1.393   .     A
C474   C502    1.404   .     A
C475   H512    1.082   .     S
C475   N516    1.359   .     A
C475   C543    1.415   .     S
C476   H513    1.082   .     S
C476   N515    1.360   .     A
C477   N515    1.380   .     A
C478   N516    1.379   .     A
C478   C542    1.415   .     S
C479   O524    1.300   .     A
C479   O522    1.292   .     A
C479   C481    1.457   .     S
C480   O523    1.298   .     A
C480   C483    1.460   .     S
C480   O525    1.297   .     A
C481   C488    1.383   .     A
C481   C486    1.395   .     A
C482   O519    1.281   .     A
C482   O521    1.282   .     A
C483   C489    1.385   .     A
C483   C487    1.390   .     A
C484   C486    1.394   .     A
C484   C492    1.429   .     A
C485   C494    1.431   .     A
C485   C487    1.395   .     A
C486   H509    1.084   .     S
C487   H508    1.084   .     S
C488   C490    1.398   .     A
C488   H507    1.083   .     S
C489   C491    1.398   .     A
C489   H505    1.076   .     S
C490   C492    1.422   .     A
C490   C495    1.409   .     A
C491   C494    1.432   .     A
C491   C496    1.426   .     A
C492   C1094   1.416   .     S
C493   C500    1.412   .     A
C493   C496    1.433   .     A
C494   C1095   1.415   1_554 S
C495   C499    1.421   .     A
C495   C1090   1.404   .     S
C496   C1089   1.404   1_554 S
C497   O526    1.221   .     D
C497   C502    1.488   .     S
C497   H514    1.083   .     S
C498   O518    1.221   .     D
C498   C503    1.487   .     S
C498   H506    1.082   .     S
C499   C501    1.407   .     A
C500   C1086   1.416   1_554 S
C501   C1088   1.415   .     S
C502   C108    1.382   1_565 S
C504   H510    1.086   .     S
N515   Zn527   2.019   .     S
N516   Zn528   2.019   .     S
O517   Zn527   1.971   .     S
O519   Zn528   1.971   .     S
O520   Zn528   1.985   .     S
O521   Zn527   1.985   .     S
O522   Zn527   1.940   .     S
O523   Zn528   1.940   .     S
O524   Zn528   1.898   .     S
O525   Zn527   1.898   .     S
Br529  C566    1.939   .     S
Br530  C567    1.936   .     S
Br531  C418    1.926   1_655 S
Br532  C551    1.925   .     S
Br533  C559    1.933   .     S
Br534  C565    1.944   .     S
Br535  C543    1.914   .     S
Br536  C544    1.911   .     S
C537   O583    1.280   .     A
C537   C540    1.402   .     S
C537   O586    1.282   .     A
C538   H577    1.086   .     S
C538   C540    1.392   .     A
C538   C173    1.381   1_565 S
C539   C569    1.404   .     A
C539   C548    1.403   .     S
C539   C570    1.393   .     A
C540   C568    1.404   .     A
C541   H578    1.082   .     S
C541   N582    1.359   .     A
C541   C411    1.415   1_655 S
C542   H579    1.082   .     S
C542   N581    1.360   .     A
C543   N581    1.380   .     A
C544   N582    1.379   .     A
C544   C410    1.415   1_655 S
C545   O590    1.300   .     A
C545   O588    1.292   .     A
C545   C547    1.457   .     S
C546   O589    1.298   .     A
C546   C549    1.460   .     S
C546   O591    1.297   .     A
C547   C554    1.383   .     A
C547   C552    1.395   .     A
C548   O585    1.281   .     A
C548   O587    1.282   .     A
C549   C555    1.385   .     A
C549   C553    1.390   .     A
C550   C552    1.394   .     A
C550   C558    1.429   .     A
C551   C560    1.431   .     A
C551   C553    1.395   .     A
C552   H575    1.084   .     S
C553   H574    1.084   .     S
C554   C556    1.398   .     A
C554   H573    1.083   .     S
C555   C557    1.398   .     A
C555   H571    1.076   .     S
C556   C558    1.422   .     A
C556   C561    1.409   .     A
C557   C560    1.432   .     A
C557   C562    1.426   .     A
C558   C1160   1.416   .     S
C559   C566    1.412   .     A
C559   C562    1.433   .     A
C560   C1161   1.415   1_554 S
C561   C565    1.421   .     A
C561   C1156   1.404   .     S
C562   C1155   1.404   1_554 S
C563   O592    1.221   .     D
C563   C568    1.488   .     S
C563   H580    1.083   .     S
C564   O584    1.221   .     D
C564   C569    1.487   .     S
C564   H572    1.082   .     S
C565   C567    1.407   .     A
C566   C1152   1.416   1_554 S
C567   C1154   1.415   .     S
C568   C174    1.382   1_565 S
C570   H576    1.086   .     S
N581   Zn593   2.019   .     S
N582   Zn594   2.019   .     S
O583   Zn593   1.971   .     S
O585   Zn594   1.971   .     S
O586   Zn594   1.985   .     S
O587   Zn593   1.985   .     S
O588   Zn593   1.940   .     S
O589   Zn594   1.940   .     S
O590   Zn594   1.898   .     S
O591   Zn593   1.898   .     S
Br595  C632    1.939   .     S
Br596  C633    1.936   .     S
Br597  C682    1.926   .     S
Br598  C617    1.925   .     S
Br599  C625    1.933   .     S
Br600  C631    1.944   .     S
Br601  C609    1.914   .     S
Br602  C610    1.911   .     S
C603   O649    1.280   .     A
C603   C606    1.402   .     S
C603   O652    1.282   .     A
C604   H643    1.086   .     S
C604   C606    1.392   .     A
C604   C833    1.381   .     S
C605   C635    1.404   .     A
C605   C614    1.403   .     S
C605   C636    1.393   .     A
C606   C634    1.404   .     A
C607   H644    1.082   .     S
C607   N648    1.359   .     A
C607   C675    1.415   .     S
C608   H645    1.082   .     S
C608   N647    1.360   .     A
C608   C742    1.415   1_455 S
C609   N647    1.380   .     A
C609   C739    1.415   1_455 S
C610   N648    1.379   .     A
C610   C674    1.415   .     S
C611   O656    1.300   .     A
C611   O654    1.292   .     A
C611   C613    1.457   .     S
C612   O655    1.298   .     A
C612   C615    1.460   .     S
C612   O657    1.297   .     A
C613   C620    1.383   .     A
C613   C618    1.395   .     A
C614   O651    1.281   .     A
C614   O653    1.282   .     A
C615   C621    1.385   .     A
C615   C619    1.390   .     A
C616   C618    1.394   .     A
C616   C624    1.429   .     A
C616   Br729   1.926   1_455 S
C617   C626    1.431   .     A
C617   C619    1.395   .     A
C618   H641    1.084   .     S
C619   H640    1.084   .     S
C620   C622    1.398   .     A
C620   H639    1.083   .     S
C621   C623    1.398   .     A
C621   H637    1.076   .     S
C622   C624    1.422   .     A
C622   C627    1.409   .     A
C623   C626    1.432   .     A
C623   C628    1.426   .     A
C624   C38     1.416   1_556 S
C625   C632    1.412   .     A
C625   C628    1.433   .     A
C627   C631    1.421   .     A
C627   C34     1.404   1_556 S
C629   O658    1.221   .     D
C629   C634    1.488   .     S
C629   H646    1.083   .     S
C630   O650    1.221   .     D
C630   C635    1.487   .     S
C630   H638    1.082   .     S
C631   C633    1.407   .     A
C633   C32     1.415   1_556 S
C634   C834    1.382   .     S
C635   C1000   1.381   1_545 S
C636   H642    1.086   .     S
C636   C1030   1.382   1_545 S
N647   Zn659   2.019   .     S
N648   Zn660   2.019   .     S
O649   Zn659   1.971   .     S
O651   Zn660   1.971   .     S
O652   Zn660   1.985   .     S
O653   Zn659   1.985   .     S
O654   Zn659   1.940   .     S
O655   Zn660   1.940   .     S
O656   Zn660   1.898   .     S
O657   Zn659   1.898   .     S
Br661  C698    1.939   .     S
Br662  C699    1.936   .     S
Br663  C748    1.926   .     S
Br664  C683    1.925   .     S
Br665  C691    1.933   .     S
Br666  C697    1.944   .     S
Br667  C675    1.914   .     S
Br668  C676    1.911   .     S
C669   O715    1.280   .     A
C669   C672    1.402   .     S
C669   O718    1.282   .     A
C670   H709    1.086   .     S
C670   C672    1.392   .     A
C670   C899    1.381   .     S
C671   C701    1.404   .     A
C671   C680    1.403   .     S
C671   C702    1.393   .     A
C672   C700    1.404   .     A
C673   H710    1.082   .     S
C673   N714    1.359   .     A
C673   C741    1.415   .     S
C674   H711    1.082   .     S
C674   N713    1.360   .     A
C675   N713    1.380   .     A
C676   N714    1.379   .     A
C676   C740    1.415   .     S
C677   O722    1.300   .     A
C677   O720    1.292   .     A
C677   C679    1.457   .     S
C678   O721    1.298   .     A
C678   C681    1.460   .     S
C678   O723    1.297   .     A
C679   C686    1.383   .     A
C679   C684    1.395   .     A
C680   O717    1.281   .     A
C680   O719    1.282   .     A
C681   C687    1.385   .     A
C681   C685    1.390   .     A
C682   C684    1.394   .     A
C682   C690    1.429   .     A
C683   C692    1.431   .     A
C683   C685    1.395   .     A
C684   H707    1.084   .     S
C685   H706    1.084   .     S
C686   C688    1.398   .     A
C686   H705    1.083   .     S
C687   C689    1.398   .     A
C687   H703    1.076   .     S
C688   C690    1.422   .     A
C688   C693    1.409   .     A
C689   C692    1.432   .     A
C689   C694    1.426   .     A
C690   C104    1.416   1_556 S
C691   C698    1.412   .     A
C691   C694    1.433   .     A
C693   C697    1.421   .     A
C693   C100    1.404   1_556 S
C695   O724    1.221   .     D
C695   C700    1.488   .     S
C695   H712    1.083   .     S
C696   O716    1.221   .     D
C696   C701    1.487   .     S
C696   H704    1.082   .     S
C697   C699    1.407   .     A
C699   C98     1.415   1_556 S
C700   C900    1.382   .     S
C701   C1066   1.381   1_545 S
C702   H708    1.086   .     S
C702   C1096   1.382   1_545 S
N713   Zn725   2.019   .     S
N714   Zn726   2.019   .     S
O715   Zn725   1.971   .     S
O717   Zn726   1.971   .     S
O718   Zn726   1.985   .     S
O719   Zn725   1.985   .     S
O720   Zn725   1.940   .     S
O721   Zn726   1.940   .     S
O722   Zn726   1.898   .     S
O723   Zn725   1.898   .     S
Br727  C764    1.939   .     S
Br728  C765    1.936   .     S
Br729  C616    1.926   1_655 S
Br730  C749    1.925   .     S
Br731  C757    1.933   .     S
Br732  C763    1.944   .     S
Br733  C741    1.914   .     S
Br734  C742    1.911   .     S
C735   O781    1.280   .     A
C735   C738    1.402   .     S
C735   O784    1.282   .     A
C736   H775    1.086   .     S
C736   C738    1.392   .     A
C736   C965    1.381   .     S
C737   C767    1.404   .     A
C737   C746    1.403   .     S
C737   C768    1.393   .     A
C738   C766    1.404   .     A
C739   H776    1.082   .     S
C739   N780    1.359   .     A
C739   C609    1.415   1_655 S
C740   H777    1.082   .     S
C740   N779    1.360   .     A
C741   N779    1.380   .     A
C742   N780    1.379   .     A
C742   C608    1.415   1_655 S
C743   O788    1.300   .     A
C743   O786    1.292   .     A
C743   C745    1.457   .     S
C744   O787    1.298   .     A
C744   C747    1.460   .     S
C744   O789    1.297   .     A
C745   C752    1.383   .     A
C745   C750    1.395   .     A
C746   O783    1.281   .     A
C746   O785    1.282   .     A
C747   C753    1.385   .     A
C747   C751    1.390   .     A
C748   C750    1.394   .     A
C748   C756    1.429   .     A
C749   C758    1.431   .     A
C749   C751    1.395   .     A
C750   H773    1.084   .     S
C751   H772    1.084   .     S
C752   C754    1.398   .     A
C752   H771    1.083   .     S
C753   C755    1.398   .     A
C753   H769    1.076   .     S
C754   C756    1.422   .     A
C754   C759    1.409   .     A
C755   C758    1.432   .     A
C755   C760    1.426   .     A
C756   C170    1.416   1_556 S
C757   C764    1.412   .     A
C757   C760    1.433   .     A
C759   C763    1.421   .     A
C759   C166    1.404   1_556 S
C761   O790    1.221   .     D
C761   C766    1.488   .     S
C761   H778    1.083   .     S
C762   O782    1.221   .     D
C762   C767    1.487   .     S
C762   H770    1.082   .     S
C763   C765    1.407   .     A
C765   C164    1.415   1_556 S
C766   C966    1.382   .     S
C767   C1132   1.381   1_545 S
C768   H774    1.086   .     S
C768   C1162   1.382   1_545 S
N779   Zn791   2.019   .     S
N780   Zn792   2.019   .     S
O781   Zn791   1.971   .     S
O783   Zn792   1.971   .     S
O784   Zn792   1.985   .     S
O785   Zn791   1.985   .     S
O786   Zn791   1.940   .     S
O787   Zn792   1.940   .     S
O788   Zn792   1.898   .     S
O789   Zn791   1.898   .     S
Br793  C830    1.939   .     S
Br794  C831    1.936   .     S
Br795  C880    1.926   .     S
Br796  C815    1.925   .     S
Br797  C823    1.933   .     S
Br798  C829    1.944   .     S
Br799  C807    1.914   .     S
Br800  C808    1.911   .     S
C801   O847    1.280   .     A
C801   C804    1.402   .     S
C801   O850    1.282   .     A
C802   H841    1.086   .     S
C802   C804    1.392   .     A
C802   C1031   1.381   .     S
C803   C833    1.404   .     A
C803   C812    1.403   .     S
C803   C834    1.393   .     A
C804   C832    1.404   .     A
C805   H842    1.082   .     S
C805   N846    1.359   .     A
C805   C873    1.415   .     S
C806   H843    1.082   .     S
C806   N845    1.360   .     A
C806   C940    1.415   1_455 S
C807   N845    1.380   .     A
C807   C937    1.415   1_455 S
C808   N846    1.379   .     A
C808   C872    1.415   .     S
C809   O854    1.300   .     A
C809   O852    1.292   .     A
C809   C811    1.457   .     S
C810   O853    1.298   .     A
C810   C813    1.460   .     S
C810   O855    1.297   .     A
C811   C818    1.383   .     A
C811   C816    1.395   .     A
C812   O849    1.281   .     A
C812   O851    1.282   .     A
C813   C819    1.385   .     A
C813   C817    1.390   .     A
C814   C816    1.394   .     A
C814   C822    1.429   .     A
C814   Br927   1.926   1_455 S
C815   C824    1.431   .     A
C815   C817    1.395   .     A
C816   H839    1.084   .     S
C817   H838    1.084   .     S
C818   C820    1.398   .     A
C818   H837    1.083   .     S
C819   C821    1.398   .     A
C819   H835    1.076   .     S
C820   C822    1.422   .     A
C820   C825    1.409   .     A
C821   C824    1.432   .     A
C821   C826    1.426   .     A
C822   C236    1.416   1_556 S
C823   C830    1.412   .     A
C823   C826    1.433   .     A
C825   C829    1.421   .     A
C825   C232    1.404   1_556 S
C827   O856    1.221   .     D
C827   C832    1.488   .     S
C827   H844    1.083   .     S
C828   O848    1.221   .     D
C828   C833    1.487   .     S
C828   H836    1.082   .     S
C829   C831    1.407   .     A
C831   C230    1.415   1_556 S
C832   C1032   1.382   .     S
C834   H840    1.086   .     S
N845   Zn857   2.019   .     S
N846   Zn858   2.019   .     S
O847   Zn857   1.971   .     S
O849   Zn858   1.971   .     S
O850   Zn858   1.985   .     S
O851   Zn857   1.985   .     S
O852   Zn857   1.940   .     S
O853   Zn858   1.940   .     S
O854   Zn858   1.898   .     S
O855   Zn857   1.898   .     S
Br859  C896    1.939   .     S
Br860  C897    1.936   .     S
Br861  C946    1.926   .     S
Br862  C881    1.925   .     S
Br863  C889    1.933   .     S
Br864  C895    1.944   .     S
Br865  C873    1.914   .     S
Br866  C874    1.911   .     S
C867   O913    1.280   .     A
C867   C870    1.402   .     S
C867   O916    1.282   .     A
C868   H907    1.086   .     S
C868   C870    1.392   .     A
C868   C1097   1.381   .     S
C869   C899    1.404   .     A
C869   C878    1.403   .     S
C869   C900    1.393   .     A
C870   C898    1.404   .     A
C871   H908    1.082   .     S
C871   N912    1.359   .     A
C871   C939    1.415   .     S
C872   H909    1.082   .     S
C872   N911    1.360   .     A
C873   N911    1.380   .     A
C874   N912    1.379   .     A
C874   C938    1.415   .     S
C875   O920    1.300   .     A
C875   O918    1.292   .     A
C875   C877    1.457   .     S
C876   O919    1.298   .     A
C876   C879    1.460   .     S
C876   O921    1.297   .     A
C877   C884    1.383   .     A
C877   C882    1.395   .     A
C878   O915    1.281   .     A
C878   O917    1.282   .     A
C879   C885    1.385   .     A
C879   C883    1.390   .     A
C880   C882    1.394   .     A
C880   C888    1.429   .     A
C881   C890    1.431   .     A
C881   C883    1.395   .     A
C882   H905    1.084   .     S
C883   H904    1.084   .     S
C884   C886    1.398   .     A
C884   H903    1.083   .     S
C885   C887    1.398   .     A
C885   H901    1.076   .     S
C886   C888    1.422   .     A
C886   C891    1.409   .     A
C887   C890    1.432   .     A
C887   C892    1.426   .     A
C888   C302    1.416   1_556 S
C889   C896    1.412   .     A
C889   C892    1.433   .     A
C891   C895    1.421   .     A
C891   C298    1.404   1_556 S
C893   O922    1.221   .     D
C893   C898    1.488   .     S
C893   H910    1.083   .     S
C894   O914    1.221   .     D
C894   C899    1.487   .     S
C894   H902    1.082   .     S
C895   C897    1.407   .     A
C897   C296    1.415   1_556 S
C898   C1098   1.382   .     S
C900   H906    1.086   .     S
N911   Zn923   2.019   .     S
N912   Zn924   2.019   .     S
O913   Zn923   1.971   .     S
O915   Zn924   1.971   .     S
O916   Zn924   1.985   .     S
O917   Zn923   1.985   .     S
O918   Zn923   1.940   .     S
O919   Zn924   1.940   .     S
O920   Zn924   1.898   .     S
O921   Zn923   1.898   .     S
Br925  C962    1.939   .     S
Br926  C963    1.936   .     S
Br927  C814    1.926   1_655 S
Br928  C947    1.925   .     S
Br929  C955    1.933   .     S
Br930  C961    1.944   .     S
Br931  C939    1.914   .     S
Br932  C940    1.911   .     S
C933   O979    1.280   .     A
C933   C936    1.402   .     S
C933   O982    1.282   .     A
C934   H973    1.086   .     S
C934   C936    1.392   .     A
C934   C1163   1.381   .     S
C935   C965    1.404   .     A
C935   C944    1.403   .     S
C935   C966    1.393   .     A
C936   C964    1.404   .     A
C937   H974    1.082   .     S
C937   N978    1.359   .     A
C937   C807    1.415   1_655 S
C938   H975    1.082   .     S
C938   N977    1.360   .     A
C939   N977    1.380   .     A
C940   N978    1.379   .     A
C940   C806    1.415   1_655 S
C941   O986    1.300   .     A
C941   O984    1.292   .     A
C941   C943    1.457   .     S
C942   O985    1.298   .     A
C942   C945    1.460   .     S
C942   O987    1.297   .     A
C943   C950    1.383   .     A
C943   C948    1.395   .     A
C944   O981    1.281   .     A
C944   O983    1.282   .     A
C945   C951    1.385   .     A
C945   C949    1.390   .     A
C946   C948    1.394   .     A
C946   C954    1.429   .     A
C947   C956    1.431   .     A
C947   C949    1.395   .     A
C948   H971    1.084   .     S
C949   H970    1.084   .     S
C950   C952    1.398   .     A
C950   H969    1.083   .     S
C951   C953    1.398   .     A
C951   H967    1.076   .     S
C952   C954    1.422   .     A
C952   C957    1.409   .     A
C953   C956    1.432   .     A
C953   C958    1.426   .     A
C954   C368    1.416   1_556 S
C955   C962    1.412   .     A
C955   C958    1.433   .     A
C957   C961    1.421   .     A
C957   C364    1.404   1_556 S
C959   O988    1.221   .     D
C959   C964    1.488   .     S
C959   H976    1.083   .     S
C960   O980    1.221   .     D
C960   C965    1.487   .     S
C960   H968    1.082   .     S
C961   C963    1.407   .     A
C963   C362    1.415   1_556 S
C964   C1164   1.382   .     S
C966   H972    1.086   .     S
N977   Zn989   2.019   .     S
N978   Zn990   2.019   .     S
O979   Zn989   1.971   .     S
O981   Zn990   1.971   .     S
O982   Zn990   1.985   .     S
O983   Zn989   1.985   .     S
O984   Zn989   1.940   .     S
O985   Zn990   1.940   .     S
O986   Zn990   1.898   .     S
O987   Zn989   1.898   .     S
Br991  C1028   1.939   .     S
Br992  C1029   1.936   .     S
Br993  C1078   1.926   .     S
Br994  C1013   1.925   .     S
Br995  C1021   1.933   .     S
Br996  C1027   1.944   .     S
Br997  C1005   1.914   .     S
Br998  C1006   1.911   .     S
C999   O1045   1.280   .     A
C999   C1002   1.402   .     S
C999   O1048   1.282   .     A
C1000  H1039   1.086   .     S
C1000  C1002   1.392   .     A
C1000  C635    1.381   1_565 S
C1001  C1031   1.404   .     A
C1001  C1010   1.403   .     S
C1001  C1032   1.393   .     A
C1002  C1030   1.404   .     A
C1003  H1040   1.082   .     S
C1003  N1044   1.359   .     A
C1003  C1071   1.415   .     S
C1004  H1041   1.082   .     S
C1004  N1043   1.360   .     A
C1004  C1138   1.415   1_455 S
C1005  N1043   1.380   .     A
C1005  C1135   1.415   1_455 S
C1006  N1044   1.379   .     A
C1006  C1070   1.415   .     S
C1007  O1052   1.300   .     A
C1007  O1050   1.292   .     A
C1007  C1009   1.457   .     S
C1008  O1051   1.298   .     A
C1008  C1011   1.460   .     S
C1008  O1053   1.297   .     A
C1009  C1016   1.383   .     A
C1009  C1014   1.395   .     A
C1010  O1047   1.281   .     A
C1010  O1049   1.282   .     A
C1011  C1017   1.385   .     A
C1011  C1015   1.390   .     A
C1012  C1014   1.394   .     A
C1012  C1020   1.429   .     A
C1012  Br1125  1.926   1_455 S
C1013  C1022   1.431   .     A
C1013  C1015   1.395   .     A
C1014  H1037   1.084   .     S
C1015  H1036   1.084   .     S
C1016  C1018   1.398   .     A
C1016  H1035   1.083   .     S
C1017  C1019   1.398   .     A
C1017  H1033   1.076   .     S
C1018  C1020   1.422   .     A
C1018  C1023   1.409   .     A
C1019  C1022   1.432   .     A
C1019  C1024   1.426   .     A
C1020  C434    1.416   1_556 S
C1021  C1028   1.412   .     A
C1021  C1024   1.433   .     A
C1023  C1027   1.421   .     A
C1023  C430    1.404   1_556 S
C1025  O1054   1.221   .     D
C1025  C1030   1.488   .     S
C1025  H1042   1.083   .     S
C1026  O1046   1.221   .     D
C1026  C1031   1.487   .     S
C1026  H1034   1.082   .     S
C1027  C1029   1.407   .     A
C1029  C428    1.415   1_556 S
C1030  C636    1.382   1_565 S
C1032  H1038   1.086   .     S
N1043  Zn1055  2.019   .     S
N1044  Zn1056  2.019   .     S
O1045  Zn1055  1.971   .     S
O1047  Zn1056  1.971   .     S
O1048  Zn1056  1.985   .     S
O1049  Zn1055  1.985   .     S
O1050  Zn1055  1.940   .     S
O1051  Zn1056  1.940   .     S
O1052  Zn1056  1.898   .     S
O1053  Zn1055  1.898   .     S
Br1057 C1094   1.939   .     S
Br1058 C1095   1.936   .     S
Br1059 C1144   1.926   .     S
Br1060 C1079   1.925   .     S
Br1061 C1087   1.933   .     S
Br1062 C1093   1.944   .     S
Br1063 C1071   1.914   .     S
Br1064 C1072   1.911   .     S
C1065  O1111   1.280   .     A
C1065  C1068   1.402   .     S
C1065  O1114   1.282   .     A
C1066  H1105   1.086   .     S
C1066  C1068   1.392   .     A
C1066  C701    1.381   1_565 S
C1067  C1097   1.404   .     A
C1067  C1076   1.403   .     S
C1067  C1098   1.393   .     A
C1068  C1096   1.404   .     A
C1069  H1106   1.082   .     S
C1069  N1110   1.359   .     A
C1069  C1137   1.415   .     S
C1070  H1107   1.082   .     S
C1070  N1109   1.360   .     A
C1071  N1109   1.380   .     A
C1072  N1110   1.379   .     A
C1072  C1136   1.415   .     S
C1073  O1118   1.300   .     A
C1073  O1116   1.292   .     A
C1073  C1075   1.457   .     S
C1074  O1117   1.298   .     A
C1074  C1077   1.460   .     S
C1074  O1119   1.297   .     A
C1075  C1082   1.383   .     A
C1075  C1080   1.395   .     A
C1076  O1113   1.281   .     A
C1076  O1115   1.282   .     A
C1077  C1083   1.385   .     A
C1077  C1081   1.390   .     A
C1078  C1080   1.394   .     A
C1078  C1086   1.429   .     A
C1079  C1088   1.431   .     A
C1079  C1081   1.395   .     A
C1080  H1103   1.084   .     S
C1081  H1102   1.084   .     S
C1082  C1084   1.398   .     A
C1082  H1101   1.083   .     S
C1083  C1085   1.398   .     A
C1083  H1099   1.076   .     S
C1084  C1086   1.422   .     A
C1084  C1089   1.409   .     A
C1085  C1088   1.432   .     A
C1085  C1090   1.426   .     A
C1086  C500    1.416   1_556 S
C1087  C1094   1.412   .     A
C1087  C1090   1.433   .     A
C1089  C1093   1.421   .     A
C1089  C496    1.404   1_556 S
C1091  O1120   1.221   .     D
C1091  C1096   1.488   .     S
C1091  H1108   1.083   .     S
C1092  O1112   1.221   .     D
C1092  C1097   1.487   .     S
C1092  H1100   1.082   .     S
C1093  C1095   1.407   .     A
C1095  C494    1.415   1_556 S
C1096  C702    1.382   1_565 S
C1098  H1104   1.086   .     S
N1109  Zn1121  2.019   .     S
N1110  Zn1122  2.019   .     S
O1111  Zn1121  1.971   .     S
O1113  Zn1122  1.971   .     S
O1114  Zn1122  1.985   .     S
O1115  Zn1121  1.985   .     S
O1116  Zn1121  1.940   .     S
O1117  Zn1122  1.940   .     S
O1118  Zn1122  1.898   .     S
O1119  Zn1121  1.898   .     S
Br1123 C1160   1.939   .     S
Br1124 C1161   1.936   .     S
Br1125 C1012   1.926   1_655 S
Br1126 C1145   1.925   .     S
Br1127 C1153   1.933   .     S
Br1128 C1159   1.944   .     S
Br1129 C1137   1.914   .     S
Br1130 C1138   1.911   .     S
C1131  O1177   1.280   .     A
C1131  C1134   1.402   .     S
C1131  O1180   1.282   .     A
C1132  H1171   1.086   .     S
C1132  C1134   1.392   .     A
C1132  C767    1.381   1_565 S
C1133  C1163   1.404   .     A
C1133  C1142   1.403   .     S
C1133  C1164   1.393   .     A
C1134  C1162   1.404   .     A
C1135  H1172   1.082   .     S
C1135  N1176   1.359   .     A
C1135  C1005   1.415   1_655 S
C1136  H1173   1.082   .     S
C1136  N1175   1.360   .     A
C1137  N1175   1.380   .     A
C1138  N1176   1.379   .     A
C1138  C1004   1.415   1_655 S
C1139  O1184   1.300   .     A
C1139  O1182   1.292   .     A
C1139  C1141   1.457   .     S
C1140  O1183   1.298   .     A
C1140  C1143   1.460   .     S
C1140  O1185   1.297   .     A
C1141  C1148   1.383   .     A
C1141  C1146   1.395   .     A
C1142  O1179   1.281   .     A
C1142  O1181   1.282   .     A
C1143  C1149   1.385   .     A
C1143  C1147   1.390   .     A
C1144  C1146   1.394   .     A
C1144  C1152   1.429   .     A
C1145  C1154   1.431   .     A
C1145  C1147   1.395   .     A
C1146  H1169   1.084   .     S
C1147  H1168   1.084   .     S
C1148  C1150   1.398   .     A
C1148  H1167   1.083   .     S
C1149  C1151   1.398   .     A
C1149  H1165   1.076   .     S
C1150  C1152   1.422   .     A
C1150  C1155   1.409   .     A
C1151  C1154   1.432   .     A
C1151  C1156   1.426   .     A
C1152  C566    1.416   1_556 S
C1153  C1160   1.412   .     A
C1153  C1156   1.433   .     A
C1155  C1159   1.421   .     A
C1155  C562    1.404   1_556 S
C1157  O1186   1.221   .     D
C1157  C1162   1.488   .     S
C1157  H1174   1.083   .     S
C1158  O1178   1.221   .     D
C1158  C1163   1.487   .     S
C1158  H1166   1.082   .     S
C1159  C1161   1.407   .     A
C1161  C560    1.415   1_556 S
C1162  C768    1.382   1_565 S
C1164  H1170   1.086   .     S
N1175  Zn1187  2.019   .     S
N1176  Zn1188  2.019   .     S
O1177  Zn1187  1.971   .     S
O1179  Zn1188  1.971   .     S
O1180  Zn1188  1.985   .     S
O1181  Zn1187  1.985   .     S
O1182  Zn1187  1.940   .     S
O1183  Zn1188  1.940   .     S
O1184  Zn1188  1.898   .     S
O1185  Zn1187  1.898   .     S
