data_str_m3_o10_o16_pcu_sym.28
_audit_creation_date              2020-01-03
_audit_creation_method            'Materials Studio'
_symmetry_space_group_name_H-M    'P1'
_symmetry_Int_Tables_number       1
_symmetry_cell_setting            triclinic
loop_
_symmetry_equiv_pos_as_xyz
  x,y,z
_cell_length_a                    23.7632
_cell_length_b                    25.6880
_cell_length_c                    25.0303
_cell_angle_alpha                 93.6102
_cell_angle_beta                  103.0864
_cell_angle_gamma                 93.1061
loop_
_atom_site_label
_atom_site_type_symbol
_atom_site_fract_x
_atom_site_fract_y
_atom_site_fract_z
_atom_site_U_iso_or_equiv
_atom_site_adp_type
_atom_site_occupancy
O1     O     0.29769   0.24629   0.25358   0.00000  Uiso   1.00
O2     O     0.05742   0.23704   0.24423   0.00000  Uiso   1.00
C3     C     0.01353   0.26441   0.24642   0.00000  Uiso   1.00
O4     O     0.31490   0.17358   0.33380   0.00000  Uiso   1.00
O5     O     0.07463   0.16433   0.32446   0.00000  Uiso   1.00
C6     C     0.03690   0.16973   0.35425   0.00000  Uiso   1.00
Zn7    Zn    0.27119   0.17284   0.25624   0.00000  Uiso   1.00
Zn8    Zn    0.06214   0.16049   0.24377   0.00000  Uiso   1.00
O9     O     0.27592   0.09629   0.25577   0.00000  Uiso   1.00
O10    O     0.03565   0.08704   0.24643   0.00000  Uiso   1.00
O11    O     0.25870   0.16901   0.17554   0.00000  Uiso   1.00
O12    O     0.01843   0.15976   0.16620   0.00000  Uiso   1.00
C13    C     0.31787   0.06853   0.24817   0.00000  Uiso   1.00
C14    C     0.29777   0.16689   0.14592   0.00000  Uiso   1.00
C15    C     0.29255   0.14103   0.49719   0.00000  Uiso   1.00
H16    H     0.31965   0.12660   0.47099   0.00000  Uiso   1.00
C17    C     0.28067   0.17100   0.08690   0.00000  Uiso   1.00
C18    C     0.04310   0.22947   0.43447   0.00000  Uiso   1.00
C19    C     0.07987   0.25980   0.47736   0.00000  Uiso   1.00
C20    C     0.13283   0.24204   0.00254   0.00000  Uiso   1.00
C21    C     0.15023   0.19411   0.48361   0.00000  Uiso   1.00
C22    C     0.11667   0.16627   0.43621   0.00000  Uiso   1.00
C23    C     0.20326   0.17583   0.00816   0.00000  Uiso   1.00
C24    C     0.23243   0.14353   0.47712   0.00000  Uiso   1.00
C25    C     0.20000   0.11584   0.42844   0.00000  Uiso   1.00
C26    C     0.14066   0.12377   0.41219   0.00000  Uiso   1.00
C27    C     0.22570   0.18524   0.06423   0.00000  Uiso   1.00
C28    C     0.31786   0.15943   0.05185   0.00000  Uiso   1.00
C29    C     0.06207   0.18415   0.41185   0.00000  Uiso   1.00
H30    H     0.19893   0.19992   0.09046   0.00000  Uiso   1.00
H31    H     0.00277   0.24492   0.41506   0.00000  Uiso   1.00
H32    H     0.16073   0.26658   0.03591   0.00000  Uiso   1.00
H33    H     0.06710   0.29711   0.49145   0.00000  Uiso   1.00
H34    H     0.11419   0.09810   0.37894   0.00000  Uiso   1.00
C35    C     0.02014   0.31898   0.24557   0.00000  Uiso   1.00
H36    H     0.06395   0.00305   0.26194   0.00000  Uiso   1.00
C37    C     0.30684   0.01396   0.23527   0.00000  Uiso   1.00
N38    N     0.14493   0.15223   0.23543   0.00000  Uiso   1.00
H39    H     0.15530   0.12800   0.20527   0.00000  Uiso   1.00
N40    N     0.18840   0.18110   0.26458   0.00000  Uiso   1.00
N41    N     0.04583   0.16821   0.07062   0.00000  Uiso   1.00
H42    H     0.06902   0.15389   0.04342   0.00000  Uiso   1.00
C43    C     0.06557   0.22144   0.09337   0.00000  Uiso   1.00
H44    H     0.11334   0.22606   0.10335   0.00000  Uiso   1.00
H45    H     0.05232   0.23223   0.13183   0.00000  Uiso   1.00
H46    H     0.04660   0.25011   0.06462   0.00000  Uiso   1.00
C47    C     0.24795   0.32719   0.20302   0.00000  Uiso   1.00
O48    O     0.20471   0.01290   0.21231   0.00000  Uiso   1.00
O49    O     0.24228   0.28831   0.16021   0.00000  Uiso   1.00
H50    H     0.20038   0.27977   0.14043   0.00000  Uiso   1.00
N51    N     0.17834   0.21156   0.30857   0.00000  Uiso   1.00
H52    H     0.13734   0.22221   0.30426   0.00000  Uiso   1.00
C53    C     0.21736   0.25743   0.32648   0.00000  Uiso   1.00
H54    H     0.20598   0.27818   0.36247   0.00000  Uiso   1.00
H55    H     0.21322   0.28436   0.29317   0.00000  Uiso   1.00
H56    H     0.26231   0.24723   0.33969   0.00000  Uiso   1.00
C57    C     0.22453   0.07589   0.39627   0.00000  Uiso   1.00
O58    O     0.20418   0.06741   0.34682   0.00000  Uiso   1.00
O59    O     0.26949   0.04681   0.42226   0.00000  Uiso   1.00
H60    H     0.28272   0.02156   0.39560   0.00000  Uiso   1.00
O61    O     0.63102   0.24629   0.25358   0.00000  Uiso   1.00
O62    O     0.39075   0.23704   0.24423   0.00000  Uiso   1.00
C63    C     0.34686   0.26441   0.24642   0.00000  Uiso   1.00
O64    O     0.64823   0.17358   0.33380   0.00000  Uiso   1.00
O65    O     0.40796   0.16433   0.32446   0.00000  Uiso   1.00
C66    C     0.37024   0.16973   0.35425   0.00000  Uiso   1.00
Zn67   Zn    0.60453   0.17284   0.25624   0.00000  Uiso   1.00
Zn68   Zn    0.39547   0.16049   0.24377   0.00000  Uiso   1.00
O69    O     0.60925   0.09629   0.25577   0.00000  Uiso   1.00
O70    O     0.36898   0.08704   0.24643   0.00000  Uiso   1.00
O71    O     0.59204   0.16901   0.17554   0.00000  Uiso   1.00
O72    O     0.35177   0.15976   0.16620   0.00000  Uiso   1.00
C73    C     0.65120   0.06853   0.24817   0.00000  Uiso   1.00
C74    C     0.63110   0.16689   0.14592   0.00000  Uiso   1.00
C75    C     0.62589   0.14103   0.49719   0.00000  Uiso   1.00
H76    H     0.65298   0.12660   0.47099   0.00000  Uiso   1.00
C77    C     0.61400   0.17100   0.08690   0.00000  Uiso   1.00
C78    C     0.37643   0.22947   0.43447   0.00000  Uiso   1.00
C79    C     0.41320   0.25980   0.47736   0.00000  Uiso   1.00
C80    C     0.46616   0.24204   0.00254   0.00000  Uiso   1.00
C81    C     0.48357   0.19411   0.48361   0.00000  Uiso   1.00
C82    C     0.45001   0.16627   0.43621   0.00000  Uiso   1.00
C83    C     0.53659   0.17583   0.00816   0.00000  Uiso   1.00
C84    C     0.56576   0.14353   0.47712   0.00000  Uiso   1.00
C85    C     0.53333   0.11584   0.42844   0.00000  Uiso   1.00
C86    C     0.47400   0.12377   0.41219   0.00000  Uiso   1.00
C87    C     0.55904   0.18524   0.06423   0.00000  Uiso   1.00
C88    C     0.65119   0.15943   0.05185   0.00000  Uiso   1.00
C89    C     0.39540   0.18415   0.41185   0.00000  Uiso   1.00
H90    H     0.53227   0.19992   0.09046   0.00000  Uiso   1.00
H91    H     0.33611   0.24492   0.41506   0.00000  Uiso   1.00
H92    H     0.49407   0.26658   0.03591   0.00000  Uiso   1.00
H93    H     0.40044   0.29711   0.49145   0.00000  Uiso   1.00
H94    H     0.44752   0.09810   0.37894   0.00000  Uiso   1.00
C95    C     0.35347   0.31898   0.24557   0.00000  Uiso   1.00
H96    H     0.39728   0.00305   0.26194   0.00000  Uiso   1.00
C97    C     0.64017   0.01396   0.23527   0.00000  Uiso   1.00
N98    N     0.47827   0.15223   0.23543   0.00000  Uiso   1.00
H99    H     0.48863   0.12800   0.20527   0.00000  Uiso   1.00
N100   N     0.52173   0.18110   0.26458   0.00000  Uiso   1.00
N101   N     0.37916   0.16821   0.07062   0.00000  Uiso   1.00
H102   H     0.40235   0.15389   0.04342   0.00000  Uiso   1.00
C103   C     0.39890   0.22144   0.09337   0.00000  Uiso   1.00
H104   H     0.44667   0.22606   0.10335   0.00000  Uiso   1.00
H105   H     0.38566   0.23223   0.13183   0.00000  Uiso   1.00
H106   H     0.37993   0.25011   0.06462   0.00000  Uiso   1.00
C107   C     0.58128   0.32719   0.20302   0.00000  Uiso   1.00
O108   O     0.53805   0.01290   0.21231   0.00000  Uiso   1.00
O109   O     0.57562   0.28831   0.16021   0.00000  Uiso   1.00
H110   H     0.53371   0.27977   0.14043   0.00000  Uiso   1.00
N111   N     0.51168   0.21156   0.30857   0.00000  Uiso   1.00
H112   H     0.47067   0.22221   0.30426   0.00000  Uiso   1.00
C113   C     0.55069   0.25743   0.32648   0.00000  Uiso   1.00
H114   H     0.53932   0.27818   0.36247   0.00000  Uiso   1.00
H115   H     0.54655   0.28436   0.29317   0.00000  Uiso   1.00
H116   H     0.59565   0.24723   0.33969   0.00000  Uiso   1.00
C117   C     0.55787   0.07589   0.39627   0.00000  Uiso   1.00
O118   O     0.53751   0.06741   0.34682   0.00000  Uiso   1.00
O119   O     0.60283   0.04681   0.42226   0.00000  Uiso   1.00
H120   H     0.61606   0.02156   0.39560   0.00000  Uiso   1.00
O121   O     0.96435   0.24629   0.25358   0.00000  Uiso   1.00
O122   O     0.72408   0.23704   0.24423   0.00000  Uiso   1.00
C123   C     0.68019   0.26441   0.24642   0.00000  Uiso   1.00
O124   O     0.98157   0.17358   0.33380   0.00000  Uiso   1.00
O125   O     0.74130   0.16433   0.32446   0.00000  Uiso   1.00
C126   C     0.70357   0.16973   0.35425   0.00000  Uiso   1.00
Zn127  Zn    0.93786   0.17284   0.25624   0.00000  Uiso   1.00
Zn128  Zn    0.72881   0.16049   0.24377   0.00000  Uiso   1.00
O129   O     0.94258   0.09629   0.25577   0.00000  Uiso   1.00
O130   O     0.70231   0.08704   0.24643   0.00000  Uiso   1.00
O131   O     0.92537   0.16901   0.17554   0.00000  Uiso   1.00
O132   O     0.68510   0.15976   0.16620   0.00000  Uiso   1.00
C133   C     0.98454   0.06853   0.24817   0.00000  Uiso   1.00
C134   C     0.96443   0.16689   0.14592   0.00000  Uiso   1.00
C135   C     0.95922   0.14103   0.49719   0.00000  Uiso   1.00
H136   H     0.98631   0.12660   0.47099   0.00000  Uiso   1.00
C137   C     0.94733   0.17100   0.08690   0.00000  Uiso   1.00
C138   C     0.70977   0.22947   0.43447   0.00000  Uiso   1.00
C139   C     0.74654   0.25980   0.47736   0.00000  Uiso   1.00
C140   C     0.79949   0.24204   0.00254   0.00000  Uiso   1.00
C141   C     0.81690   0.19411   0.48361   0.00000  Uiso   1.00
C142   C     0.78334   0.16627   0.43621   0.00000  Uiso   1.00
C143   C     0.86993   0.17583   0.00816   0.00000  Uiso   1.00
C144   C     0.89910   0.14353   0.47712   0.00000  Uiso   1.00
C145   C     0.86667   0.11584   0.42844   0.00000  Uiso   1.00
C146   C     0.80733   0.12377   0.41219   0.00000  Uiso   1.00
C147   C     0.89237   0.18524   0.06423   0.00000  Uiso   1.00
C148   C     0.98453   0.15943   0.05185   0.00000  Uiso   1.00
C149   C     0.72874   0.18415   0.41185   0.00000  Uiso   1.00
H150   H     0.86560   0.19992   0.09046   0.00000  Uiso   1.00
H151   H     0.66944   0.24492   0.41506   0.00000  Uiso   1.00
H152   H     0.82740   0.26658   0.03591   0.00000  Uiso   1.00
H153   H     0.73377   0.29711   0.49145   0.00000  Uiso   1.00
H154   H     0.78086   0.09810   0.37894   0.00000  Uiso   1.00
C155   C     0.68680   0.31898   0.24557   0.00000  Uiso   1.00
H156   H     0.73062   0.00305   0.26194   0.00000  Uiso   1.00
C157   C     0.97350   0.01396   0.23527   0.00000  Uiso   1.00
N158   N     0.81160   0.15223   0.23543   0.00000  Uiso   1.00
H159   H     0.82196   0.12800   0.20527   0.00000  Uiso   1.00
N160   N     0.85507   0.18110   0.26458   0.00000  Uiso   1.00
N161   N     0.71249   0.16821   0.07062   0.00000  Uiso   1.00
H162   H     0.73568   0.15389   0.04342   0.00000  Uiso   1.00
C163   C     0.73224   0.22144   0.09337   0.00000  Uiso   1.00
H164   H     0.78001   0.22606   0.10335   0.00000  Uiso   1.00
H165   H     0.71899   0.23223   0.13183   0.00000  Uiso   1.00
H166   H     0.71327   0.25011   0.06462   0.00000  Uiso   1.00
C167   C     0.91461   0.32719   0.20302   0.00000  Uiso   1.00
O168   O     0.87138   0.01290   0.21231   0.00000  Uiso   1.00
O169   O     0.90895   0.28831   0.16021   0.00000  Uiso   1.00
H170   H     0.86704   0.27977   0.14043   0.00000  Uiso   1.00
N171   N     0.84501   0.21156   0.30857   0.00000  Uiso   1.00
H172   H     0.80401   0.22221   0.30426   0.00000  Uiso   1.00
C173   C     0.88403   0.25743   0.32648   0.00000  Uiso   1.00
H174   H     0.87265   0.27818   0.36247   0.00000  Uiso   1.00
H175   H     0.87988   0.28436   0.29317   0.00000  Uiso   1.00
H176   H     0.92898   0.24723   0.33969   0.00000  Uiso   1.00
C177   C     0.89120   0.07589   0.39627   0.00000  Uiso   1.00
O178   O     0.87085   0.06741   0.34682   0.00000  Uiso   1.00
O179   O     0.93616   0.04681   0.42226   0.00000  Uiso   1.00
H180   H     0.94939   0.02156   0.39560   0.00000  Uiso   1.00
O181   O     0.29769   0.57963   0.25358   0.00000  Uiso   1.00
O182   O     0.05742   0.57038   0.24423   0.00000  Uiso   1.00
C183   C     0.01353   0.59774   0.24642   0.00000  Uiso   1.00
O184   O     0.31490   0.50691   0.33380   0.00000  Uiso   1.00
O185   O     0.07463   0.49766   0.32446   0.00000  Uiso   1.00
C186   C     0.03690   0.50306   0.35425   0.00000  Uiso   1.00
Zn187  Zn    0.27119   0.50618   0.25624   0.00000  Uiso   1.00
Zn188  Zn    0.06214   0.49382   0.24377   0.00000  Uiso   1.00
O189   O     0.27592   0.42962   0.25577   0.00000  Uiso   1.00
O190   O     0.03565   0.42037   0.24643   0.00000  Uiso   1.00
O191   O     0.25870   0.50234   0.17554   0.00000  Uiso   1.00
O192   O     0.01843   0.49309   0.16620   0.00000  Uiso   1.00
C193   C     0.31787   0.40187   0.24817   0.00000  Uiso   1.00
C194   C     0.29777   0.50022   0.14592   0.00000  Uiso   1.00
C195   C     0.29255   0.47436   0.49719   0.00000  Uiso   1.00
H196   H     0.31965   0.45994   0.47099   0.00000  Uiso   1.00
C197   C     0.28067   0.50434   0.08690   0.00000  Uiso   1.00
C198   C     0.04310   0.56281   0.43447   0.00000  Uiso   1.00
C199   C     0.07987   0.59313   0.47736   0.00000  Uiso   1.00
C200   C     0.13283   0.57537   0.00254   0.00000  Uiso   1.00
C201   C     0.15023   0.52745   0.48361   0.00000  Uiso   1.00
C202   C     0.11667   0.49960   0.43621   0.00000  Uiso   1.00
C203   C     0.20326   0.50917   0.00816   0.00000  Uiso   1.00
C204   C     0.23243   0.47687   0.47712   0.00000  Uiso   1.00
C205   C     0.20000   0.44918   0.42844   0.00000  Uiso   1.00
C206   C     0.14066   0.45711   0.41219   0.00000  Uiso   1.00
C207   C     0.22570   0.51857   0.06423   0.00000  Uiso   1.00
C208   C     0.31786   0.49277   0.05185   0.00000  Uiso   1.00
C209   C     0.06207   0.51748   0.41185   0.00000  Uiso   1.00
H210   H     0.19893   0.53325   0.09046   0.00000  Uiso   1.00
H211   H     0.00277   0.57825   0.41506   0.00000  Uiso   1.00
H212   H     0.16073   0.59991   0.03591   0.00000  Uiso   1.00
H213   H     0.06710   0.63044   0.49145   0.00000  Uiso   1.00
H214   H     0.11419   0.43143   0.37894   0.00000  Uiso   1.00
C215   C     0.02014   0.65231   0.24557   0.00000  Uiso   1.00
H216   H     0.06395   0.33638   0.26194   0.00000  Uiso   1.00
C217   C     0.30684   0.34730   0.23527   0.00000  Uiso   1.00
N218   N     0.14493   0.48556   0.23543   0.00000  Uiso   1.00
H219   H     0.15530   0.46133   0.20527   0.00000  Uiso   1.00
N220   N     0.18840   0.51444   0.26458   0.00000  Uiso   1.00
N221   N     0.04583   0.50154   0.07062   0.00000  Uiso   1.00
H222   H     0.06902   0.48723   0.04342   0.00000  Uiso   1.00
C223   C     0.06557   0.55477   0.09337   0.00000  Uiso   1.00
H224   H     0.11334   0.55940   0.10335   0.00000  Uiso   1.00
H225   H     0.05232   0.56556   0.13183   0.00000  Uiso   1.00
H226   H     0.04660   0.58344   0.06462   0.00000  Uiso   1.00
C227   C     0.24795   0.66052   0.20302   0.00000  Uiso   1.00
O228   O     0.20471   0.34623   0.21231   0.00000  Uiso   1.00
O229   O     0.24228   0.62164   0.16021   0.00000  Uiso   1.00
H230   H     0.20038   0.61311   0.14043   0.00000  Uiso   1.00
N231   N     0.17834   0.54489   0.30857   0.00000  Uiso   1.00
H232   H     0.13734   0.55555   0.30426   0.00000  Uiso   1.00
C233   C     0.21736   0.59076   0.32648   0.00000  Uiso   1.00
H234   H     0.20598   0.61151   0.36247   0.00000  Uiso   1.00
H235   H     0.21322   0.61770   0.29317   0.00000  Uiso   1.00
H236   H     0.26231   0.58057   0.33969   0.00000  Uiso   1.00
C237   C     0.22453   0.40922   0.39627   0.00000  Uiso   1.00
O238   O     0.20418   0.40074   0.34682   0.00000  Uiso   1.00
O239   O     0.26949   0.38015   0.42226   0.00000  Uiso   1.00
H240   H     0.28272   0.35489   0.39560   0.00000  Uiso   1.00
O241   O     0.63102   0.57963   0.25358   0.00000  Uiso   1.00
O242   O     0.39075   0.57038   0.24423   0.00000  Uiso   1.00
C243   C     0.34686   0.59774   0.24642   0.00000  Uiso   1.00
O244   O     0.64823   0.50691   0.33380   0.00000  Uiso   1.00
O245   O     0.40796   0.49766   0.32446   0.00000  Uiso   1.00
C246   C     0.37024   0.50306   0.35425   0.00000  Uiso   1.00
Zn247  Zn    0.60453   0.50618   0.25624   0.00000  Uiso   1.00
Zn248  Zn    0.39547   0.49382   0.24377   0.00000  Uiso   1.00
O249   O     0.60925   0.42962   0.25577   0.00000  Uiso   1.00
O250   O     0.36898   0.42037   0.24643   0.00000  Uiso   1.00
O251   O     0.59204   0.50234   0.17554   0.00000  Uiso   1.00
O252   O     0.35177   0.49309   0.16620   0.00000  Uiso   1.00
C253   C     0.65120   0.40187   0.24817   0.00000  Uiso   1.00
C254   C     0.63110   0.50022   0.14592   0.00000  Uiso   1.00
C255   C     0.62589   0.47436   0.49719   0.00000  Uiso   1.00
H256   H     0.65298   0.45994   0.47099   0.00000  Uiso   1.00
C257   C     0.61400   0.50434   0.08690   0.00000  Uiso   1.00
C258   C     0.37643   0.56281   0.43447   0.00000  Uiso   1.00
C259   C     0.41320   0.59313   0.47736   0.00000  Uiso   1.00
C260   C     0.46616   0.57537   0.00254   0.00000  Uiso   1.00
C261   C     0.48357   0.52745   0.48361   0.00000  Uiso   1.00
C262   C     0.45001   0.49960   0.43621   0.00000  Uiso   1.00
C263   C     0.53659   0.50917   0.00816   0.00000  Uiso   1.00
C264   C     0.56576   0.47687   0.47712   0.00000  Uiso   1.00
C265   C     0.53333   0.44918   0.42844   0.00000  Uiso   1.00
C266   C     0.47400   0.45711   0.41219   0.00000  Uiso   1.00
C267   C     0.55904   0.51857   0.06423   0.00000  Uiso   1.00
C268   C     0.65119   0.49277   0.05185   0.00000  Uiso   1.00
C269   C     0.39540   0.51748   0.41185   0.00000  Uiso   1.00
H270   H     0.53227   0.53325   0.09046   0.00000  Uiso   1.00
H271   H     0.33611   0.57825   0.41506   0.00000  Uiso   1.00
H272   H     0.49407   0.59991   0.03591   0.00000  Uiso   1.00
H273   H     0.40044   0.63044   0.49145   0.00000  Uiso   1.00
H274   H     0.44752   0.43143   0.37894   0.00000  Uiso   1.00
C275   C     0.35347   0.65231   0.24557   0.00000  Uiso   1.00
H276   H     0.39728   0.33638   0.26194   0.00000  Uiso   1.00
C277   C     0.64017   0.34730   0.23527   0.00000  Uiso   1.00
N278   N     0.47827   0.48556   0.23543   0.00000  Uiso   1.00
H279   H     0.48863   0.46133   0.20527   0.00000  Uiso   1.00
N280   N     0.52173   0.51444   0.26458   0.00000  Uiso   1.00
N281   N     0.37916   0.50154   0.07062   0.00000  Uiso   1.00
H282   H     0.40235   0.48723   0.04342   0.00000  Uiso   1.00
C283   C     0.39890   0.55477   0.09337   0.00000  Uiso   1.00
H284   H     0.44667   0.55940   0.10335   0.00000  Uiso   1.00
H285   H     0.38566   0.56556   0.13183   0.00000  Uiso   1.00
H286   H     0.37993   0.58344   0.06462   0.00000  Uiso   1.00
C287   C     0.58128   0.66052   0.20302   0.00000  Uiso   1.00
O288   O     0.53805   0.34623   0.21231   0.00000  Uiso   1.00
O289   O     0.57562   0.62164   0.16021   0.00000  Uiso   1.00
H290   H     0.53371   0.61311   0.14043   0.00000  Uiso   1.00
N291   N     0.51168   0.54489   0.30857   0.00000  Uiso   1.00
H292   H     0.47067   0.55555   0.30426   0.00000  Uiso   1.00
C293   C     0.55069   0.59076   0.32648   0.00000  Uiso   1.00
H294   H     0.53932   0.61151   0.36247   0.00000  Uiso   1.00
H295   H     0.54655   0.61770   0.29317   0.00000  Uiso   1.00
H296   H     0.59565   0.58057   0.33969   0.00000  Uiso   1.00
C297   C     0.55787   0.40922   0.39627   0.00000  Uiso   1.00
O298   O     0.53751   0.40074   0.34682   0.00000  Uiso   1.00
O299   O     0.60283   0.38015   0.42226   0.00000  Uiso   1.00
H300   H     0.61606   0.35489   0.39560   0.00000  Uiso   1.00
O301   O     0.96435   0.57963   0.25358   0.00000  Uiso   1.00
O302   O     0.72408   0.57038   0.24423   0.00000  Uiso   1.00
C303   C     0.68019   0.59774   0.24642   0.00000  Uiso   1.00
O304   O     0.98157   0.50691   0.33380   0.00000  Uiso   1.00
O305   O     0.74130   0.49766   0.32446   0.00000  Uiso   1.00
C306   C     0.70357   0.50306   0.35425   0.00000  Uiso   1.00
Zn307  Zn    0.93786   0.50618   0.25624   0.00000  Uiso   1.00
Zn308  Zn    0.72881   0.49382   0.24377   0.00000  Uiso   1.00
O309   O     0.94258   0.42962   0.25577   0.00000  Uiso   1.00
O310   O     0.70231   0.42037   0.24643   0.00000  Uiso   1.00
O311   O     0.92537   0.50234   0.17554   0.00000  Uiso   1.00
O312   O     0.68510   0.49309   0.16620   0.00000  Uiso   1.00
C313   C     0.98454   0.40187   0.24817   0.00000  Uiso   1.00
C314   C     0.96443   0.50022   0.14592   0.00000  Uiso   1.00
C315   C     0.95922   0.47436   0.49719   0.00000  Uiso   1.00
H316   H     0.98631   0.45994   0.47099   0.00000  Uiso   1.00
C317   C     0.94733   0.50434   0.08690   0.00000  Uiso   1.00
C318   C     0.70977   0.56281   0.43447   0.00000  Uiso   1.00
C319   C     0.74654   0.59313   0.47736   0.00000  Uiso   1.00
C320   C     0.79949   0.57537   0.00254   0.00000  Uiso   1.00
C321   C     0.81690   0.52745   0.48361   0.00000  Uiso   1.00
C322   C     0.78334   0.49960   0.43621   0.00000  Uiso   1.00
C323   C     0.86993   0.50917   0.00816   0.00000  Uiso   1.00
C324   C     0.89910   0.47687   0.47712   0.00000  Uiso   1.00
C325   C     0.86667   0.44918   0.42844   0.00000  Uiso   1.00
C326   C     0.80733   0.45711   0.41219   0.00000  Uiso   1.00
C327   C     0.89237   0.51857   0.06423   0.00000  Uiso   1.00
C328   C     0.98453   0.49277   0.05185   0.00000  Uiso   1.00
C329   C     0.72874   0.51748   0.41185   0.00000  Uiso   1.00
H330   H     0.86560   0.53325   0.09046   0.00000  Uiso   1.00
H331   H     0.66944   0.57825   0.41506   0.00000  Uiso   1.00
H332   H     0.82740   0.59991   0.03591   0.00000  Uiso   1.00
H333   H     0.73377   0.63044   0.49145   0.00000  Uiso   1.00
H334   H     0.78086   0.43143   0.37894   0.00000  Uiso   1.00
C335   C     0.68680   0.65231   0.24557   0.00000  Uiso   1.00
H336   H     0.73062   0.33638   0.26194   0.00000  Uiso   1.00
C337   C     0.97350   0.34730   0.23527   0.00000  Uiso   1.00
N338   N     0.81160   0.48556   0.23543   0.00000  Uiso   1.00
H339   H     0.82196   0.46133   0.20527   0.00000  Uiso   1.00
N340   N     0.85507   0.51444   0.26458   0.00000  Uiso   1.00
N341   N     0.71249   0.50154   0.07062   0.00000  Uiso   1.00
H342   H     0.73568   0.48723   0.04342   0.00000  Uiso   1.00
C343   C     0.73224   0.55477   0.09337   0.00000  Uiso   1.00
H344   H     0.78001   0.55940   0.10335   0.00000  Uiso   1.00
H345   H     0.71899   0.56556   0.13183   0.00000  Uiso   1.00
H346   H     0.71327   0.58344   0.06462   0.00000  Uiso   1.00
C347   C     0.91461   0.66052   0.20302   0.00000  Uiso   1.00
O348   O     0.87138   0.34623   0.21231   0.00000  Uiso   1.00
O349   O     0.90895   0.62164   0.16021   0.00000  Uiso   1.00
H350   H     0.86704   0.61311   0.14043   0.00000  Uiso   1.00
N351   N     0.84501   0.54489   0.30857   0.00000  Uiso   1.00
H352   H     0.80401   0.55555   0.30426   0.00000  Uiso   1.00
C353   C     0.88403   0.59076   0.32648   0.00000  Uiso   1.00
H354   H     0.87265   0.61151   0.36247   0.00000  Uiso   1.00
H355   H     0.87988   0.61770   0.29317   0.00000  Uiso   1.00
H356   H     0.92898   0.58057   0.33969   0.00000  Uiso   1.00
C357   C     0.89120   0.40922   0.39627   0.00000  Uiso   1.00
O358   O     0.87085   0.40074   0.34682   0.00000  Uiso   1.00
O359   O     0.93616   0.38015   0.42226   0.00000  Uiso   1.00
H360   H     0.94939   0.35489   0.39560   0.00000  Uiso   1.00
O361   O     0.29769   0.91296   0.25358   0.00000  Uiso   1.00
O362   O     0.05742   0.90371   0.24423   0.00000  Uiso   1.00
C363   C     0.01353   0.93107   0.24642   0.00000  Uiso   1.00
O364   O     0.31490   0.84024   0.33380   0.00000  Uiso   1.00
O365   O     0.07463   0.83099   0.32446   0.00000  Uiso   1.00
C366   C     0.03690   0.83640   0.35425   0.00000  Uiso   1.00
Zn367  Zn    0.27119   0.83951   0.25624   0.00000  Uiso   1.00
Zn368  Zn    0.06214   0.82716   0.24377   0.00000  Uiso   1.00
O369   O     0.27592   0.76296   0.25577   0.00000  Uiso   1.00
O370   O     0.03565   0.75371   0.24643   0.00000  Uiso   1.00
O371   O     0.25870   0.83567   0.17554   0.00000  Uiso   1.00
O372   O     0.01843   0.82642   0.16620   0.00000  Uiso   1.00
C373   C     0.31787   0.73520   0.24817   0.00000  Uiso   1.00
C374   C     0.29777   0.83355   0.14592   0.00000  Uiso   1.00
C375   C     0.29255   0.80769   0.49719   0.00000  Uiso   1.00
H376   H     0.31965   0.79327   0.47099   0.00000  Uiso   1.00
C377   C     0.28067   0.83767   0.08690   0.00000  Uiso   1.00
C378   C     0.04310   0.89614   0.43447   0.00000  Uiso   1.00
C379   C     0.07987   0.92646   0.47736   0.00000  Uiso   1.00
C380   C     0.13283   0.90871   0.00254   0.00000  Uiso   1.00
C381   C     0.15023   0.86078   0.48361   0.00000  Uiso   1.00
C382   C     0.11667   0.83293   0.43621   0.00000  Uiso   1.00
C383   C     0.20326   0.84250   0.00816   0.00000  Uiso   1.00
C384   C     0.23243   0.81020   0.47712   0.00000  Uiso   1.00
C385   C     0.20000   0.78251   0.42844   0.00000  Uiso   1.00
C386   C     0.14066   0.79044   0.41219   0.00000  Uiso   1.00
C387   C     0.22570   0.85190   0.06423   0.00000  Uiso   1.00
C388   C     0.31786   0.82610   0.05185   0.00000  Uiso   1.00
C389   C     0.06207   0.85082   0.41185   0.00000  Uiso   1.00
H390   H     0.19893   0.86659   0.09046   0.00000  Uiso   1.00
H391   H     0.00277   0.91159   0.41506   0.00000  Uiso   1.00
H392   H     0.16073   0.93325   0.03591   0.00000  Uiso   1.00
H393   H     0.06710   0.96378   0.49145   0.00000  Uiso   1.00
H394   H     0.11419   0.76476   0.37894   0.00000  Uiso   1.00
C395   C     0.02014   0.98564   0.24557   0.00000  Uiso   1.00
H396   H     0.06395   0.66972   0.26194   0.00000  Uiso   1.00
C397   C     0.30684   0.68063   0.23527   0.00000  Uiso   1.00
N398   N     0.14493   0.81890   0.23543   0.00000  Uiso   1.00
H399   H     0.15530   0.79467   0.20527   0.00000  Uiso   1.00
N400   N     0.18840   0.84777   0.26458   0.00000  Uiso   1.00
N401   N     0.04583   0.83487   0.07062   0.00000  Uiso   1.00
H402   H     0.06902   0.82056   0.04342   0.00000  Uiso   1.00
C403   C     0.06557   0.88810   0.09337   0.00000  Uiso   1.00
H404   H     0.11334   0.89273   0.10335   0.00000  Uiso   1.00
H405   H     0.05232   0.89889   0.13183   0.00000  Uiso   1.00
H406   H     0.04660   0.91677   0.06462   0.00000  Uiso   1.00
C407   C     0.24795   0.99385   0.20302   0.00000  Uiso   1.00
O408   O     0.20471   0.67956   0.21231   0.00000  Uiso   1.00
O409   O     0.24228   0.95498   0.16021   0.00000  Uiso   1.00
H410   H     0.20038   0.94644   0.14043   0.00000  Uiso   1.00
N411   N     0.17834   0.87823   0.30857   0.00000  Uiso   1.00
H412   H     0.13734   0.88888   0.30426   0.00000  Uiso   1.00
C413   C     0.21736   0.92410   0.32648   0.00000  Uiso   1.00
H414   H     0.20598   0.94485   0.36247   0.00000  Uiso   1.00
H415   H     0.21322   0.95103   0.29317   0.00000  Uiso   1.00
H416   H     0.26231   0.91390   0.33969   0.00000  Uiso   1.00
C417   C     0.22453   0.74256   0.39627   0.00000  Uiso   1.00
O418   O     0.20418   0.73408   0.34682   0.00000  Uiso   1.00
O419   O     0.26949   0.71348   0.42226   0.00000  Uiso   1.00
H420   H     0.28272   0.68822   0.39560   0.00000  Uiso   1.00
O421   O     0.63102   0.91296   0.25358   0.00000  Uiso   1.00
O422   O     0.39075   0.90371   0.24423   0.00000  Uiso   1.00
C423   C     0.34686   0.93107   0.24642   0.00000  Uiso   1.00
O424   O     0.64823   0.84024   0.33380   0.00000  Uiso   1.00
O425   O     0.40796   0.83099   0.32446   0.00000  Uiso   1.00
C426   C     0.37024   0.83640   0.35425   0.00000  Uiso   1.00
Zn427  Zn    0.60453   0.83951   0.25624   0.00000  Uiso   1.00
Zn428  Zn    0.39547   0.82716   0.24377   0.00000  Uiso   1.00
O429   O     0.60925   0.76296   0.25577   0.00000  Uiso   1.00
O430   O     0.36898   0.75371   0.24643   0.00000  Uiso   1.00
O431   O     0.59204   0.83567   0.17554   0.00000  Uiso   1.00
O432   O     0.35177   0.82642   0.16620   0.00000  Uiso   1.00
C433   C     0.65120   0.73520   0.24817   0.00000  Uiso   1.00
C434   C     0.63110   0.83355   0.14592   0.00000  Uiso   1.00
C435   C     0.62589   0.80769   0.49719   0.00000  Uiso   1.00
H436   H     0.65298   0.79327   0.47099   0.00000  Uiso   1.00
C437   C     0.61400   0.83767   0.08690   0.00000  Uiso   1.00
C438   C     0.37643   0.89614   0.43447   0.00000  Uiso   1.00
C439   C     0.41320   0.92646   0.47736   0.00000  Uiso   1.00
C440   C     0.46616   0.90871   0.00254   0.00000  Uiso   1.00
C441   C     0.48357   0.86078   0.48361   0.00000  Uiso   1.00
C442   C     0.45001   0.83293   0.43621   0.00000  Uiso   1.00
C443   C     0.53659   0.84250   0.00816   0.00000  Uiso   1.00
C444   C     0.56576   0.81020   0.47712   0.00000  Uiso   1.00
C445   C     0.53333   0.78251   0.42844   0.00000  Uiso   1.00
C446   C     0.47400   0.79044   0.41219   0.00000  Uiso   1.00
C447   C     0.55904   0.85190   0.06423   0.00000  Uiso   1.00
C448   C     0.65119   0.82610   0.05185   0.00000  Uiso   1.00
C449   C     0.39540   0.85082   0.41185   0.00000  Uiso   1.00
H450   H     0.53227   0.86659   0.09046   0.00000  Uiso   1.00
H451   H     0.33611   0.91159   0.41506   0.00000  Uiso   1.00
H452   H     0.49407   0.93325   0.03591   0.00000  Uiso   1.00
H453   H     0.40044   0.96378   0.49145   0.00000  Uiso   1.00
H454   H     0.44752   0.76476   0.37894   0.00000  Uiso   1.00
C455   C     0.35347   0.98564   0.24557   0.00000  Uiso   1.00
H456   H     0.39728   0.66972   0.26194   0.00000  Uiso   1.00
C457   C     0.64017   0.68063   0.23527   0.00000  Uiso   1.00
N458   N     0.47827   0.81890   0.23543   0.00000  Uiso   1.00
H459   H     0.48863   0.79467   0.20527   0.00000  Uiso   1.00
N460   N     0.52173   0.84777   0.26458   0.00000  Uiso   1.00
N461   N     0.37916   0.83487   0.07062   0.00000  Uiso   1.00
H462   H     0.40235   0.82056   0.04342   0.00000  Uiso   1.00
C463   C     0.39890   0.88810   0.09337   0.00000  Uiso   1.00
H464   H     0.44667   0.89273   0.10335   0.00000  Uiso   1.00
H465   H     0.38566   0.89889   0.13183   0.00000  Uiso   1.00
H466   H     0.37993   0.91677   0.06462   0.00000  Uiso   1.00
C467   C     0.58128   0.99385   0.20302   0.00000  Uiso   1.00
O468   O     0.53805   0.67956   0.21231   0.00000  Uiso   1.00
O469   O     0.57562   0.95498   0.16021   0.00000  Uiso   1.00
H470   H     0.53371   0.94644   0.14043   0.00000  Uiso   1.00
N471   N     0.51168   0.87823   0.30857   0.00000  Uiso   1.00
H472   H     0.47067   0.88888   0.30426   0.00000  Uiso   1.00
C473   C     0.55069   0.92410   0.32648   0.00000  Uiso   1.00
H474   H     0.53932   0.94485   0.36247   0.00000  Uiso   1.00
H475   H     0.54655   0.95103   0.29317   0.00000  Uiso   1.00
H476   H     0.59565   0.91390   0.33969   0.00000  Uiso   1.00
C477   C     0.55787   0.74256   0.39627   0.00000  Uiso   1.00
O478   O     0.53751   0.73408   0.34682   0.00000  Uiso   1.00
O479   O     0.60283   0.71348   0.42226   0.00000  Uiso   1.00
H480   H     0.61606   0.68822   0.39560   0.00000  Uiso   1.00
O481   O     0.96435   0.91296   0.25358   0.00000  Uiso   1.00
O482   O     0.72408   0.90371   0.24423   0.00000  Uiso   1.00
C483   C     0.68019   0.93107   0.24642   0.00000  Uiso   1.00
O484   O     0.98157   0.84024   0.33380   0.00000  Uiso   1.00
O485   O     0.74130   0.83099   0.32446   0.00000  Uiso   1.00
C486   C     0.70357   0.83640   0.35425   0.00000  Uiso   1.00
Zn487  Zn    0.93786   0.83951   0.25624   0.00000  Uiso   1.00
Zn488  Zn    0.72881   0.82716   0.24377   0.00000  Uiso   1.00
O489   O     0.94258   0.76296   0.25577   0.00000  Uiso   1.00
O490   O     0.70231   0.75371   0.24643   0.00000  Uiso   1.00
O491   O     0.92537   0.83567   0.17554   0.00000  Uiso   1.00
O492   O     0.68510   0.82642   0.16620   0.00000  Uiso   1.00
C493   C     0.98454   0.73520   0.24817   0.00000  Uiso   1.00
C494   C     0.96443   0.83355   0.14592   0.00000  Uiso   1.00
C495   C     0.95922   0.80769   0.49719   0.00000  Uiso   1.00
H496   H     0.98631   0.79327   0.47099   0.00000  Uiso   1.00
C497   C     0.94733   0.83767   0.08690   0.00000  Uiso   1.00
C498   C     0.70977   0.89614   0.43447   0.00000  Uiso   1.00
C499   C     0.74654   0.92646   0.47736   0.00000  Uiso   1.00
C500   C     0.79949   0.90871   0.00254   0.00000  Uiso   1.00
C501   C     0.81690   0.86078   0.48361   0.00000  Uiso   1.00
C502   C     0.78334   0.83293   0.43621   0.00000  Uiso   1.00
C503   C     0.86993   0.84250   0.00816   0.00000  Uiso   1.00
C504   C     0.89910   0.81020   0.47712   0.00000  Uiso   1.00
C505   C     0.86667   0.78251   0.42844   0.00000  Uiso   1.00
C506   C     0.80733   0.79044   0.41219   0.00000  Uiso   1.00
C507   C     0.89237   0.85190   0.06423   0.00000  Uiso   1.00
C508   C     0.98453   0.82610   0.05185   0.00000  Uiso   1.00
C509   C     0.72874   0.85082   0.41185   0.00000  Uiso   1.00
H510   H     0.86560   0.86659   0.09046   0.00000  Uiso   1.00
H511   H     0.66944   0.91159   0.41506   0.00000  Uiso   1.00
H512   H     0.82740   0.93325   0.03591   0.00000  Uiso   1.00
H513   H     0.73377   0.96378   0.49145   0.00000  Uiso   1.00
H514   H     0.78086   0.76476   0.37894   0.00000  Uiso   1.00
C515   C     0.68680   0.98564   0.24557   0.00000  Uiso   1.00
H516   H     0.73062   0.66972   0.26194   0.00000  Uiso   1.00
C517   C     0.97350   0.68063   0.23527   0.00000  Uiso   1.00
N518   N     0.81160   0.81890   0.23543   0.00000  Uiso   1.00
H519   H     0.82196   0.79467   0.20527   0.00000  Uiso   1.00
N520   N     0.85507   0.84777   0.26458   0.00000  Uiso   1.00
N521   N     0.71249   0.83487   0.07062   0.00000  Uiso   1.00
H522   H     0.73568   0.82056   0.04342   0.00000  Uiso   1.00
C523   C     0.73224   0.88810   0.09337   0.00000  Uiso   1.00
H524   H     0.78001   0.89273   0.10335   0.00000  Uiso   1.00
H525   H     0.71899   0.89889   0.13183   0.00000  Uiso   1.00
H526   H     0.71327   0.91677   0.06462   0.00000  Uiso   1.00
C527   C     0.91461   0.99385   0.20302   0.00000  Uiso   1.00
O528   O     0.87138   0.67956   0.21231   0.00000  Uiso   1.00
O529   O     0.90895   0.95498   0.16021   0.00000  Uiso   1.00
H530   H     0.86704   0.94644   0.14043   0.00000  Uiso   1.00
N531   N     0.84501   0.87823   0.30857   0.00000  Uiso   1.00
H532   H     0.80401   0.88888   0.30426   0.00000  Uiso   1.00
C533   C     0.88403   0.92410   0.32648   0.00000  Uiso   1.00
H534   H     0.87265   0.94485   0.36247   0.00000  Uiso   1.00
H535   H     0.87988   0.95103   0.29317   0.00000  Uiso   1.00
H536   H     0.92898   0.91390   0.33969   0.00000  Uiso   1.00
C537   C     0.89120   0.74256   0.39627   0.00000  Uiso   1.00
O538   O     0.87085   0.73408   0.34682   0.00000  Uiso   1.00
O539   O     0.93616   0.71348   0.42226   0.00000  Uiso   1.00
H540   H     0.94939   0.68822   0.39560   0.00000  Uiso   1.00
O541   O     0.29769   0.24629   0.75358   0.00000  Uiso   1.00
O542   O     0.05742   0.23704   0.74423   0.00000  Uiso   1.00
C543   C     0.01353   0.26441   0.74642   0.00000  Uiso   1.00
O544   O     0.31490   0.17358   0.83380   0.00000  Uiso   1.00
O545   O     0.07463   0.16433   0.82446   0.00000  Uiso   1.00
C546   C     0.03690   0.16973   0.85425   0.00000  Uiso   1.00
Zn547  Zn    0.27119   0.17284   0.75624   0.00000  Uiso   1.00
Zn548  Zn    0.06214   0.16049   0.74377   0.00000  Uiso   1.00
O549   O     0.27592   0.09629   0.75577   0.00000  Uiso   1.00
O550   O     0.03565   0.08704   0.74643   0.00000  Uiso   1.00
O551   O     0.25870   0.16901   0.67554   0.00000  Uiso   1.00
O552   O     0.01843   0.15976   0.66620   0.00000  Uiso   1.00
C553   C     0.31787   0.06853   0.74817   0.00000  Uiso   1.00
C554   C     0.29777   0.16689   0.64592   0.00000  Uiso   1.00
C555   C     0.29255   0.14103   0.99719   0.00000  Uiso   1.00
H556   H     0.31965   0.12660   0.97099   0.00000  Uiso   1.00
C557   C     0.28067   0.17100   0.58690   0.00000  Uiso   1.00
C558   C     0.04310   0.22947   0.93447   0.00000  Uiso   1.00
C559   C     0.07987   0.25980   0.97736   0.00000  Uiso   1.00
C560   C     0.13283   0.24204   0.50254   0.00000  Uiso   1.00
C561   C     0.15023   0.19411   0.98361   0.00000  Uiso   1.00
C562   C     0.11667   0.16627   0.93621   0.00000  Uiso   1.00
C563   C     0.20326   0.17583   0.50816   0.00000  Uiso   1.00
C564   C     0.23243   0.14353   0.97712   0.00000  Uiso   1.00
C565   C     0.20000   0.11584   0.92844   0.00000  Uiso   1.00
C566   C     0.14066   0.12377   0.91219   0.00000  Uiso   1.00
C567   C     0.22570   0.18524   0.56423   0.00000  Uiso   1.00
C568   C     0.31786   0.15943   0.55185   0.00000  Uiso   1.00
C569   C     0.06207   0.18415   0.91185   0.00000  Uiso   1.00
H570   H     0.19893   0.19992   0.59046   0.00000  Uiso   1.00
H571   H     0.00277   0.24492   0.91506   0.00000  Uiso   1.00
H572   H     0.16073   0.26658   0.53591   0.00000  Uiso   1.00
H573   H     0.06710   0.29711   0.99145   0.00000  Uiso   1.00
H574   H     0.11419   0.09810   0.87894   0.00000  Uiso   1.00
C575   C     0.02014   0.31898   0.74557   0.00000  Uiso   1.00
H576   H     0.06395   0.00305   0.76194   0.00000  Uiso   1.00
C577   C     0.30684   0.01396   0.73527   0.00000  Uiso   1.00
N578   N     0.14493   0.15223   0.73543   0.00000  Uiso   1.00
H579   H     0.15530   0.12800   0.70527   0.00000  Uiso   1.00
N580   N     0.18840   0.18110   0.76458   0.00000  Uiso   1.00
N581   N     0.04583   0.16821   0.57062   0.00000  Uiso   1.00
H582   H     0.06902   0.15389   0.54342   0.00000  Uiso   1.00
C583   C     0.06557   0.22144   0.59337   0.00000  Uiso   1.00
H584   H     0.11334   0.22606   0.60335   0.00000  Uiso   1.00
H585   H     0.05232   0.23223   0.63183   0.00000  Uiso   1.00
H586   H     0.04660   0.25011   0.56462   0.00000  Uiso   1.00
C587   C     0.24795   0.32719   0.70302   0.00000  Uiso   1.00
O588   O     0.20471   0.01290   0.71231   0.00000  Uiso   1.00
O589   O     0.24228   0.28831   0.66021   0.00000  Uiso   1.00
H590   H     0.20038   0.27977   0.64043   0.00000  Uiso   1.00
N591   N     0.17834   0.21156   0.80857   0.00000  Uiso   1.00
H592   H     0.13734   0.22221   0.80426   0.00000  Uiso   1.00
C593   C     0.21736   0.25743   0.82648   0.00000  Uiso   1.00
H594   H     0.20598   0.27818   0.86247   0.00000  Uiso   1.00
H595   H     0.21322   0.28436   0.79317   0.00000  Uiso   1.00
H596   H     0.26231   0.24723   0.83969   0.00000  Uiso   1.00
C597   C     0.22453   0.07589   0.89627   0.00000  Uiso   1.00
O598   O     0.20418   0.06741   0.84682   0.00000  Uiso   1.00
O599   O     0.26949   0.04681   0.92226   0.00000  Uiso   1.00
H600   H     0.28272   0.02156   0.89560   0.00000  Uiso   1.00
O601   O     0.63102   0.24629   0.75358   0.00000  Uiso   1.00
O602   O     0.39075   0.23704   0.74423   0.00000  Uiso   1.00
C603   C     0.34686   0.26441   0.74642   0.00000  Uiso   1.00
O604   O     0.64823   0.17358   0.83380   0.00000  Uiso   1.00
O605   O     0.40796   0.16433   0.82446   0.00000  Uiso   1.00
C606   C     0.37024   0.16973   0.85425   0.00000  Uiso   1.00
Zn607  Zn    0.60453   0.17284   0.75624   0.00000  Uiso   1.00
Zn608  Zn    0.39547   0.16049   0.74377   0.00000  Uiso   1.00
O609   O     0.60925   0.09629   0.75577   0.00000  Uiso   1.00
O610   O     0.36898   0.08704   0.74643   0.00000  Uiso   1.00
O611   O     0.59204   0.16901   0.67554   0.00000  Uiso   1.00
O612   O     0.35177   0.15976   0.66620   0.00000  Uiso   1.00
C613   C     0.65120   0.06853   0.74817   0.00000  Uiso   1.00
C614   C     0.63110   0.16689   0.64592   0.00000  Uiso   1.00
C615   C     0.62589   0.14103   0.99719   0.00000  Uiso   1.00
H616   H     0.65298   0.12660   0.97099   0.00000  Uiso   1.00
C617   C     0.61400   0.17100   0.58690   0.00000  Uiso   1.00
C618   C     0.37643   0.22947   0.93447   0.00000  Uiso   1.00
C619   C     0.41320   0.25980   0.97736   0.00000  Uiso   1.00
C620   C     0.46616   0.24204   0.50254   0.00000  Uiso   1.00
C621   C     0.48357   0.19411   0.98361   0.00000  Uiso   1.00
C622   C     0.45001   0.16627   0.93621   0.00000  Uiso   1.00
C623   C     0.53659   0.17583   0.50816   0.00000  Uiso   1.00
C624   C     0.56576   0.14353   0.97712   0.00000  Uiso   1.00
C625   C     0.53333   0.11584   0.92844   0.00000  Uiso   1.00
C626   C     0.47400   0.12377   0.91219   0.00000  Uiso   1.00
C627   C     0.55904   0.18524   0.56423   0.00000  Uiso   1.00
C628   C     0.65119   0.15943   0.55185   0.00000  Uiso   1.00
C629   C     0.39540   0.18415   0.91185   0.00000  Uiso   1.00
H630   H     0.53227   0.19992   0.59046   0.00000  Uiso   1.00
H631   H     0.33611   0.24492   0.91506   0.00000  Uiso   1.00
H632   H     0.49407   0.26658   0.53591   0.00000  Uiso   1.00
H633   H     0.40044   0.29711   0.99145   0.00000  Uiso   1.00
H634   H     0.44752   0.09810   0.87894   0.00000  Uiso   1.00
C635   C     0.35347   0.31898   0.74557   0.00000  Uiso   1.00
H636   H     0.39728   0.00305   0.76194   0.00000  Uiso   1.00
C637   C     0.64017   0.01396   0.73527   0.00000  Uiso   1.00
N638   N     0.47827   0.15223   0.73543   0.00000  Uiso   1.00
H639   H     0.48863   0.12800   0.70527   0.00000  Uiso   1.00
N640   N     0.52173   0.18110   0.76458   0.00000  Uiso   1.00
N641   N     0.37916   0.16821   0.57062   0.00000  Uiso   1.00
H642   H     0.40235   0.15389   0.54342   0.00000  Uiso   1.00
C643   C     0.39890   0.22144   0.59337   0.00000  Uiso   1.00
H644   H     0.44667   0.22606   0.60335   0.00000  Uiso   1.00
H645   H     0.38566   0.23223   0.63183   0.00000  Uiso   1.00
H646   H     0.37993   0.25011   0.56462   0.00000  Uiso   1.00
C647   C     0.58128   0.32719   0.70302   0.00000  Uiso   1.00
O648   O     0.53805   0.01290   0.71231   0.00000  Uiso   1.00
O649   O     0.57562   0.28831   0.66021   0.00000  Uiso   1.00
H650   H     0.53371   0.27977   0.64043   0.00000  Uiso   1.00
N651   N     0.51168   0.21156   0.80857   0.00000  Uiso   1.00
H652   H     0.47067   0.22221   0.80426   0.00000  Uiso   1.00
C653   C     0.55069   0.25743   0.82648   0.00000  Uiso   1.00
H654   H     0.53932   0.27818   0.86247   0.00000  Uiso   1.00
H655   H     0.54655   0.28436   0.79317   0.00000  Uiso   1.00
H656   H     0.59565   0.24723   0.83969   0.00000  Uiso   1.00
C657   C     0.55787   0.07589   0.89627   0.00000  Uiso   1.00
O658   O     0.53751   0.06741   0.84682   0.00000  Uiso   1.00
O659   O     0.60283   0.04681   0.92226   0.00000  Uiso   1.00
H660   H     0.61606   0.02156   0.89560   0.00000  Uiso   1.00
O661   O     0.96435   0.24629   0.75358   0.00000  Uiso   1.00
O662   O     0.72408   0.23704   0.74423   0.00000  Uiso   1.00
C663   C     0.68019   0.26441   0.74642   0.00000  Uiso   1.00
O664   O     0.98157   0.17358   0.83380   0.00000  Uiso   1.00
O665   O     0.74130   0.16433   0.82446   0.00000  Uiso   1.00
C666   C     0.70357   0.16973   0.85425   0.00000  Uiso   1.00
Zn667  Zn    0.93786   0.17284   0.75624   0.00000  Uiso   1.00
Zn668  Zn    0.72881   0.16049   0.74377   0.00000  Uiso   1.00
O669   O     0.94258   0.09629   0.75577   0.00000  Uiso   1.00
O670   O     0.70231   0.08704   0.74643   0.00000  Uiso   1.00
O671   O     0.92537   0.16901   0.67554   0.00000  Uiso   1.00
O672   O     0.68510   0.15976   0.66620   0.00000  Uiso   1.00
C673   C     0.98454   0.06853   0.74817   0.00000  Uiso   1.00
C674   C     0.96443   0.16689   0.64592   0.00000  Uiso   1.00
C675   C     0.95922   0.14103   0.99719   0.00000  Uiso   1.00
H676   H     0.98631   0.12660   0.97099   0.00000  Uiso   1.00
C677   C     0.94733   0.17100   0.58690   0.00000  Uiso   1.00
C678   C     0.70977   0.22947   0.93447   0.00000  Uiso   1.00
C679   C     0.74654   0.25980   0.97736   0.00000  Uiso   1.00
C680   C     0.79949   0.24204   0.50254   0.00000  Uiso   1.00
C681   C     0.81690   0.19411   0.98361   0.00000  Uiso   1.00
C682   C     0.78334   0.16627   0.93621   0.00000  Uiso   1.00
C683   C     0.86993   0.17583   0.50816   0.00000  Uiso   1.00
C684   C     0.89910   0.14353   0.97712   0.00000  Uiso   1.00
C685   C     0.86667   0.11584   0.92844   0.00000  Uiso   1.00
C686   C     0.80733   0.12377   0.91219   0.00000  Uiso   1.00
C687   C     0.89237   0.18524   0.56423   0.00000  Uiso   1.00
C688   C     0.98453   0.15943   0.55185   0.00000  Uiso   1.00
C689   C     0.72874   0.18415   0.91185   0.00000  Uiso   1.00
H690   H     0.86560   0.19992   0.59046   0.00000  Uiso   1.00
H691   H     0.66944   0.24492   0.91506   0.00000  Uiso   1.00
H692   H     0.82740   0.26658   0.53591   0.00000  Uiso   1.00
H693   H     0.73377   0.29711   0.99145   0.00000  Uiso   1.00
H694   H     0.78086   0.09810   0.87894   0.00000  Uiso   1.00
C695   C     0.68680   0.31898   0.74557   0.00000  Uiso   1.00
H696   H     0.73062   0.00305   0.76194   0.00000  Uiso   1.00
C697   C     0.97350   0.01396   0.73527   0.00000  Uiso   1.00
N698   N     0.81160   0.15223   0.73543   0.00000  Uiso   1.00
H699   H     0.82196   0.12800   0.70527   0.00000  Uiso   1.00
N700   N     0.85507   0.18110   0.76458   0.00000  Uiso   1.00
N701   N     0.71249   0.16821   0.57062   0.00000  Uiso   1.00
H702   H     0.73568   0.15389   0.54342   0.00000  Uiso   1.00
C703   C     0.73224   0.22144   0.59337   0.00000  Uiso   1.00
H704   H     0.78001   0.22606   0.60335   0.00000  Uiso   1.00
H705   H     0.71899   0.23223   0.63183   0.00000  Uiso   1.00
H706   H     0.71327   0.25011   0.56462   0.00000  Uiso   1.00
C707   C     0.91461   0.32719   0.70302   0.00000  Uiso   1.00
O708   O     0.87138   0.01290   0.71231   0.00000  Uiso   1.00
O709   O     0.90895   0.28831   0.66021   0.00000  Uiso   1.00
H710   H     0.86704   0.27977   0.64043   0.00000  Uiso   1.00
N711   N     0.84501   0.21156   0.80857   0.00000  Uiso   1.00
H712   H     0.80401   0.22221   0.80426   0.00000  Uiso   1.00
C713   C     0.88403   0.25743   0.82648   0.00000  Uiso   1.00
H714   H     0.87265   0.27818   0.86247   0.00000  Uiso   1.00
H715   H     0.87988   0.28436   0.79317   0.00000  Uiso   1.00
H716   H     0.92898   0.24723   0.83969   0.00000  Uiso   1.00
C717   C     0.89120   0.07589   0.89627   0.00000  Uiso   1.00
O718   O     0.87085   0.06741   0.84682   0.00000  Uiso   1.00
O719   O     0.93616   0.04681   0.92226   0.00000  Uiso   1.00
H720   H     0.94939   0.02156   0.89560   0.00000  Uiso   1.00
O721   O     0.29769   0.57963   0.75358   0.00000  Uiso   1.00
O722   O     0.05742   0.57038   0.74423   0.00000  Uiso   1.00
C723   C     0.01353   0.59774   0.74642   0.00000  Uiso   1.00
O724   O     0.31490   0.50691   0.83380   0.00000  Uiso   1.00
O725   O     0.07463   0.49766   0.82446   0.00000  Uiso   1.00
C726   C     0.03690   0.50306   0.85425   0.00000  Uiso   1.00
Zn727  Zn    0.27119   0.50618   0.75624   0.00000  Uiso   1.00
Zn728  Zn    0.06214   0.49382   0.74377   0.00000  Uiso   1.00
O729   O     0.27592   0.42962   0.75577   0.00000  Uiso   1.00
O730   O     0.03565   0.42037   0.74643   0.00000  Uiso   1.00
O731   O     0.25870   0.50234   0.67554   0.00000  Uiso   1.00
O732   O     0.01843   0.49309   0.66620   0.00000  Uiso   1.00
C733   C     0.31787   0.40187   0.74817   0.00000  Uiso   1.00
C734   C     0.29777   0.50022   0.64592   0.00000  Uiso   1.00
C735   C     0.29255   0.47436   0.99719   0.00000  Uiso   1.00
H736   H     0.31965   0.45994   0.97099   0.00000  Uiso   1.00
C737   C     0.28067   0.50434   0.58690   0.00000  Uiso   1.00
C738   C     0.04310   0.56281   0.93447   0.00000  Uiso   1.00
C739   C     0.07987   0.59313   0.97736   0.00000  Uiso   1.00
C740   C     0.13283   0.57537   0.50254   0.00000  Uiso   1.00
C741   C     0.15023   0.52745   0.98361   0.00000  Uiso   1.00
C742   C     0.11667   0.49960   0.93621   0.00000  Uiso   1.00
C743   C     0.20326   0.50917   0.50816   0.00000  Uiso   1.00
C744   C     0.23243   0.47687   0.97712   0.00000  Uiso   1.00
C745   C     0.20000   0.44918   0.92844   0.00000  Uiso   1.00
C746   C     0.14066   0.45711   0.91219   0.00000  Uiso   1.00
C747   C     0.22570   0.51857   0.56423   0.00000  Uiso   1.00
C748   C     0.31786   0.49277   0.55185   0.00000  Uiso   1.00
C749   C     0.06207   0.51748   0.91185   0.00000  Uiso   1.00
H750   H     0.19893   0.53325   0.59046   0.00000  Uiso   1.00
H751   H     0.00277   0.57825   0.91506   0.00000  Uiso   1.00
H752   H     0.16073   0.59991   0.53591   0.00000  Uiso   1.00
H753   H     0.06710   0.63044   0.99145   0.00000  Uiso   1.00
H754   H     0.11419   0.43143   0.87894   0.00000  Uiso   1.00
C755   C     0.02014   0.65231   0.74557   0.00000  Uiso   1.00
H756   H     0.06395   0.33638   0.76194   0.00000  Uiso   1.00
C757   C     0.30684   0.34730   0.73527   0.00000  Uiso   1.00
N758   N     0.14493   0.48556   0.73543   0.00000  Uiso   1.00
H759   H     0.15530   0.46133   0.70527   0.00000  Uiso   1.00
N760   N     0.18840   0.51444   0.76458   0.00000  Uiso   1.00
N761   N     0.04583   0.50154   0.57062   0.00000  Uiso   1.00
H762   H     0.06902   0.48723   0.54342   0.00000  Uiso   1.00
C763   C     0.06557   0.55477   0.59337   0.00000  Uiso   1.00
H764   H     0.11334   0.55940   0.60335   0.00000  Uiso   1.00
H765   H     0.05232   0.56556   0.63183   0.00000  Uiso   1.00
H766   H     0.04660   0.58344   0.56462   0.00000  Uiso   1.00
C767   C     0.24795   0.66052   0.70302   0.00000  Uiso   1.00
O768   O     0.20471   0.34623   0.71231   0.00000  Uiso   1.00
O769   O     0.24228   0.62164   0.66021   0.00000  Uiso   1.00
H770   H     0.20038   0.61311   0.64043   0.00000  Uiso   1.00
N771   N     0.17834   0.54489   0.80857   0.00000  Uiso   1.00
H772   H     0.13734   0.55555   0.80426   0.00000  Uiso   1.00
C773   C     0.21736   0.59076   0.82648   0.00000  Uiso   1.00
H774   H     0.20598   0.61151   0.86247   0.00000  Uiso   1.00
H775   H     0.21322   0.61770   0.79317   0.00000  Uiso   1.00
H776   H     0.26231   0.58057   0.83969   0.00000  Uiso   1.00
C777   C     0.22453   0.40922   0.89627   0.00000  Uiso   1.00
O778   O     0.20418   0.40074   0.84682   0.00000  Uiso   1.00
O779   O     0.26949   0.38015   0.92226   0.00000  Uiso   1.00
H780   H     0.28272   0.35489   0.89560   0.00000  Uiso   1.00
O781   O     0.63102   0.57963   0.75358   0.00000  Uiso   1.00
O782   O     0.39075   0.57038   0.74423   0.00000  Uiso   1.00
C783   C     0.34686   0.59774   0.74642   0.00000  Uiso   1.00
O784   O     0.64823   0.50691   0.83380   0.00000  Uiso   1.00
O785   O     0.40796   0.49766   0.82446   0.00000  Uiso   1.00
C786   C     0.37024   0.50306   0.85425   0.00000  Uiso   1.00
Zn787  Zn    0.60453   0.50618   0.75624   0.00000  Uiso   1.00
Zn788  Zn    0.39547   0.49382   0.74377   0.00000  Uiso   1.00
O789   O     0.60925   0.42962   0.75577   0.00000  Uiso   1.00
O790   O     0.36898   0.42037   0.74643   0.00000  Uiso   1.00
O791   O     0.59204   0.50234   0.67554   0.00000  Uiso   1.00
O792   O     0.35177   0.49309   0.66620   0.00000  Uiso   1.00
C793   C     0.65120   0.40187   0.74817   0.00000  Uiso   1.00
C794   C     0.63110   0.50022   0.64592   0.00000  Uiso   1.00
C795   C     0.62589   0.47436   0.99719   0.00000  Uiso   1.00
H796   H     0.65298   0.45994   0.97099   0.00000  Uiso   1.00
C797   C     0.61400   0.50434   0.58690   0.00000  Uiso   1.00
C798   C     0.37643   0.56281   0.93447   0.00000  Uiso   1.00
C799   C     0.41320   0.59313   0.97736   0.00000  Uiso   1.00
C800   C     0.46616   0.57537   0.50254   0.00000  Uiso   1.00
C801   C     0.48357   0.52745   0.98361   0.00000  Uiso   1.00
C802   C     0.45001   0.49960   0.93621   0.00000  Uiso   1.00
C803   C     0.53659   0.50917   0.50816   0.00000  Uiso   1.00
C804   C     0.56576   0.47687   0.97712   0.00000  Uiso   1.00
C805   C     0.53333   0.44918   0.92844   0.00000  Uiso   1.00
C806   C     0.47400   0.45711   0.91219   0.00000  Uiso   1.00
C807   C     0.55904   0.51857   0.56423   0.00000  Uiso   1.00
C808   C     0.65119   0.49277   0.55185   0.00000  Uiso   1.00
C809   C     0.39540   0.51748   0.91185   0.00000  Uiso   1.00
H810   H     0.53227   0.53325   0.59046   0.00000  Uiso   1.00
H811   H     0.33611   0.57825   0.91506   0.00000  Uiso   1.00
H812   H     0.49407   0.59991   0.53591   0.00000  Uiso   1.00
H813   H     0.40044   0.63044   0.99145   0.00000  Uiso   1.00
H814   H     0.44752   0.43143   0.87894   0.00000  Uiso   1.00
C815   C     0.35347   0.65231   0.74557   0.00000  Uiso   1.00
H816   H     0.39728   0.33638   0.76194   0.00000  Uiso   1.00
C817   C     0.64017   0.34730   0.73527   0.00000  Uiso   1.00
N818   N     0.47827   0.48556   0.73543   0.00000  Uiso   1.00
H819   H     0.48863   0.46133   0.70527   0.00000  Uiso   1.00
N820   N     0.52173   0.51444   0.76458   0.00000  Uiso   1.00
N821   N     0.37916   0.50154   0.57062   0.00000  Uiso   1.00
H822   H     0.40235   0.48723   0.54342   0.00000  Uiso   1.00
C823   C     0.39890   0.55477   0.59337   0.00000  Uiso   1.00
H824   H     0.44667   0.55940   0.60335   0.00000  Uiso   1.00
H825   H     0.38566   0.56556   0.63183   0.00000  Uiso   1.00
H826   H     0.37993   0.58344   0.56462   0.00000  Uiso   1.00
C827   C     0.58128   0.66052   0.70302   0.00000  Uiso   1.00
O828   O     0.53805   0.34623   0.71231   0.00000  Uiso   1.00
O829   O     0.57562   0.62164   0.66021   0.00000  Uiso   1.00
H830   H     0.53371   0.61311   0.64043   0.00000  Uiso   1.00
N831   N     0.51168   0.54489   0.80857   0.00000  Uiso   1.00
H832   H     0.47067   0.55555   0.80426   0.00000  Uiso   1.00
C833   C     0.55069   0.59076   0.82648   0.00000  Uiso   1.00
H834   H     0.53932   0.61151   0.86247   0.00000  Uiso   1.00
H835   H     0.54655   0.61770   0.79317   0.00000  Uiso   1.00
H836   H     0.59565   0.58057   0.83969   0.00000  Uiso   1.00
C837   C     0.55787   0.40922   0.89627   0.00000  Uiso   1.00
O838   O     0.53751   0.40074   0.84682   0.00000  Uiso   1.00
O839   O     0.60283   0.38015   0.92226   0.00000  Uiso   1.00
H840   H     0.61606   0.35489   0.89560   0.00000  Uiso   1.00
O841   O     0.96435   0.57963   0.75358   0.00000  Uiso   1.00
O842   O     0.72408   0.57038   0.74423   0.00000  Uiso   1.00
C843   C     0.68019   0.59774   0.74642   0.00000  Uiso   1.00
O844   O     0.98157   0.50691   0.83380   0.00000  Uiso   1.00
O845   O     0.74130   0.49766   0.82446   0.00000  Uiso   1.00
C846   C     0.70357   0.50306   0.85425   0.00000  Uiso   1.00
Zn847  Zn    0.93786   0.50618   0.75624   0.00000  Uiso   1.00
Zn848  Zn    0.72881   0.49382   0.74377   0.00000  Uiso   1.00
O849   O     0.94258   0.42962   0.75577   0.00000  Uiso   1.00
O850   O     0.70231   0.42037   0.74643   0.00000  Uiso   1.00
O851   O     0.92537   0.50234   0.67554   0.00000  Uiso   1.00
O852   O     0.68510   0.49309   0.66620   0.00000  Uiso   1.00
C853   C     0.98454   0.40187   0.74817   0.00000  Uiso   1.00
C854   C     0.96443   0.50022   0.64592   0.00000  Uiso   1.00
C855   C     0.95922   0.47436   0.99719   0.00000  Uiso   1.00
H856   H     0.98631   0.45994   0.97099   0.00000  Uiso   1.00
C857   C     0.94733   0.50434   0.58690   0.00000  Uiso   1.00
C858   C     0.70977   0.56281   0.93447   0.00000  Uiso   1.00
C859   C     0.74654   0.59313   0.97736   0.00000  Uiso   1.00
C860   C     0.79949   0.57537   0.50254   0.00000  Uiso   1.00
C861   C     0.81690   0.52745   0.98361   0.00000  Uiso   1.00
C862   C     0.78334   0.49960   0.93621   0.00000  Uiso   1.00
C863   C     0.86993   0.50917   0.50816   0.00000  Uiso   1.00
C864   C     0.89910   0.47687   0.97712   0.00000  Uiso   1.00
C865   C     0.86667   0.44918   0.92844   0.00000  Uiso   1.00
C866   C     0.80733   0.45711   0.91219   0.00000  Uiso   1.00
C867   C     0.89237   0.51857   0.56423   0.00000  Uiso   1.00
C868   C     0.98453   0.49277   0.55185   0.00000  Uiso   1.00
C869   C     0.72874   0.51748   0.91185   0.00000  Uiso   1.00
H870   H     0.86560   0.53325   0.59046   0.00000  Uiso   1.00
H871   H     0.66944   0.57825   0.91506   0.00000  Uiso   1.00
H872   H     0.82740   0.59991   0.53591   0.00000  Uiso   1.00
H873   H     0.73377   0.63044   0.99145   0.00000  Uiso   1.00
H874   H     0.78086   0.43143   0.87894   0.00000  Uiso   1.00
C875   C     0.68680   0.65231   0.74557   0.00000  Uiso   1.00
H876   H     0.73062   0.33638   0.76194   0.00000  Uiso   1.00
C877   C     0.97350   0.34730   0.73527   0.00000  Uiso   1.00
N878   N     0.81160   0.48556   0.73543   0.00000  Uiso   1.00
H879   H     0.82196   0.46133   0.70527   0.00000  Uiso   1.00
N880   N     0.85507   0.51444   0.76458   0.00000  Uiso   1.00
N881   N     0.71249   0.50154   0.57062   0.00000  Uiso   1.00
H882   H     0.73568   0.48723   0.54342   0.00000  Uiso   1.00
C883   C     0.73224   0.55477   0.59337   0.00000  Uiso   1.00
H884   H     0.78001   0.55940   0.60335   0.00000  Uiso   1.00
H885   H     0.71899   0.56556   0.63183   0.00000  Uiso   1.00
H886   H     0.71327   0.58344   0.56462   0.00000  Uiso   1.00
C887   C     0.91461   0.66052   0.70302   0.00000  Uiso   1.00
O888   O     0.87138   0.34623   0.71231   0.00000  Uiso   1.00
O889   O     0.90895   0.62164   0.66021   0.00000  Uiso   1.00
H890   H     0.86704   0.61311   0.64043   0.00000  Uiso   1.00
N891   N     0.84501   0.54489   0.80857   0.00000  Uiso   1.00
H892   H     0.80401   0.55555   0.80426   0.00000  Uiso   1.00
C893   C     0.88403   0.59076   0.82648   0.00000  Uiso   1.00
H894   H     0.87265   0.61151   0.86247   0.00000  Uiso   1.00
H895   H     0.87988   0.61770   0.79317   0.00000  Uiso   1.00
H896   H     0.92898   0.58057   0.83969   0.00000  Uiso   1.00
C897   C     0.89120   0.40922   0.89627   0.00000  Uiso   1.00
O898   O     0.87085   0.40074   0.84682   0.00000  Uiso   1.00
O899   O     0.93616   0.38015   0.92226   0.00000  Uiso   1.00
H900   H     0.94939   0.35489   0.89560   0.00000  Uiso   1.00
O901   O     0.29769   0.91296   0.75358   0.00000  Uiso   1.00
O902   O     0.05742   0.90371   0.74423   0.00000  Uiso   1.00
C903   C     0.01353   0.93107   0.74642   0.00000  Uiso   1.00
O904   O     0.31490   0.84024   0.83380   0.00000  Uiso   1.00
O905   O     0.07463   0.83099   0.82446   0.00000  Uiso   1.00
C906   C     0.03690   0.83640   0.85425   0.00000  Uiso   1.00
Zn907  Zn    0.27119   0.83951   0.75624   0.00000  Uiso   1.00
Zn908  Zn    0.06214   0.82716   0.74377   0.00000  Uiso   1.00
O909   O     0.27592   0.76296   0.75577   0.00000  Uiso   1.00
O910   O     0.03565   0.75371   0.74643   0.00000  Uiso   1.00
O911   O     0.25870   0.83567   0.67554   0.00000  Uiso   1.00
O912   O     0.01843   0.82642   0.66620   0.00000  Uiso   1.00
C913   C     0.31787   0.73520   0.74817   0.00000  Uiso   1.00
C914   C     0.29777   0.83355   0.64592   0.00000  Uiso   1.00
C915   C     0.29255   0.80769   0.99719   0.00000  Uiso   1.00
H916   H     0.31965   0.79327   0.97099   0.00000  Uiso   1.00
C917   C     0.28067   0.83767   0.58690   0.00000  Uiso   1.00
C918   C     0.04310   0.89614   0.93447   0.00000  Uiso   1.00
C919   C     0.07987   0.92646   0.97736   0.00000  Uiso   1.00
C920   C     0.13283   0.90871   0.50254   0.00000  Uiso   1.00
C921   C     0.15023   0.86078   0.98361   0.00000  Uiso   1.00
C922   C     0.11667   0.83293   0.93621   0.00000  Uiso   1.00
C923   C     0.20326   0.84250   0.50816   0.00000  Uiso   1.00
C924   C     0.23243   0.81020   0.97712   0.00000  Uiso   1.00
C925   C     0.20000   0.78251   0.92844   0.00000  Uiso   1.00
C926   C     0.14066   0.79044   0.91219   0.00000  Uiso   1.00
C927   C     0.22570   0.85190   0.56423   0.00000  Uiso   1.00
C928   C     0.31786   0.82610   0.55185   0.00000  Uiso   1.00
C929   C     0.06207   0.85082   0.91185   0.00000  Uiso   1.00
H930   H     0.19893   0.86659   0.59046   0.00000  Uiso   1.00
H931   H     0.00277   0.91159   0.91506   0.00000  Uiso   1.00
H932   H     0.16073   0.93325   0.53591   0.00000  Uiso   1.00
H933   H     0.06710   0.96378   0.99145   0.00000  Uiso   1.00
H934   H     0.11419   0.76476   0.87894   0.00000  Uiso   1.00
C935   C     0.02014   0.98564   0.74557   0.00000  Uiso   1.00
H936   H     0.06395   0.66972   0.76194   0.00000  Uiso   1.00
C937   C     0.30684   0.68063   0.73527   0.00000  Uiso   1.00
N938   N     0.14493   0.81890   0.73543   0.00000  Uiso   1.00
H939   H     0.15530   0.79467   0.70527   0.00000  Uiso   1.00
N940   N     0.18840   0.84777   0.76458   0.00000  Uiso   1.00
N941   N     0.04583   0.83487   0.57062   0.00000  Uiso   1.00
H942   H     0.06902   0.82056   0.54342   0.00000  Uiso   1.00
C943   C     0.06557   0.88810   0.59337   0.00000  Uiso   1.00
H944   H     0.11334   0.89273   0.60335   0.00000  Uiso   1.00
H945   H     0.05232   0.89889   0.63183   0.00000  Uiso   1.00
H946   H     0.04660   0.91677   0.56462   0.00000  Uiso   1.00
C947   C     0.24795   0.99385   0.70302   0.00000  Uiso   1.00
O948   O     0.20471   0.67956   0.71231   0.00000  Uiso   1.00
O949   O     0.24228   0.95498   0.66021   0.00000  Uiso   1.00
H950   H     0.20038   0.94644   0.64043   0.00000  Uiso   1.00
N951   N     0.17834   0.87823   0.80857   0.00000  Uiso   1.00
H952   H     0.13734   0.88888   0.80426   0.00000  Uiso   1.00
C953   C     0.21736   0.92410   0.82648   0.00000  Uiso   1.00
H954   H     0.20598   0.94485   0.86247   0.00000  Uiso   1.00
H955   H     0.21322   0.95103   0.79317   0.00000  Uiso   1.00
H956   H     0.26231   0.91390   0.83969   0.00000  Uiso   1.00
C957   C     0.22453   0.74256   0.89627   0.00000  Uiso   1.00
O958   O     0.20418   0.73408   0.84682   0.00000  Uiso   1.00
O959   O     0.26949   0.71348   0.92226   0.00000  Uiso   1.00
H960   H     0.28272   0.68822   0.89560   0.00000  Uiso   1.00
O961   O     0.63102   0.91296   0.75358   0.00000  Uiso   1.00
O962   O     0.39075   0.90371   0.74423   0.00000  Uiso   1.00
C963   C     0.34686   0.93107   0.74642   0.00000  Uiso   1.00
O964   O     0.64823   0.84024   0.83380   0.00000  Uiso   1.00
O965   O     0.40796   0.83099   0.82446   0.00000  Uiso   1.00
C966   C     0.37024   0.83640   0.85425   0.00000  Uiso   1.00
Zn967  Zn    0.60453   0.83951   0.75624   0.00000  Uiso   1.00
Zn968  Zn    0.39547   0.82716   0.74377   0.00000  Uiso   1.00
O969   O     0.60925   0.76296   0.75577   0.00000  Uiso   1.00
O970   O     0.36898   0.75371   0.74643   0.00000  Uiso   1.00
O971   O     0.59204   0.83567   0.67554   0.00000  Uiso   1.00
O972   O     0.35177   0.82642   0.66620   0.00000  Uiso   1.00
C973   C     0.65120   0.73520   0.74817   0.00000  Uiso   1.00
C974   C     0.63110   0.83355   0.64592   0.00000  Uiso   1.00
C975   C     0.62589   0.80769   0.99719   0.00000  Uiso   1.00
H976   H     0.65298   0.79327   0.97099   0.00000  Uiso   1.00
C977   C     0.61400   0.83767   0.58690   0.00000  Uiso   1.00
C978   C     0.37643   0.89614   0.93447   0.00000  Uiso   1.00
C979   C     0.41320   0.92646   0.97736   0.00000  Uiso   1.00
C980   C     0.46616   0.90871   0.50254   0.00000  Uiso   1.00
C981   C     0.48357   0.86078   0.98361   0.00000  Uiso   1.00
C982   C     0.45001   0.83293   0.93621   0.00000  Uiso   1.00
C983   C     0.53659   0.84250   0.50816   0.00000  Uiso   1.00
C984   C     0.56576   0.81020   0.97712   0.00000  Uiso   1.00
C985   C     0.53333   0.78251   0.92844   0.00000  Uiso   1.00
C986   C     0.47400   0.79044   0.91219   0.00000  Uiso   1.00
C987   C     0.55904   0.85190   0.56423   0.00000  Uiso   1.00
C988   C     0.65119   0.82610   0.55185   0.00000  Uiso   1.00
C989   C     0.39540   0.85082   0.91185   0.00000  Uiso   1.00
H990   H     0.53227   0.86659   0.59046   0.00000  Uiso   1.00
H991   H     0.33611   0.91159   0.91506   0.00000  Uiso   1.00
H992   H     0.49407   0.93325   0.53591   0.00000  Uiso   1.00
H993   H     0.40044   0.96378   0.99145   0.00000  Uiso   1.00
H994   H     0.44752   0.76476   0.87894   0.00000  Uiso   1.00
C995   C     0.35347   0.98564   0.74557   0.00000  Uiso   1.00
H996   H     0.39728   0.66972   0.76194   0.00000  Uiso   1.00
C997   C     0.64017   0.68063   0.73527   0.00000  Uiso   1.00
N998   N     0.47827   0.81890   0.73543   0.00000  Uiso   1.00
H999   H     0.48863   0.79467   0.70527   0.00000  Uiso   1.00
N1000  N     0.52173   0.84777   0.76458   0.00000  Uiso   1.00
N1001  N     0.37916   0.83487   0.57062   0.00000  Uiso   1.00
H1002  H     0.40235   0.82056   0.54342   0.00000  Uiso   1.00
C1003  C     0.39890   0.88810   0.59337   0.00000  Uiso   1.00
H1004  H     0.44667   0.89273   0.60335   0.00000  Uiso   1.00
H1005  H     0.38566   0.89889   0.63183   0.00000  Uiso   1.00
H1006  H     0.37993   0.91677   0.56462   0.00000  Uiso   1.00
C1007  C     0.58128   0.99385   0.70302   0.00000  Uiso   1.00
O1008  O     0.53805   0.67956   0.71231   0.00000  Uiso   1.00
O1009  O     0.57562   0.95498   0.66021   0.00000  Uiso   1.00
H1010  H     0.53371   0.94644   0.64043   0.00000  Uiso   1.00
N1011  N     0.51168   0.87823   0.80857   0.00000  Uiso   1.00
H1012  H     0.47067   0.88888   0.80426   0.00000  Uiso   1.00
C1013  C     0.55069   0.92410   0.82648   0.00000  Uiso   1.00
H1014  H     0.53932   0.94485   0.86247   0.00000  Uiso   1.00
H1015  H     0.54655   0.95103   0.79317   0.00000  Uiso   1.00
H1016  H     0.59565   0.91390   0.83969   0.00000  Uiso   1.00
C1017  C     0.55787   0.74256   0.89627   0.00000  Uiso   1.00
O1018  O     0.53751   0.73408   0.84682   0.00000  Uiso   1.00
O1019  O     0.60283   0.71348   0.92226   0.00000  Uiso   1.00
H1020  H     0.61606   0.68822   0.89560   0.00000  Uiso   1.00
O1021  O     0.96435   0.91296   0.75358   0.00000  Uiso   1.00
O1022  O     0.72408   0.90371   0.74423   0.00000  Uiso   1.00
C1023  C     0.68019   0.93107   0.74642   0.00000  Uiso   1.00
O1024  O     0.98157   0.84024   0.83380   0.00000  Uiso   1.00
O1025  O     0.74130   0.83099   0.82446   0.00000  Uiso   1.00
C1026  C     0.70357   0.83640   0.85425   0.00000  Uiso   1.00
Zn1027 Zn    0.93786   0.83951   0.75624   0.00000  Uiso   1.00
Zn1028 Zn    0.72881   0.82716   0.74377   0.00000  Uiso   1.00
O1029  O     0.94258   0.76296   0.75577   0.00000  Uiso   1.00
O1030  O     0.70231   0.75371   0.74643   0.00000  Uiso   1.00
O1031  O     0.92537   0.83567   0.67554   0.00000  Uiso   1.00
O1032  O     0.68510   0.82642   0.66620   0.00000  Uiso   1.00
C1033  C     0.98454   0.73520   0.74817   0.00000  Uiso   1.00
C1034  C     0.96443   0.83355   0.64592   0.00000  Uiso   1.00
C1035  C     0.95922   0.80769   0.99719   0.00000  Uiso   1.00
H1036  H     0.98631   0.79327   0.97099   0.00000  Uiso   1.00
C1037  C     0.94733   0.83767   0.58690   0.00000  Uiso   1.00
C1038  C     0.70977   0.89614   0.93447   0.00000  Uiso   1.00
C1039  C     0.74654   0.92646   0.97736   0.00000  Uiso   1.00
C1040  C     0.79949   0.90871   0.50254   0.00000  Uiso   1.00
C1041  C     0.81690   0.86078   0.98361   0.00000  Uiso   1.00
C1042  C     0.78334   0.83293   0.93621   0.00000  Uiso   1.00
C1043  C     0.86993   0.84250   0.50816   0.00000  Uiso   1.00
C1044  C     0.89910   0.81020   0.97712   0.00000  Uiso   1.00
C1045  C     0.86667   0.78251   0.92844   0.00000  Uiso   1.00
C1046  C     0.80733   0.79044   0.91219   0.00000  Uiso   1.00
C1047  C     0.89237   0.85190   0.56423   0.00000  Uiso   1.00
C1048  C     0.98453   0.82610   0.55185   0.00000  Uiso   1.00
C1049  C     0.72874   0.85082   0.91185   0.00000  Uiso   1.00
H1050  H     0.86560   0.86659   0.59046   0.00000  Uiso   1.00
H1051  H     0.66944   0.91159   0.91506   0.00000  Uiso   1.00
H1052  H     0.82740   0.93325   0.53591   0.00000  Uiso   1.00
H1053  H     0.73377   0.96378   0.99145   0.00000  Uiso   1.00
H1054  H     0.78086   0.76476   0.87894   0.00000  Uiso   1.00
C1055  C     0.68680   0.98564   0.74557   0.00000  Uiso   1.00
H1056  H     0.73062   0.66972   0.76194   0.00000  Uiso   1.00
C1057  C     0.97350   0.68063   0.73527   0.00000  Uiso   1.00
N1058  N     0.81160   0.81890   0.73543   0.00000  Uiso   1.00
H1059  H     0.82196   0.79467   0.70527   0.00000  Uiso   1.00
N1060  N     0.85507   0.84777   0.76458   0.00000  Uiso   1.00
N1061  N     0.71249   0.83487   0.57062   0.00000  Uiso   1.00
H1062  H     0.73568   0.82056   0.54342   0.00000  Uiso   1.00
C1063  C     0.73224   0.88810   0.59337   0.00000  Uiso   1.00
H1064  H     0.78001   0.89273   0.60335   0.00000  Uiso   1.00
H1065  H     0.71899   0.89889   0.63183   0.00000  Uiso   1.00
H1066  H     0.71327   0.91677   0.56462   0.00000  Uiso   1.00
C1067  C     0.91461   0.99385   0.70302   0.00000  Uiso   1.00
O1068  O     0.87138   0.67956   0.71231   0.00000  Uiso   1.00
O1069  O     0.90895   0.95498   0.66021   0.00000  Uiso   1.00
H1070  H     0.86704   0.94644   0.64043   0.00000  Uiso   1.00
N1071  N     0.84501   0.87823   0.80857   0.00000  Uiso   1.00
H1072  H     0.80401   0.88888   0.80426   0.00000  Uiso   1.00
C1073  C     0.88403   0.92410   0.82648   0.00000  Uiso   1.00
H1074  H     0.87265   0.94485   0.86247   0.00000  Uiso   1.00
H1075  H     0.87988   0.95103   0.79317   0.00000  Uiso   1.00
H1076  H     0.92898   0.91390   0.83969   0.00000  Uiso   1.00
C1077  C     0.89120   0.74256   0.89627   0.00000  Uiso   1.00
O1078  O     0.87085   0.73408   0.84682   0.00000  Uiso   1.00
O1079  O     0.93616   0.71348   0.92226   0.00000  Uiso   1.00
H1080  H     0.94939   0.68822   0.89560   0.00000  Uiso   1.00
loop_
_geom_bond_atom_site_label_1
_geom_bond_atom_site_label_2
_geom_bond_distance
_geom_bond_site_symmetry_2
_ccdc_geom_bond_type
O1     Zn7     1.966   .     S
O1     C63     1.288   .     S
O2     C3      1.298   .     A
O2     Zn8     1.975   .     S
C3     C35     1.404   .     S
C3     O121    1.288   1_455 S
O4     Zn7     1.982   .     S
O4     C66     1.310   .     S
O5     Zn8     1.969   .     S
O5     C6      1.297   .     A
C6     C29     1.446   .     S
C6     O124    1.310   1_455 S
Zn7    N40     2.046   .     S
Zn7    O11     1.969   .     S
Zn7    O9      1.975   .     S
Zn8    O12     1.982   .     S
Zn8    N38     2.046   .     S
Zn8    O10     1.966   .     S
O9     C13     1.298   .     A
O10    C133    1.291   1_455 S
O11    C14     1.314   .     A
O12    C134    1.296   1_455 S
C13    C37     1.415   .     S
C13    O70     1.291   .     S
C14    C17     1.453   .     S
C14    O72     1.296   .     S
C15    C24     1.410   .     A
C15    H16     1.081   .     S
C15    C568    1.404   .     S
C17    C28     1.409   .     A
C17    C27     1.380   .     A
C18    C29     1.403   .     A
C18    C19     1.385   .     A
C18    H31     1.080   .     S
C19    H33     1.083   .     S
C19    C560    1.389   .     S
C20    H32     1.083   .     S
C20    C559    1.389   1_554 S
C20    C561    1.408   1_554 S
C21    C22     1.399   .     A
C21    C560    1.408   .     S
C21    C563    1.391   .     S
C22    C29     1.417   .     A
C22    C26     1.421   .     A
C23    C27     1.384   .     A
C23    C561    1.391   1_554 S
C23    C564    1.413   1_554 S
C24    C25     1.411   .     A
C24    C563    1.413   .     S
C25    C57     1.488   .     S
C25    C26     1.406   .     A
C26    H34     1.083   .     S
C27    H30     1.078   .     S
C28    C555    1.404   1_554 S
C28    N101    1.426   .     S
C35    H216    1.089   .     S
C35    C337    1.344   1_455 S
H36    C395    1.089   1_545 S
C37    C455    1.344   1_545 S
C37    C407    1.495   1_545 S
N38    N40     1.287   .     D
N38    H39     1.029   .     S
N40    N51     1.383   .     S
N41    C43     1.458   .     S
N41    H42     1.031   .     S
N41    C148    1.426   1_455 S
C43    H45     1.102   .     S
C43    H44     1.104   .     S
C43    H46     1.104   .     S
C47    O49     1.396   .     S
C47    C217    1.495   .     S
C47    O228    1.224   .     S
O48    C407    1.224   1_545 S
O49    H50     1.012   .     S
N51    H52     1.010   .     S
N51    C53     1.441   .     S
C53    H55     1.107   .     S
C53    H54     1.111   .     S
C53    H56     1.096   .     S
C57    O58     1.223   .     D
C57    O59     1.398   .     S
O59    H60     1.014   .     S
O61    Zn67    1.966   .     S
O61    C123    1.288   .     S
O62    C63     1.298   .     A
O62    Zn68    1.975   .     S
C63    C95     1.404   .     S
O64    Zn67    1.982   .     S
O64    C126    1.310   .     S
O65    Zn68    1.969   .     S
O65    C66     1.297   .     A
C66    C89     1.446   .     S
Zn67   N100    2.046   .     S
Zn67   O71     1.969   .     S
Zn67   O69     1.975   .     S
Zn68   O72     1.982   .     S
Zn68   N98     2.046   .     S
Zn68   O70     1.966   .     S
O69    C73     1.298   .     A
O71    C74     1.314   .     A
C73    C97     1.415   .     S
C73    O130    1.291   .     S
C74    C77     1.453   .     S
C74    O132    1.296   .     S
C75    C84     1.410   .     A
C75    H76     1.081   .     S
C75    C628    1.404   .     S
C77    C88     1.409   .     A
C77    C87     1.380   .     A
C78    C89     1.403   .     A
C78    C79     1.385   .     A
C78    H91     1.080   .     S
C79    H93     1.083   .     S
C79    C620    1.389   .     S
C80    H92     1.083   .     S
C80    C619    1.389   1_554 S
C80    C621    1.408   1_554 S
C81    C82     1.399   .     A
C81    C620    1.408   .     S
C81    C623    1.391   .     S
C82    C89     1.417   .     A
C82    C86     1.421   .     A
C83    C87     1.384   .     A
C83    C621    1.391   1_554 S
C83    C624    1.413   1_554 S
C84    C85     1.411   .     A
C84    C623    1.413   .     S
C85    C117    1.488   .     S
C85    C86     1.406   .     A
C86    H94     1.083   .     S
C87    H90     1.078   .     S
C88    C615    1.404   1_554 S
C88    N161    1.426   .     S
C95    H276    1.089   .     S
C95    C217    1.344   .     S
H96    C455    1.089   1_545 S
C97    C515    1.344   1_545 S
C97    C467    1.495   1_545 S
N98    N100    1.287   .     D
N98    H99     1.029   .     S
N100   N111    1.383   .     S
N101   C103    1.458   .     S
N101   H102    1.031   .     S
C103   H105    1.102   .     S
C103   H104    1.104   .     S
C103   H106    1.104   .     S
C107   O109    1.396   .     S
C107   C277    1.495   .     S
C107   O288    1.224   .     S
O108   C467    1.224   1_545 S
O109   H110    1.012   .     S
N111   H112    1.010   .     S
N111   C113    1.441   .     S
C113   H115    1.107   .     S
C113   H114    1.111   .     S
C113   H116    1.096   .     S
C117   O118    1.223   .     D
C117   O119    1.398   .     S
O119   H120    1.014   .     S
O121   Zn127   1.966   .     S
O121   C3      1.288   1_655 S
O122   C123    1.298   .     A
O122   Zn128   1.975   .     S
C123   C155    1.404   .     S
O124   Zn127   1.982   .     S
O124   C6      1.310   1_655 S
O125   Zn128   1.969   .     S
O125   C126    1.297   .     A
C126   C149    1.446   .     S
Zn127  N160    2.046   .     S
Zn127  O131    1.969   .     S
Zn127  O129    1.975   .     S
Zn128  O132    1.982   .     S
Zn128  N158    2.046   .     S
Zn128  O130    1.966   .     S
O129   C133    1.298   .     A
O131   C134    1.314   .     A
C133   C157    1.415   .     S
C133   O10     1.291   1_655 S
C134   C137    1.453   .     S
C134   O12     1.296   1_655 S
C135   C144    1.410   .     A
C135   H136    1.081   .     S
C135   C688    1.404   .     S
C137   C148    1.409   .     A
C137   C147    1.380   .     A
C138   C149    1.403   .     A
C138   C139    1.385   .     A
C138   H151    1.080   .     S
C139   H153    1.083   .     S
C139   C680    1.389   .     S
C140   H152    1.083   .     S
C140   C679    1.389   1_554 S
C140   C681    1.408   1_554 S
C141   C142    1.399   .     A
C141   C680    1.408   .     S
C141   C683    1.391   .     S
C142   C149    1.417   .     A
C142   C146    1.421   .     A
C143   C147    1.384   .     A
C143   C681    1.391   1_554 S
C143   C684    1.413   1_554 S
C144   C145    1.411   .     A
C144   C683    1.413   .     S
C145   C177    1.488   .     S
C145   C146    1.406   .     A
C146   H154    1.083   .     S
C147   H150    1.078   .     S
C148   C675    1.404   1_554 S
C148   N41     1.426   1_655 S
C155   H336    1.089   .     S
C155   C277    1.344   .     S
H156   C515    1.089   1_545 S
C157   C395    1.344   1_645 S
C157   C527    1.495   1_545 S
N158   N160    1.287   .     D
N158   H159    1.029   .     S
N160   N171    1.383   .     S
N161   C163    1.458   .     S
N161   H162    1.031   .     S
C163   H165    1.102   .     S
C163   H164    1.104   .     S
C163   H166    1.104   .     S
C167   O169    1.396   .     S
C167   C337    1.495   .     S
C167   O348    1.224   .     S
O168   C527    1.224   1_545 S
O169   H170    1.012   .     S
N171   H172    1.010   .     S
N171   C173    1.441   .     S
C173   H175    1.107   .     S
C173   H174    1.111   .     S
C173   H176    1.096   .     S
C177   O178    1.223   .     D
C177   O179    1.398   .     S
O179   H180    1.014   .     S
O181   Zn187   1.966   .     S
O181   C243    1.288   .     S
O182   C183    1.298   .     A
O182   Zn188   1.975   .     S
C183   C215    1.404   .     S
C183   O301    1.288   1_455 S
O184   Zn187   1.982   .     S
O184   C246    1.310   .     S
O185   Zn188   1.969   .     S
O185   C186    1.297   .     A
C186   C209    1.446   .     S
C186   O304    1.310   1_455 S
Zn187  N220    2.046   .     S
Zn187  O191    1.969   .     S
Zn187  O189    1.975   .     S
Zn188  O192    1.982   .     S
Zn188  N218    2.046   .     S
Zn188  O190    1.966   .     S
O189   C193    1.298   .     A
O190   C313    1.291   1_455 S
O191   C194    1.314   .     A
O192   C314    1.296   1_455 S
C193   C217    1.415   .     S
C193   O250    1.291   .     S
C194   C197    1.453   .     S
C194   O252    1.296   .     S
C195   C204    1.410   .     A
C195   H196    1.081   .     S
C195   C748    1.404   .     S
C197   C208    1.409   .     A
C197   C207    1.380   .     A
C198   C209    1.403   .     A
C198   C199    1.385   .     A
C198   H211    1.080   .     S
C199   H213    1.083   .     S
C199   C740    1.389   .     S
C200   H212    1.083   .     S
C200   C739    1.389   1_554 S
C200   C741    1.408   1_554 S
C201   C202    1.399   .     A
C201   C740    1.408   .     S
C201   C743    1.391   .     S
C202   C209    1.417   .     A
C202   C206    1.421   .     A
C203   C207    1.384   .     A
C203   C741    1.391   1_554 S
C203   C744    1.413   1_554 S
C204   C205    1.411   .     A
C204   C743    1.413   .     S
C205   C237    1.488   .     S
C205   C206    1.406   .     A
C206   H214    1.083   .     S
C207   H210    1.078   .     S
C208   C735    1.404   1_554 S
C208   N281    1.426   .     S
C215   H396    1.089   .     S
C215   C517    1.344   1_455 S
N218   N220    1.287   .     D
N218   H219    1.029   .     S
N220   N231    1.383   .     S
N221   C223    1.458   .     S
N221   H222    1.031   .     S
N221   C328    1.426   1_455 S
C223   H225    1.102   .     S
C223   H224    1.104   .     S
C223   H226    1.104   .     S
C227   O229    1.396   .     S
C227   C397    1.495   .     S
C227   O408    1.224   .     S
O229   H230    1.012   .     S
N231   H232    1.010   .     S
N231   C233    1.441   .     S
C233   H235    1.107   .     S
C233   H234    1.111   .     S
C233   H236    1.096   .     S
C237   O238    1.223   .     D
C237   O239    1.398   .     S
O239   H240    1.014   .     S
O241   Zn247   1.966   .     S
O241   C303    1.288   .     S
O242   C243    1.298   .     A
O242   Zn248   1.975   .     S
C243   C275    1.404   .     S
O244   Zn247   1.982   .     S
O244   C306    1.310   .     S
O245   Zn248   1.969   .     S
O245   C246    1.297   .     A
C246   C269    1.446   .     S
Zn247  N280    2.046   .     S
Zn247  O251    1.969   .     S
Zn247  O249    1.975   .     S
Zn248  O252    1.982   .     S
Zn248  N278    2.046   .     S
Zn248  O250    1.966   .     S
O249   C253    1.298   .     A
O251   C254    1.314   .     A
C253   C277    1.415   .     S
C253   O310    1.291   .     S
C254   C257    1.453   .     S
C254   O312    1.296   .     S
C255   C264    1.410   .     A
C255   H256    1.081   .     S
C255   C808    1.404   .     S
C257   C268    1.409   .     A
C257   C267    1.380   .     A
C258   C269    1.403   .     A
C258   C259    1.385   .     A
C258   H271    1.080   .     S
C259   H273    1.083   .     S
C259   C800    1.389   .     S
C260   H272    1.083   .     S
C260   C799    1.389   1_554 S
C260   C801    1.408   1_554 S
C261   C262    1.399   .     A
C261   C800    1.408   .     S
C261   C803    1.391   .     S
C262   C269    1.417   .     A
C262   C266    1.421   .     A
C263   C267    1.384   .     A
C263   C801    1.391   1_554 S
C263   C804    1.413   1_554 S
C264   C265    1.411   .     A
C264   C803    1.413   .     S
C265   C297    1.488   .     S
C265   C266    1.406   .     A
C266   H274    1.083   .     S
C267   H270    1.078   .     S
C268   C795    1.404   1_554 S
C268   N341    1.426   .     S
C275   H456    1.089   .     S
C275   C397    1.344   .     S
N278   N280    1.287   .     D
N278   H279    1.029   .     S
N280   N291    1.383   .     S
N281   C283    1.458   .     S
N281   H282    1.031   .     S
C283   H285    1.102   .     S
C283   H284    1.104   .     S
C283   H286    1.104   .     S
C287   O289    1.396   .     S
C287   C457    1.495   .     S
C287   O468    1.224   .     S
O289   H290    1.012   .     S
N291   H292    1.010   .     S
N291   C293    1.441   .     S
C293   H295    1.107   .     S
C293   H294    1.111   .     S
C293   H296    1.096   .     S
C297   O298    1.223   .     D
C297   O299    1.398   .     S
O299   H300    1.014   .     S
O301   Zn307   1.966   .     S
O301   C183    1.288   1_655 S
O302   C303    1.298   .     A
O302   Zn308   1.975   .     S
C303   C335    1.404   .     S
O304   Zn307   1.982   .     S
O304   C186    1.310   1_655 S
O305   Zn308   1.969   .     S
O305   C306    1.297   .     A
C306   C329    1.446   .     S
Zn307  N340    2.046   .     S
Zn307  O311    1.969   .     S
Zn307  O309    1.975   .     S
Zn308  O312    1.982   .     S
Zn308  N338    2.046   .     S
Zn308  O310    1.966   .     S
O309   C313    1.298   .     A
O311   C314    1.314   .     A
C313   C337    1.415   .     S
C313   O190    1.291   1_655 S
C314   C317    1.453   .     S
C314   O192    1.296   1_655 S
C315   C324    1.410   .     A
C315   H316    1.081   .     S
C315   C868    1.404   .     S
C317   C328    1.409   .     A
C317   C327    1.380   .     A
C318   C329    1.403   .     A
C318   C319    1.385   .     A
C318   H331    1.080   .     S
C319   H333    1.083   .     S
C319   C860    1.389   .     S
C320   H332    1.083   .     S
C320   C859    1.389   1_554 S
C320   C861    1.408   1_554 S
C321   C322    1.399   .     A
C321   C860    1.408   .     S
C321   C863    1.391   .     S
C322   C329    1.417   .     A
C322   C326    1.421   .     A
C323   C327    1.384   .     A
C323   C861    1.391   1_554 S
C323   C864    1.413   1_554 S
C324   C325    1.411   .     A
C324   C863    1.413   .     S
C325   C357    1.488   .     S
C325   C326    1.406   .     A
C326   H334    1.083   .     S
C327   H330    1.078   .     S
C328   C855    1.404   1_554 S
C328   N221    1.426   1_655 S
C335   H516    1.089   .     S
C335   C457    1.344   .     S
C337   C35     1.344   1_655 S
N338   N340    1.287   .     D
N338   H339    1.029   .     S
N340   N351    1.383   .     S
N341   C343    1.458   .     S
N341   H342    1.031   .     S
C343   H345    1.102   .     S
C343   H344    1.104   .     S
C343   H346    1.104   .     S
C347   O349    1.396   .     S
C347   C517    1.495   .     S
C347   O528    1.224   .     S
O349   H350    1.012   .     S
N351   H352    1.010   .     S
N351   C353    1.441   .     S
C353   H355    1.107   .     S
C353   H354    1.111   .     S
C353   H356    1.096   .     S
C357   O358    1.223   .     D
C357   O359    1.398   .     S
O359   H360    1.014   .     S
O361   Zn367   1.966   .     S
O361   C423    1.288   .     S
O362   C363    1.298   .     A
O362   Zn368   1.975   .     S
C363   C395    1.404   .     S
C363   O481    1.288   1_455 S
O364   Zn367   1.982   .     S
O364   C426    1.310   .     S
O365   Zn368   1.969   .     S
O365   C366    1.297   .     A
C366   C389    1.446   .     S
C366   O484    1.310   1_455 S
Zn367  N400    2.046   .     S
Zn367  O371    1.969   .     S
Zn367  O369    1.975   .     S
Zn368  O372    1.982   .     S
Zn368  N398    2.046   .     S
Zn368  O370    1.966   .     S
O369   C373    1.298   .     A
O370   C493    1.291   1_455 S
O371   C374    1.314   .     A
O372   C494    1.296   1_455 S
C373   C397    1.415   .     S
C373   O430    1.291   .     S
C374   C377    1.453   .     S
C374   O432    1.296   .     S
C375   C384    1.410   .     A
C375   H376    1.081   .     S
C375   C928    1.404   .     S
C377   C388    1.409   .     A
C377   C387    1.380   .     A
C378   C389    1.403   .     A
C378   C379    1.385   .     A
C378   H391    1.080   .     S
C379   H393    1.083   .     S
C379   C920    1.389   .     S
C380   H392    1.083   .     S
C380   C919    1.389   1_554 S
C380   C921    1.408   1_554 S
C381   C382    1.399   .     A
C381   C920    1.408   .     S
C381   C923    1.391   .     S
C382   C389    1.417   .     A
C382   C386    1.421   .     A
C383   C387    1.384   .     A
C383   C921    1.391   1_554 S
C383   C924    1.413   1_554 S
C384   C385    1.411   .     A
C384   C923    1.413   .     S
C385   C417    1.488   .     S
C385   C386    1.406   .     A
C386   H394    1.083   .     S
C387   H390    1.078   .     S
C388   C915    1.404   1_554 S
C388   N461    1.426   .     S
C395   H36     1.089   1_565 S
C395   C157    1.344   1_465 S
N398   N400    1.287   .     D
N398   H399    1.029   .     S
N400   N411    1.383   .     S
N401   C403    1.458   .     S
N401   H402    1.031   .     S
N401   C508    1.426   1_455 S
C403   H405    1.102   .     S
C403   H404    1.104   .     S
C403   H406    1.104   .     S
C407   O409    1.396   .     S
C407   C37     1.495   1_565 S
C407   O48     1.224   1_565 S
O409   H410    1.012   .     S
N411   H412    1.010   .     S
N411   C413    1.441   .     S
C413   H415    1.107   .     S
C413   H414    1.111   .     S
C413   H416    1.096   .     S
C417   O418    1.223   .     D
C417   O419    1.398   .     S
O419   H420    1.014   .     S
O421   Zn427   1.966   .     S
O421   C483    1.288   .     S
O422   C423    1.298   .     A
O422   Zn428   1.975   .     S
C423   C455    1.404   .     S
O424   Zn427   1.982   .     S
O424   C486    1.310   .     S
O425   Zn428   1.969   .     S
O425   C426    1.297   .     A
C426   C449    1.446   .     S
Zn427  N460    2.046   .     S
Zn427  O431    1.969   .     S
Zn427  O429    1.975   .     S
Zn428  O432    1.982   .     S
Zn428  N458    2.046   .     S
Zn428  O430    1.966   .     S
O429   C433    1.298   .     A
O431   C434    1.314   .     A
C433   C457    1.415   .     S
C433   O490    1.291   .     S
C434   C437    1.453   .     S
C434   O492    1.296   .     S
C435   C444    1.410   .     A
C435   H436    1.081   .     S
C435   C988    1.404   .     S
C437   C448    1.409   .     A
C437   C447    1.380   .     A
C438   C449    1.403   .     A
C438   C439    1.385   .     A
C438   H451    1.080   .     S
C439   H453    1.083   .     S
C439   C980    1.389   .     S
C440   H452    1.083   .     S
C440   C979    1.389   1_554 S
C440   C981    1.408   1_554 S
C441   C442    1.399   .     A
C441   C980    1.408   .     S
C441   C983    1.391   .     S
C442   C449    1.417   .     A
C442   C446    1.421   .     A
C443   C447    1.384   .     A
C443   C981    1.391   1_554 S
C443   C984    1.413   1_554 S
C444   C445    1.411   .     A
C444   C983    1.413   .     S
C445   C477    1.488   .     S
C445   C446    1.406   .     A
C446   H454    1.083   .     S
C447   H450    1.078   .     S
C448   C975    1.404   1_554 S
C448   N521    1.426   .     S
C455   H96     1.089   1_565 S
C455   C37     1.344   1_565 S
N458   N460    1.287   .     D
N458   H459    1.029   .     S
N460   N471    1.383   .     S
N461   C463    1.458   .     S
N461   H462    1.031   .     S
C463   H465    1.102   .     S
C463   H464    1.104   .     S
C463   H466    1.104   .     S
C467   O469    1.396   .     S
C467   C97     1.495   1_565 S
C467   O108    1.224   1_565 S
O469   H470    1.012   .     S
N471   H472    1.010   .     S
N471   C473    1.441   .     S
C473   H475    1.107   .     S
C473   H474    1.111   .     S
C473   H476    1.096   .     S
C477   O478    1.223   .     D
C477   O479    1.398   .     S
O479   H480    1.014   .     S
O481   Zn487   1.966   .     S
O481   C363    1.288   1_655 S
O482   C483    1.298   .     A
O482   Zn488   1.975   .     S
C483   C515    1.404   .     S
O484   Zn487   1.982   .     S
O484   C366    1.310   1_655 S
O485   Zn488   1.969   .     S
O485   C486    1.297   .     A
C486   C509    1.446   .     S
Zn487  N520    2.046   .     S
Zn487  O491    1.969   .     S
Zn487  O489    1.975   .     S
Zn488  O492    1.982   .     S
Zn488  N518    2.046   .     S
Zn488  O490    1.966   .     S
O489   C493    1.298   .     A
O491   C494    1.314   .     A
C493   C517    1.415   .     S
C493   O370    1.291   1_655 S
C494   C497    1.453   .     S
C494   O372    1.296   1_655 S
C495   C504    1.410   .     A
C495   H496    1.081   .     S
C495   C1048   1.404   .     S
C497   C508    1.409   .     A
C497   C507    1.380   .     A
C498   C509    1.403   .     A
C498   C499    1.385   .     A
C498   H511    1.080   .     S
C499   H513    1.083   .     S
C499   C1040   1.389   .     S
C500   H512    1.083   .     S
C500   C1039   1.389   1_554 S
C500   C1041   1.408   1_554 S
C501   C502    1.399   .     A
C501   C1040   1.408   .     S
C501   C1043   1.391   .     S
C502   C509    1.417   .     A
C502   C506    1.421   .     A
C503   C507    1.384   .     A
C503   C1041   1.391   1_554 S
C503   C1044   1.413   1_554 S
C504   C505    1.411   .     A
C504   C1043   1.413   .     S
C505   C537    1.488   .     S
C505   C506    1.406   .     A
C506   H514    1.083   .     S
C507   H510    1.078   .     S
C508   C1035   1.404   1_554 S
C508   N401    1.426   1_655 S
C515   H156    1.089   1_565 S
C515   C97     1.344   1_565 S
C517   C215    1.344   1_655 S
N518   N520    1.287   .     D
N518   H519    1.029   .     S
N520   N531    1.383   .     S
N521   C523    1.458   .     S
N521   H522    1.031   .     S
C523   H525    1.102   .     S
C523   H524    1.104   .     S
C523   H526    1.104   .     S
C527   O529    1.396   .     S
C527   C157    1.495   1_565 S
C527   O168    1.224   1_565 S
O529   H530    1.012   .     S
N531   H532    1.010   .     S
N531   C533    1.441   .     S
C533   H535    1.107   .     S
C533   H534    1.111   .     S
C533   H536    1.096   .     S
C537   O538    1.223   .     D
C537   O539    1.398   .     S
O539   H540    1.014   .     S
O541   Zn547   1.966   .     S
O541   C603    1.288   .     S
O542   C543    1.298   .     A
O542   Zn548   1.975   .     S
C543   C575    1.404   .     S
C543   O661    1.288   1_455 S
O544   Zn547   1.982   .     S
O544   C606    1.310   .     S
O545   Zn548   1.969   .     S
O545   C546    1.297   .     A
C546   C569    1.446   .     S
C546   O664    1.310   1_455 S
Zn547  N580    2.046   .     S
Zn547  O551    1.969   .     S
Zn547  O549    1.975   .     S
Zn548  O552    1.982   .     S
Zn548  N578    2.046   .     S
Zn548  O550    1.966   .     S
O549   C553    1.298   .     A
O550   C673    1.291   1_455 S
O551   C554    1.314   .     A
O552   C674    1.296   1_455 S
C553   C577    1.415   .     S
C553   O610    1.291   .     S
C554   C557    1.453   .     S
C554   O612    1.296   .     S
C555   C564    1.410   .     A
C555   H556    1.081   .     S
C555   C28     1.404   1_556 S
C557   C568    1.409   .     A
C557   C567    1.380   .     A
C558   C569    1.403   .     A
C558   C559    1.385   .     A
C558   H571    1.080   .     S
C559   H573    1.083   .     S
C559   C20     1.389   1_556 S
C560   H572    1.083   .     S
C561   C562    1.399   .     A
C561   C20     1.408   1_556 S
C561   C23     1.391   1_556 S
C562   C569    1.417   .     A
C562   C566    1.421   .     A
C563   C567    1.384   .     A
C564   C565    1.411   .     A
C564   C23     1.413   1_556 S
C565   C597    1.488   .     S
C565   C566    1.406   .     A
C566   H574    1.083   .     S
C567   H570    1.078   .     S
C568   N641    1.426   .     S
C575   H756    1.089   .     S
C575   C877    1.344   1_455 S
H576   C935    1.089   1_545 S
C577   C995    1.344   1_545 S
C577   C947    1.495   1_545 S
N578   N580    1.287   .     D
N578   H579    1.029   .     S
N580   N591    1.383   .     S
N581   C583    1.458   .     S
N581   H582    1.031   .     S
N581   C688    1.426   1_455 S
C583   H585    1.102   .     S
C583   H584    1.104   .     S
C583   H586    1.104   .     S
C587   O589    1.396   .     S
C587   C757    1.495   .     S
C587   O768    1.224   .     S
O588   C947    1.224   1_545 S
O589   H590    1.012   .     S
N591   H592    1.010   .     S
N591   C593    1.441   .     S
C593   H595    1.107   .     S
C593   H594    1.111   .     S
C593   H596    1.096   .     S
C597   O598    1.223   .     D
C597   O599    1.398   .     S
O599   H600    1.014   .     S
O601   Zn607   1.966   .     S
O601   C663    1.288   .     S
O602   C603    1.298   .     A
O602   Zn608   1.975   .     S
C603   C635    1.404   .     S
O604   Zn607   1.982   .     S
O604   C666    1.310   .     S
O605   Zn608   1.969   .     S
O605   C606    1.297   .     A
C606   C629    1.446   .     S
Zn607  N640    2.046   .     S
Zn607  O611    1.969   .     S
Zn607  O609    1.975   .     S
Zn608  O612    1.982   .     S
Zn608  N638    2.046   .     S
Zn608  O610    1.966   .     S
O609   C613    1.298   .     A
O611   C614    1.314   .     A
C613   C637    1.415   .     S
C613   O670    1.291   .     S
C614   C617    1.453   .     S
C614   O672    1.296   .     S
C615   C624    1.410   .     A
C615   H616    1.081   .     S
C615   C88     1.404   1_556 S
C617   C628    1.409   .     A
C617   C627    1.380   .     A
C618   C629    1.403   .     A
C618   C619    1.385   .     A
C618   H631    1.080   .     S
C619   H633    1.083   .     S
C619   C80     1.389   1_556 S
C620   H632    1.083   .     S
C621   C622    1.399   .     A
C621   C80     1.408   1_556 S
C621   C83     1.391   1_556 S
C622   C629    1.417   .     A
C622   C626    1.421   .     A
C623   C627    1.384   .     A
C624   C625    1.411   .     A
C624   C83     1.413   1_556 S
C625   C657    1.488   .     S
C625   C626    1.406   .     A
C626   H634    1.083   .     S
C627   H630    1.078   .     S
C628   N701    1.426   .     S
C635   H816    1.089   .     S
C635   C757    1.344   .     S
H636   C995    1.089   1_545 S
C637   C1055   1.344   1_545 S
C637   C1007   1.495   1_545 S
N638   N640    1.287   .     D
N638   H639    1.029   .     S
N640   N651    1.383   .     S
N641   C643    1.458   .     S
N641   H642    1.031   .     S
C643   H645    1.102   .     S
C643   H644    1.104   .     S
C643   H646    1.104   .     S
C647   O649    1.396   .     S
C647   C817    1.495   .     S
C647   O828    1.224   .     S
O648   C1007   1.224   1_545 S
O649   H650    1.012   .     S
N651   H652    1.010   .     S
N651   C653    1.441   .     S
C653   H655    1.107   .     S
C653   H654    1.111   .     S
C653   H656    1.096   .     S
C657   O658    1.223   .     D
C657   O659    1.398   .     S
O659   H660    1.014   .     S
O661   Zn667   1.966   .     S
O661   C543    1.288   1_655 S
O662   C663    1.298   .     A
O662   Zn668   1.975   .     S
C663   C695    1.404   .     S
O664   Zn667   1.982   .     S
O664   C546    1.310   1_655 S
O665   Zn668   1.969   .     S
O665   C666    1.297   .     A
C666   C689    1.446   .     S
Zn667  N700    2.046   .     S
Zn667  O671    1.969   .     S
Zn667  O669    1.975   .     S
Zn668  O672    1.982   .     S
Zn668  N698    2.046   .     S
Zn668  O670    1.966   .     S
O669   C673    1.298   .     A
O671   C674    1.314   .     A
C673   C697    1.415   .     S
C673   O550    1.291   1_655 S
C674   C677    1.453   .     S
C674   O552    1.296   1_655 S
C675   C684    1.410   .     A
C675   H676    1.081   .     S
C675   C148    1.404   1_556 S
C677   C688    1.409   .     A
C677   C687    1.380   .     A
C678   C689    1.403   .     A
C678   C679    1.385   .     A
C678   H691    1.080   .     S
C679   H693    1.083   .     S
C679   C140    1.389   1_556 S
C680   H692    1.083   .     S
C681   C682    1.399   .     A
C681   C140    1.408   1_556 S
C681   C143    1.391   1_556 S
C682   C689    1.417   .     A
C682   C686    1.421   .     A
C683   C687    1.384   .     A
C684   C685    1.411   .     A
C684   C143    1.413   1_556 S
C685   C717    1.488   .     S
C685   C686    1.406   .     A
C686   H694    1.083   .     S
C687   H690    1.078   .     S
C688   N581    1.426   1_655 S
C695   H876    1.089   .     S
C695   C817    1.344   .     S
H696   C1055   1.089   1_545 S
C697   C935    1.344   1_645 S
C697   C1067   1.495   1_545 S
N698   N700    1.287   .     D
N698   H699    1.029   .     S
N700   N711    1.383   .     S
N701   C703    1.458   .     S
N701   H702    1.031   .     S
C703   H705    1.102   .     S
C703   H704    1.104   .     S
C703   H706    1.104   .     S
C707   O709    1.396   .     S
C707   C877    1.495   .     S
C707   O888    1.224   .     S
O708   C1067   1.224   1_545 S
O709   H710    1.012   .     S
N711   H712    1.010   .     S
N711   C713    1.441   .     S
C713   H715    1.107   .     S
C713   H714    1.111   .     S
C713   H716    1.096   .     S
C717   O718    1.223   .     D
C717   O719    1.398   .     S
O719   H720    1.014   .     S
O721   Zn727   1.966   .     S
O721   C783    1.288   .     S
O722   C723    1.298   .     A
O722   Zn728   1.975   .     S
C723   C755    1.404   .     S
C723   O841    1.288   1_455 S
O724   Zn727   1.982   .     S
O724   C786    1.310   .     S
O725   Zn728   1.969   .     S
O725   C726    1.297   .     A
C726   C749    1.446   .     S
C726   O844    1.310   1_455 S
Zn727  N760    2.046   .     S
Zn727  O731    1.969   .     S
Zn727  O729    1.975   .     S
Zn728  O732    1.982   .     S
Zn728  N758    2.046   .     S
Zn728  O730    1.966   .     S
O729   C733    1.298   .     A
O730   C853    1.291   1_455 S
O731   C734    1.314   .     A
O732   C854    1.296   1_455 S
C733   C757    1.415   .     S
C733   O790    1.291   .     S
C734   C737    1.453   .     S
C734   O792    1.296   .     S
C735   C744    1.410   .     A
C735   H736    1.081   .     S
C735   C208    1.404   1_556 S
C737   C748    1.409   .     A
C737   C747    1.380   .     A
C738   C749    1.403   .     A
C738   C739    1.385   .     A
C738   H751    1.080   .     S
C739   H753    1.083   .     S
C739   C200    1.389   1_556 S
C740   H752    1.083   .     S
C741   C742    1.399   .     A
C741   C200    1.408   1_556 S
C741   C203    1.391   1_556 S
C742   C749    1.417   .     A
C742   C746    1.421   .     A
C743   C747    1.384   .     A
C744   C745    1.411   .     A
C744   C203    1.413   1_556 S
C745   C777    1.488   .     S
C745   C746    1.406   .     A
C746   H754    1.083   .     S
C747   H750    1.078   .     S
C748   N821    1.426   .     S
C755   H936    1.089   .     S
C755   C1057   1.344   1_455 S
N758   N760    1.287   .     D
N758   H759    1.029   .     S
N760   N771    1.383   .     S
N761   C763    1.458   .     S
N761   H762    1.031   .     S
N761   C868    1.426   1_455 S
C763   H765    1.102   .     S
C763   H764    1.104   .     S
C763   H766    1.104   .     S
C767   O769    1.396   .     S
C767   C937    1.495   .     S
C767   O948    1.224   .     S
O769   H770    1.012   .     S
N771   H772    1.010   .     S
N771   C773    1.441   .     S
C773   H775    1.107   .     S
C773   H774    1.111   .     S
C773   H776    1.096   .     S
C777   O778    1.223   .     D
C777   O779    1.398   .     S
O779   H780    1.014   .     S
O781   Zn787   1.966   .     S
O781   C843    1.288   .     S
O782   C783    1.298   .     A
O782   Zn788   1.975   .     S
C783   C815    1.404   .     S
O784   Zn787   1.982   .     S
O784   C846    1.310   .     S
O785   Zn788   1.969   .     S
O785   C786    1.297   .     A
C786   C809    1.446   .     S
Zn787  N820    2.046   .     S
Zn787  O791    1.969   .     S
Zn787  O789    1.975   .     S
Zn788  O792    1.982   .     S
Zn788  N818    2.046   .     S
Zn788  O790    1.966   .     S
O789   C793    1.298   .     A
O791   C794    1.314   .     A
C793   C817    1.415   .     S
C793   O850    1.291   .     S
C794   C797    1.453   .     S
C794   O852    1.296   .     S
C795   C804    1.410   .     A
C795   H796    1.081   .     S
C795   C268    1.404   1_556 S
C797   C808    1.409   .     A
C797   C807    1.380   .     A
C798   C809    1.403   .     A
C798   C799    1.385   .     A
C798   H811    1.080   .     S
C799   H813    1.083   .     S
C799   C260    1.389   1_556 S
C800   H812    1.083   .     S
C801   C802    1.399   .     A
C801   C260    1.408   1_556 S
C801   C263    1.391   1_556 S
C802   C809    1.417   .     A
C802   C806    1.421   .     A
C803   C807    1.384   .     A
C804   C805    1.411   .     A
C804   C263    1.413   1_556 S
C805   C837    1.488   .     S
C805   C806    1.406   .     A
C806   H814    1.083   .     S
C807   H810    1.078   .     S
C808   N881    1.426   .     S
C815   H996    1.089   .     S
C815   C937    1.344   .     S
N818   N820    1.287   .     D
N818   H819    1.029   .     S
N820   N831    1.383   .     S
N821   C823    1.458   .     S
N821   H822    1.031   .     S
C823   H825    1.102   .     S
C823   H824    1.104   .     S
C823   H826    1.104   .     S
C827   O829    1.396   .     S
C827   C997    1.495   .     S
C827   O1008   1.224   .     S
O829   H830    1.012   .     S
N831   H832    1.010   .     S
N831   C833    1.441   .     S
C833   H835    1.107   .     S
C833   H834    1.111   .     S
C833   H836    1.096   .     S
C837   O838    1.223   .     D
C837   O839    1.398   .     S
O839   H840    1.014   .     S
O841   Zn847   1.966   .     S
O841   C723    1.288   1_655 S
O842   C843    1.298   .     A
O842   Zn848   1.975   .     S
C843   C875    1.404   .     S
O844   Zn847   1.982   .     S
O844   C726    1.310   1_655 S
O845   Zn848   1.969   .     S
O845   C846    1.297   .     A
C846   C869    1.446   .     S
Zn847  N880    2.046   .     S
Zn847  O851    1.969   .     S
Zn847  O849    1.975   .     S
Zn848  O852    1.982   .     S
Zn848  N878    2.046   .     S
Zn848  O850    1.966   .     S
O849   C853    1.298   .     A
O851   C854    1.314   .     A
C853   C877    1.415   .     S
C853   O730    1.291   1_655 S
C854   C857    1.453   .     S
C854   O732    1.296   1_655 S
C855   C864    1.410   .     A
C855   H856    1.081   .     S
C855   C328    1.404   1_556 S
C857   C868    1.409   .     A
C857   C867    1.380   .     A
C858   C869    1.403   .     A
C858   C859    1.385   .     A
C858   H871    1.080   .     S
C859   H873    1.083   .     S
C859   C320    1.389   1_556 S
C860   H872    1.083   .     S
C861   C862    1.399   .     A
C861   C320    1.408   1_556 S
C861   C323    1.391   1_556 S
C862   C869    1.417   .     A
C862   C866    1.421   .     A
C863   C867    1.384   .     A
C864   C865    1.411   .     A
C864   C323    1.413   1_556 S
C865   C897    1.488   .     S
C865   C866    1.406   .     A
C866   H874    1.083   .     S
C867   H870    1.078   .     S
C868   N761    1.426   1_655 S
C875   H1056   1.089   .     S
C875   C997    1.344   .     S
C877   C575    1.344   1_655 S
N878   N880    1.287   .     D
N878   H879    1.029   .     S
N880   N891    1.383   .     S
N881   C883    1.458   .     S
N881   H882    1.031   .     S
C883   H885    1.102   .     S
C883   H884    1.104   .     S
C883   H886    1.104   .     S
C887   O889    1.396   .     S
C887   C1057   1.495   .     S
C887   O1068   1.224   .     S
O889   H890    1.012   .     S
N891   H892    1.010   .     S
N891   C893    1.441   .     S
C893   H895    1.107   .     S
C893   H894    1.111   .     S
C893   H896    1.096   .     S
C897   O898    1.223   .     D
C897   O899    1.398   .     S
O899   H900    1.014   .     S
O901   Zn907   1.966   .     S
O901   C963    1.288   .     S
O902   C903    1.298   .     A
O902   Zn908   1.975   .     S
C903   C935    1.404   .     S
C903   O1021   1.288   1_455 S
O904   Zn907   1.982   .     S
O904   C966    1.310   .     S
O905   Zn908   1.969   .     S
O905   C906    1.297   .     A
C906   C929    1.446   .     S
C906   O1024   1.310   1_455 S
Zn907  N940    2.046   .     S
Zn907  O911    1.969   .     S
Zn907  O909    1.975   .     S
Zn908  O912    1.982   .     S
Zn908  N938    2.046   .     S
Zn908  O910    1.966   .     S
O909   C913    1.298   .     A
O910   C1033   1.291   1_455 S
O911   C914    1.314   .     A
O912   C1034   1.296   1_455 S
C913   C937    1.415   .     S
C913   O970    1.291   .     S
C914   C917    1.453   .     S
C914   O972    1.296   .     S
C915   C924    1.410   .     A
C915   H916    1.081   .     S
C915   C388    1.404   1_556 S
C917   C928    1.409   .     A
C917   C927    1.380   .     A
C918   C929    1.403   .     A
C918   C919    1.385   .     A
C918   H931    1.080   .     S
C919   H933    1.083   .     S
C919   C380    1.389   1_556 S
C920   H932    1.083   .     S
C921   C922    1.399   .     A
C921   C380    1.408   1_556 S
C921   C383    1.391   1_556 S
C922   C929    1.417   .     A
C922   C926    1.421   .     A
C923   C927    1.384   .     A
C924   C925    1.411   .     A
C924   C383    1.413   1_556 S
C925   C957    1.488   .     S
C925   C926    1.406   .     A
C926   H934    1.083   .     S
C927   H930    1.078   .     S
C928   N1001   1.426   .     S
C935   H576    1.089   1_565 S
C935   C697    1.344   1_465 S
N938   N940    1.287   .     D
N938   H939    1.029   .     S
N940   N951    1.383   .     S
N941   C943    1.458   .     S
N941   H942    1.031   .     S
N941   C1048   1.426   1_455 S
C943   H945    1.102   .     S
C943   H944    1.104   .     S
C943   H946    1.104   .     S
C947   O949    1.396   .     S
C947   C577    1.495   1_565 S
C947   O588    1.224   1_565 S
O949   H950    1.012   .     S
N951   H952    1.010   .     S
N951   C953    1.441   .     S
C953   H955    1.107   .     S
C953   H954    1.111   .     S
C953   H956    1.096   .     S
C957   O958    1.223   .     D
C957   O959    1.398   .     S
O959   H960    1.014   .     S
O961   Zn967   1.966   .     S
O961   C1023   1.288   .     S
O962   C963    1.298   .     A
O962   Zn968   1.975   .     S
C963   C995    1.404   .     S
O964   Zn967   1.982   .     S
O964   C1026   1.310   .     S
O965   Zn968   1.969   .     S
O965   C966    1.297   .     A
C966   C989    1.446   .     S
Zn967  N1000   2.046   .     S
Zn967  O971    1.969   .     S
Zn967  O969    1.975   .     S
Zn968  O972    1.982   .     S
Zn968  N998    2.046   .     S
Zn968  O970    1.966   .     S
O969   C973    1.298   .     A
O971   C974    1.314   .     A
C973   C997    1.415   .     S
C973   O1030   1.291   .     S
C974   C977    1.453   .     S
C974   O1032   1.296   .     S
C975   C984    1.410   .     A
C975   H976    1.081   .     S
C975   C448    1.404   1_556 S
C977   C988    1.409   .     A
C977   C987    1.380   .     A
C978   C989    1.403   .     A
C978   C979    1.385   .     A
C978   H991    1.080   .     S
C979   H993    1.083   .     S
C979   C440    1.389   1_556 S
C980   H992    1.083   .     S
C981   C982    1.399   .     A
C981   C440    1.408   1_556 S
C981   C443    1.391   1_556 S
C982   C989    1.417   .     A
C982   C986    1.421   .     A
C983   C987    1.384   .     A
C984   C985    1.411   .     A
C984   C443    1.413   1_556 S
C985   C1017   1.488   .     S
C985   C986    1.406   .     A
C986   H994    1.083   .     S
C987   H990    1.078   .     S
C988   N1061   1.426   .     S
C995   H636    1.089   1_565 S
C995   C577    1.344   1_565 S
N998   N1000   1.287   .     D
N998   H999    1.029   .     S
N1000  N1011   1.383   .     S
N1001  C1003   1.458   .     S
N1001  H1002   1.031   .     S
C1003  H1005   1.102   .     S
C1003  H1004   1.104   .     S
C1003  H1006   1.104   .     S
C1007  O1009   1.396   .     S
C1007  C637    1.495   1_565 S
C1007  O648    1.224   1_565 S
O1009  H1010   1.012   .     S
N1011  H1012   1.010   .     S
N1011  C1013   1.441   .     S
C1013  H1015   1.107   .     S
C1013  H1014   1.111   .     S
C1013  H1016   1.096   .     S
C1017  O1018   1.223   .     D
C1017  O1019   1.398   .     S
O1019  H1020   1.014   .     S
O1021  Zn1027  1.966   .     S
O1021  C903    1.288   1_655 S
O1022  C1023   1.298   .     A
O1022  Zn1028  1.975   .     S
C1023  C1055   1.404   .     S
O1024  Zn1027  1.982   .     S
O1024  C906    1.310   1_655 S
O1025  Zn1028  1.969   .     S
O1025  C1026   1.297   .     A
C1026  C1049   1.446   .     S
Zn1027 N1060   2.046   .     S
Zn1027 O1031   1.969   .     S
Zn1027 O1029   1.975   .     S
Zn1028 O1032   1.982   .     S
Zn1028 N1058   2.046   .     S
Zn1028 O1030   1.966   .     S
O1029  C1033   1.298   .     A
O1031  C1034   1.314   .     A
C1033  C1057   1.415   .     S
C1033  O910    1.291   1_655 S
C1034  C1037   1.453   .     S
C1034  O912    1.296   1_655 S
C1035  C1044   1.410   .     A
C1035  H1036   1.081   .     S
C1035  C508    1.404   1_556 S
C1037  C1048   1.409   .     A
C1037  C1047   1.380   .     A
C1038  C1049   1.403   .     A
C1038  C1039   1.385   .     A
C1038  H1051   1.080   .     S
C1039  H1053   1.083   .     S
C1039  C500    1.389   1_556 S
C1040  H1052   1.083   .     S
C1041  C1042   1.399   .     A
C1041  C500    1.408   1_556 S
C1041  C503    1.391   1_556 S
C1042  C1049   1.417   .     A
C1042  C1046   1.421   .     A
C1043  C1047   1.384   .     A
C1044  C1045   1.411   .     A
C1044  C503    1.413   1_556 S
C1045  C1077   1.488   .     S
C1045  C1046   1.406   .     A
C1046  H1054   1.083   .     S
C1047  H1050   1.078   .     S
C1048  N941    1.426   1_655 S
C1055  H696    1.089   1_565 S
C1055  C637    1.344   1_565 S
C1057  C755    1.344   1_655 S
N1058  N1060   1.287   .     D
N1058  H1059   1.029   .     S
N1060  N1071   1.383   .     S
N1061  C1063   1.458   .     S
N1061  H1062   1.031   .     S
C1063  H1065   1.102   .     S
C1063  H1064   1.104   .     S
C1063  H1066   1.104   .     S
C1067  O1069   1.396   .     S
C1067  C697    1.495   1_565 S
C1067  O708    1.224   1_565 S
O1069  H1070   1.012   .     S
N1071  H1072   1.010   .     S
N1071  C1073   1.441   .     S
C1073  H1075   1.107   .     S
C1073  H1074   1.111   .     S
C1073  H1076   1.096   .     S
C1077  O1078   1.223   .     D
C1077  O1079   1.398   .     S
O1079  H1080   1.014   .     S
