data_str_m3_o1_o17_pcu_sym.14
_audit_creation_date              2020-01-03
_audit_creation_method            'Materials Studio'
_symmetry_space_group_name_H-M    'P1'
_symmetry_Int_Tables_number       1
_symmetry_cell_setting            triclinic
loop_
_symmetry_equiv_pos_as_xyz
  x,y,z
_cell_length_a                    32.4194
_cell_length_b                    29.7306
_cell_length_c                    29.8166
_cell_angle_alpha                 90.7115
_cell_angle_beta                  91.8111
_cell_angle_gamma                 91.8765
loop_
_atom_site_label
_atom_site_type_symbol
_atom_site_fract_x
_atom_site_fract_y
_atom_site_fract_z
_atom_site_U_iso_or_equiv
_atom_site_adp_type
_atom_site_occupancy
O1     O     0.10559   0.20487   0.24999   0.00000  Uiso   1.00
O2     O     0.22774   0.12846   0.25000   0.00000  Uiso   1.00
O3     O     0.22774   0.20487   0.25000   0.00000  Uiso   1.00
O4     O     0.10559   0.12846   0.24999   0.00000  Uiso   1.00
C5     C     0.08672   0.16589   0.25129   0.00000  Uiso   1.00
C6     C     0.24661   0.16744   0.24872   0.00000  Uiso   1.00
O7     O     0.16666   0.20489   0.18392   0.00000  Uiso   1.00
O8     O     0.16667   0.12844   0.31607   0.00000  Uiso   1.00
O9     O     0.16667   0.20489   0.31607   0.00000  Uiso   1.00
O10    O     0.16666   0.12844   0.18392   0.00000  Uiso   1.00
C11    C     0.16619   0.16641   0.16366   0.00000  Uiso   1.00
C12    C     0.16715   0.16692   0.33633   0.00000  Uiso   1.00
Zn13   Zn    0.16667   0.21771   0.25000   0.00000  Uiso   1.00
Zn14   Zn    0.16667   0.11563   0.25000   0.00000  Uiso   1.00
C15    C     0.20607   0.16847   0.40824   0.00000  Uiso   1.00
C16    C     0.12727   0.16488   0.09176   0.00000  Uiso   1.00
C17    C     0.16825   0.16744   0.38403   0.00000  Uiso   1.00
C18    C     0.16509   0.16589   0.11597   0.00000  Uiso   1.00
C19    C     0.13061   0.16612   0.40493   0.00000  Uiso   1.00
C20    C     0.20273   0.16720   0.09507   0.00000  Uiso   1.00
C21    C     0.12972   0.16588   0.45117   0.00000  Uiso   1.00
C22    C     0.20362   0.16745   0.04882   0.00000  Uiso   1.00
C23    C     0.16721   0.16689   0.47659   0.00000  Uiso   1.00
C24    C     0.16613   0.16644   0.02341   0.00000  Uiso   1.00
C25    C     0.20572   0.16824   0.45521   0.00000  Uiso   1.00
C26    C     0.12761   0.16510   0.04479   0.00000  Uiso   1.00
C27    C     0.09183   0.16451   0.47220   0.00000  Uiso   1.00
C28    C     0.24151   0.16881   0.02779   0.00000  Uiso   1.00
C29    C     0.09070   0.16414   0.01863   0.00000  Uiso   1.00
C30    C     0.24264   0.16920   0.48137   0.00000  Uiso   1.00
H31    H     0.10200   0.16501   0.38494   0.00000  Uiso   1.00
H32    H     0.23133   0.16831   0.11506   0.00000  Uiso   1.00
H33    H     0.06301   0.16374   0.45270   0.00000  Uiso   1.00
H34    H     0.27033   0.16959   0.04730   0.00000  Uiso   1.00
H35    H     0.06076   0.16308   0.03375   0.00000  Uiso   1.00
H36    H     0.27257   0.17026   0.46625   0.00000  Uiso   1.00
C37    C     0.01913   0.12781   0.23433   0.00000  Uiso   1.00
C38    C     0.31420   0.20554   0.26567   0.00000  Uiso   1.00
C39    C     0.31010   0.13078   0.22938   0.00000  Uiso   1.00
C40    C     0.02324   0.20256   0.27064   0.00000  Uiso   1.00
C41    C     0.29086   0.16888   0.24645   0.00000  Uiso   1.00
C42    C     0.04247   0.16446   0.25356   0.00000  Uiso   1.00
C43    C     0.18873   0.02526   0.28206   0.00000  Uiso   1.00
C44    C     0.14460   0.30808   0.21794   0.00000  Uiso   1.00
C45    C     0.14546   0.02266   0.21724   0.00000  Uiso   1.00
C46    C     0.18788   0.31067   0.28275   0.00000  Uiso   1.00
N47    N     0.16667   0.28573   0.25000   0.00000  Uiso   1.00
N48    N     0.16667   0.04760   0.25000   0.00000  Uiso   1.00
C49    C     0.24462   0.16928   0.38471   0.00000  Uiso   1.00
N50    N     0.27538   0.16979   0.36602   0.00000  Uiso   1.00
C51    C     0.08871   0.16412   0.11529   0.00000  Uiso   1.00
N52    N     0.05796   0.16364   0.13397   0.00000  Uiso   1.00
N53    N     0.03793   0.08777   0.21863   0.00000  Uiso   1.00
O54    O     0.05093   0.05883   0.24781   0.00000  Uiso   1.00
O55    O     0.03143   0.07463   0.17715   0.00000  Uiso   1.00
N56    N     0.29541   0.24561   0.28128   0.00000  Uiso   1.00
O57    O     0.28240   0.27449   0.25203   0.00000  Uiso   1.00
O58    O     0.30194   0.25885   0.32274   0.00000  Uiso   1.00
N59    N     0.28676   0.09506   0.20631   0.00000  Uiso   1.00
O60    O     0.26526   0.10335   0.16994   0.00000  Uiso   1.00
O61    O     0.28681   0.05430   0.22176   0.00000  Uiso   1.00
N62    N     0.04658   0.23829   0.29371   0.00000  Uiso   1.00
O63    O     0.06807   0.23000   0.33009   0.00000  Uiso   1.00
O64    O     0.04658   0.27903   0.27822   0.00000  Uiso   1.00
C65    C     0.21443   0.05055   0.31441   0.00000  Uiso   1.00
N66    N     0.23539   0.07031   0.34045   0.00000  Uiso   1.00
C67    C     0.11890   0.28278   0.18559   0.00000  Uiso   1.00
N68    N     0.09793   0.26303   0.15956   0.00000  Uiso   1.00
C69    C     0.12610   0.04482   0.17980   0.00000  Uiso   1.00
N70    N     0.11098   0.06171   0.14893   0.00000  Uiso   1.00
C71    C     0.20724   0.28852   0.32020   0.00000  Uiso   1.00
N72    N     0.22237   0.27162   0.35106   0.00000  Uiso   1.00
O73    O     0.43892   0.20487   0.24999   0.00000  Uiso   1.00
O74    O     0.56108   0.12846   0.25000   0.00000  Uiso   1.00
O75    O     0.56108   0.20487   0.25000   0.00000  Uiso   1.00
O76    O     0.43892   0.12846   0.24999   0.00000  Uiso   1.00
C77    C     0.42006   0.16589   0.25129   0.00000  Uiso   1.00
C78    C     0.57994   0.16744   0.24872   0.00000  Uiso   1.00
O79    O     0.49999   0.20489   0.18392   0.00000  Uiso   1.00
O80    O     0.50001   0.12844   0.31607   0.00000  Uiso   1.00
O81    O     0.50001   0.20489   0.31607   0.00000  Uiso   1.00
O82    O     0.49999   0.12844   0.18392   0.00000  Uiso   1.00
C83    C     0.49952   0.16641   0.16366   0.00000  Uiso   1.00
C84    C     0.50048   0.16692   0.33633   0.00000  Uiso   1.00
Zn85   Zn    0.50000   0.21771   0.25000   0.00000  Uiso   1.00
Zn86   Zn    0.50000   0.11563   0.25000   0.00000  Uiso   1.00
C87    C     0.53940   0.16847   0.40824   0.00000  Uiso   1.00
C88    C     0.46060   0.16488   0.09176   0.00000  Uiso   1.00
C89    C     0.50158   0.16744   0.38403   0.00000  Uiso   1.00
C90    C     0.49842   0.16589   0.11597   0.00000  Uiso   1.00
C91    C     0.46394   0.16612   0.40493   0.00000  Uiso   1.00
C92    C     0.53606   0.16720   0.09507   0.00000  Uiso   1.00
C93    C     0.46305   0.16588   0.45117   0.00000  Uiso   1.00
C94    C     0.53695   0.16745   0.04882   0.00000  Uiso   1.00
C95    C     0.50055   0.16689   0.47659   0.00000  Uiso   1.00
C96    C     0.49946   0.16644   0.02341   0.00000  Uiso   1.00
C97    C     0.53906   0.16824   0.45521   0.00000  Uiso   1.00
C98    C     0.46095   0.16510   0.04479   0.00000  Uiso   1.00
C99    C     0.42516   0.16451   0.47220   0.00000  Uiso   1.00
C100   C     0.57484   0.16881   0.02779   0.00000  Uiso   1.00
C101   C     0.42403   0.16414   0.01863   0.00000  Uiso   1.00
C102   C     0.57597   0.16920   0.48137   0.00000  Uiso   1.00
H103   H     0.43534   0.16501   0.38494   0.00000  Uiso   1.00
H104   H     0.56467   0.16831   0.11506   0.00000  Uiso   1.00
H105   H     0.39635   0.16374   0.45270   0.00000  Uiso   1.00
H106   H     0.60366   0.16959   0.04730   0.00000  Uiso   1.00
H107   H     0.39410   0.16308   0.03375   0.00000  Uiso   1.00
H108   H     0.60591   0.17026   0.46625   0.00000  Uiso   1.00
C109   C     0.35247   0.12781   0.23433   0.00000  Uiso   1.00
C110   C     0.64754   0.20554   0.26567   0.00000  Uiso   1.00
C111   C     0.64343   0.13078   0.22938   0.00000  Uiso   1.00
C112   C     0.35657   0.20256   0.27064   0.00000  Uiso   1.00
C113   C     0.62420   0.16888   0.24645   0.00000  Uiso   1.00
C114   C     0.37581   0.16446   0.25356   0.00000  Uiso   1.00
C115   C     0.52206   0.02526   0.28206   0.00000  Uiso   1.00
C116   C     0.47793   0.30808   0.21794   0.00000  Uiso   1.00
C117   C     0.47879   0.02266   0.21724   0.00000  Uiso   1.00
C118   C     0.52121   0.31067   0.28275   0.00000  Uiso   1.00
N119   N     0.50000   0.28573   0.25000   0.00000  Uiso   1.00
N120   N     0.50000   0.04760   0.25000   0.00000  Uiso   1.00
C121   C     0.57796   0.16928   0.38471   0.00000  Uiso   1.00
N122   N     0.60871   0.16979   0.36602   0.00000  Uiso   1.00
C123   C     0.42205   0.16412   0.11529   0.00000  Uiso   1.00
N124   N     0.39129   0.16364   0.13397   0.00000  Uiso   1.00
N125   N     0.37126   0.08777   0.21863   0.00000  Uiso   1.00
O126   O     0.38426   0.05883   0.24781   0.00000  Uiso   1.00
O127   O     0.36476   0.07463   0.17715   0.00000  Uiso   1.00
N128   N     0.62875   0.24561   0.28128   0.00000  Uiso   1.00
O129   O     0.61573   0.27449   0.25203   0.00000  Uiso   1.00
O130   O     0.63527   0.25885   0.32274   0.00000  Uiso   1.00
N131   N     0.62009   0.09506   0.20631   0.00000  Uiso   1.00
O132   O     0.59859   0.10335   0.16994   0.00000  Uiso   1.00
O133   O     0.62015   0.05430   0.22176   0.00000  Uiso   1.00
N134   N     0.37991   0.23829   0.29371   0.00000  Uiso   1.00
O135   O     0.40140   0.23000   0.33009   0.00000  Uiso   1.00
O136   O     0.37992   0.27903   0.27822   0.00000  Uiso   1.00
C137   C     0.54776   0.05055   0.31441   0.00000  Uiso   1.00
N138   N     0.56872   0.07031   0.34045   0.00000  Uiso   1.00
C139   C     0.45224   0.28278   0.18559   0.00000  Uiso   1.00
N140   N     0.43127   0.26303   0.15956   0.00000  Uiso   1.00
C141   C     0.45943   0.04482   0.17980   0.00000  Uiso   1.00
N142   N     0.44431   0.06171   0.14893   0.00000  Uiso   1.00
C143   C     0.54057   0.28852   0.32020   0.00000  Uiso   1.00
N144   N     0.55570   0.27162   0.35106   0.00000  Uiso   1.00
O145   O     0.77226   0.20487   0.24999   0.00000  Uiso   1.00
O146   O     0.89441   0.12846   0.25000   0.00000  Uiso   1.00
O147   O     0.89441   0.20487   0.25000   0.00000  Uiso   1.00
O148   O     0.77226   0.12846   0.24999   0.00000  Uiso   1.00
C149   C     0.75339   0.16589   0.25129   0.00000  Uiso   1.00
C150   C     0.91328   0.16744   0.24872   0.00000  Uiso   1.00
O151   O     0.83333   0.20489   0.18392   0.00000  Uiso   1.00
O152   O     0.83334   0.12844   0.31607   0.00000  Uiso   1.00
O153   O     0.83334   0.20489   0.31607   0.00000  Uiso   1.00
O154   O     0.83333   0.12844   0.18392   0.00000  Uiso   1.00
C155   C     0.83285   0.16641   0.16366   0.00000  Uiso   1.00
C156   C     0.83382   0.16692   0.33633   0.00000  Uiso   1.00
Zn157  Zn    0.83333   0.21771   0.25000   0.00000  Uiso   1.00
Zn158  Zn    0.83333   0.11563   0.25000   0.00000  Uiso   1.00
C159   C     0.87274   0.16847   0.40824   0.00000  Uiso   1.00
C160   C     0.79393   0.16488   0.09176   0.00000  Uiso   1.00
C161   C     0.83492   0.16744   0.38403   0.00000  Uiso   1.00
C162   C     0.83175   0.16589   0.11597   0.00000  Uiso   1.00
C163   C     0.79727   0.16612   0.40493   0.00000  Uiso   1.00
C164   C     0.86940   0.16720   0.09507   0.00000  Uiso   1.00
C165   C     0.79638   0.16588   0.45117   0.00000  Uiso   1.00
C166   C     0.87029   0.16745   0.04882   0.00000  Uiso   1.00
C167   C     0.83388   0.16689   0.47659   0.00000  Uiso   1.00
C168   C     0.83279   0.16644   0.02341   0.00000  Uiso   1.00
C169   C     0.87239   0.16824   0.45521   0.00000  Uiso   1.00
C170   C     0.79428   0.16510   0.04479   0.00000  Uiso   1.00
C171   C     0.75850   0.16451   0.47220   0.00000  Uiso   1.00
C172   C     0.90818   0.16881   0.02779   0.00000  Uiso   1.00
C173   C     0.75736   0.16414   0.01863   0.00000  Uiso   1.00
C174   C     0.90931   0.16920   0.48137   0.00000  Uiso   1.00
H175   H     0.76867   0.16501   0.38494   0.00000  Uiso   1.00
H176   H     0.89800   0.16831   0.11506   0.00000  Uiso   1.00
H177   H     0.72968   0.16374   0.45270   0.00000  Uiso   1.00
H178   H     0.93699   0.16959   0.04730   0.00000  Uiso   1.00
H179   H     0.72743   0.16308   0.03375   0.00000  Uiso   1.00
H180   H     0.93924   0.17026   0.46625   0.00000  Uiso   1.00
C181   C     0.68580   0.12781   0.23433   0.00000  Uiso   1.00
C182   C     0.98087   0.20554   0.26567   0.00000  Uiso   1.00
C183   C     0.97676   0.13078   0.22938   0.00000  Uiso   1.00
C184   C     0.68990   0.20256   0.27064   0.00000  Uiso   1.00
C185   C     0.95753   0.16888   0.24645   0.00000  Uiso   1.00
C186   C     0.70914   0.16446   0.25356   0.00000  Uiso   1.00
C187   C     0.85540   0.02526   0.28206   0.00000  Uiso   1.00
C188   C     0.81127   0.30808   0.21794   0.00000  Uiso   1.00
C189   C     0.81212   0.02266   0.21724   0.00000  Uiso   1.00
C190   C     0.85454   0.31067   0.28275   0.00000  Uiso   1.00
N191   N     0.83333   0.28573   0.25000   0.00000  Uiso   1.00
N192   N     0.83333   0.04760   0.25000   0.00000  Uiso   1.00
C193   C     0.91129   0.16928   0.38471   0.00000  Uiso   1.00
N194   N     0.94205   0.16979   0.36602   0.00000  Uiso   1.00
C195   C     0.75538   0.16412   0.11529   0.00000  Uiso   1.00
N196   N     0.72462   0.16364   0.13397   0.00000  Uiso   1.00
N197   N     0.70459   0.08777   0.21863   0.00000  Uiso   1.00
O198   O     0.71759   0.05883   0.24781   0.00000  Uiso   1.00
O199   O     0.69809   0.07463   0.17715   0.00000  Uiso   1.00
N200   N     0.96208   0.24561   0.28128   0.00000  Uiso   1.00
O201   O     0.94907   0.27449   0.25203   0.00000  Uiso   1.00
O202   O     0.96861   0.25885   0.32274   0.00000  Uiso   1.00
N203   N     0.95343   0.09506   0.20631   0.00000  Uiso   1.00
O204   O     0.93193   0.10335   0.16994   0.00000  Uiso   1.00
O205   O     0.95348   0.05430   0.22176   0.00000  Uiso   1.00
N206   N     0.71324   0.23829   0.29371   0.00000  Uiso   1.00
O207   O     0.73474   0.23000   0.33009   0.00000  Uiso   1.00
O208   O     0.71325   0.27903   0.27822   0.00000  Uiso   1.00
C209   C     0.88109   0.05055   0.31441   0.00000  Uiso   1.00
N210   N     0.90206   0.07031   0.34045   0.00000  Uiso   1.00
C211   C     0.78557   0.28278   0.18559   0.00000  Uiso   1.00
N212   N     0.76460   0.26303   0.15956   0.00000  Uiso   1.00
C213   C     0.79277   0.04482   0.17980   0.00000  Uiso   1.00
N214   N     0.77764   0.06171   0.14893   0.00000  Uiso   1.00
C215   C     0.87390   0.28852   0.32020   0.00000  Uiso   1.00
N216   N     0.88903   0.27162   0.35106   0.00000  Uiso   1.00
O217   O     0.10559   0.53821   0.24999   0.00000  Uiso   1.00
O218   O     0.22774   0.46179   0.25000   0.00000  Uiso   1.00
O219   O     0.22774   0.53821   0.25000   0.00000  Uiso   1.00
O220   O     0.10559   0.46179   0.24999   0.00000  Uiso   1.00
C221   C     0.08672   0.49922   0.25129   0.00000  Uiso   1.00
C222   C     0.24661   0.50078   0.24872   0.00000  Uiso   1.00
O223   O     0.16666   0.53823   0.18392   0.00000  Uiso   1.00
O224   O     0.16667   0.46177   0.31607   0.00000  Uiso   1.00
O225   O     0.16667   0.53823   0.31607   0.00000  Uiso   1.00
O226   O     0.16666   0.46177   0.18392   0.00000  Uiso   1.00
C227   C     0.16619   0.49975   0.16366   0.00000  Uiso   1.00
C228   C     0.16715   0.50025   0.33633   0.00000  Uiso   1.00
Zn229  Zn    0.16667   0.55104   0.25000   0.00000  Uiso   1.00
Zn230  Zn    0.16667   0.44896   0.25000   0.00000  Uiso   1.00
C231   C     0.20607   0.50180   0.40824   0.00000  Uiso   1.00
C232   C     0.12727   0.49822   0.09176   0.00000  Uiso   1.00
C233   C     0.16825   0.50078   0.38403   0.00000  Uiso   1.00
C234   C     0.16509   0.49922   0.11597   0.00000  Uiso   1.00
C235   C     0.13061   0.49946   0.40493   0.00000  Uiso   1.00
C236   C     0.20273   0.50053   0.09507   0.00000  Uiso   1.00
C237   C     0.12972   0.49921   0.45117   0.00000  Uiso   1.00
C238   C     0.20362   0.50078   0.04882   0.00000  Uiso   1.00
C239   C     0.16721   0.50022   0.47659   0.00000  Uiso   1.00
C240   C     0.16613   0.49978   0.02341   0.00000  Uiso   1.00
C241   C     0.20572   0.50157   0.45521   0.00000  Uiso   1.00
C242   C     0.12761   0.49843   0.04479   0.00000  Uiso   1.00
C243   C     0.09183   0.49785   0.47220   0.00000  Uiso   1.00
C244   C     0.24151   0.50215   0.02779   0.00000  Uiso   1.00
C245   C     0.09070   0.49747   0.01863   0.00000  Uiso   1.00
C246   C     0.24264   0.50253   0.48137   0.00000  Uiso   1.00
H247   H     0.10200   0.49834   0.38494   0.00000  Uiso   1.00
H248   H     0.23133   0.50164   0.11506   0.00000  Uiso   1.00
H249   H     0.06301   0.49707   0.45270   0.00000  Uiso   1.00
H250   H     0.27033   0.50292   0.04730   0.00000  Uiso   1.00
H251   H     0.06076   0.49642   0.03375   0.00000  Uiso   1.00
H252   H     0.27257   0.50359   0.46625   0.00000  Uiso   1.00
C253   C     0.01913   0.46114   0.23433   0.00000  Uiso   1.00
C254   C     0.31420   0.53887   0.26567   0.00000  Uiso   1.00
C255   C     0.31010   0.46412   0.22938   0.00000  Uiso   1.00
C256   C     0.02324   0.53589   0.27064   0.00000  Uiso   1.00
C257   C     0.29086   0.50221   0.24645   0.00000  Uiso   1.00
C258   C     0.04247   0.49780   0.25356   0.00000  Uiso   1.00
C259   C     0.18873   0.35859   0.28206   0.00000  Uiso   1.00
C260   C     0.14460   0.64141   0.21794   0.00000  Uiso   1.00
C261   C     0.14546   0.35599   0.21724   0.00000  Uiso   1.00
C262   C     0.18788   0.64401   0.28275   0.00000  Uiso   1.00
N263   N     0.16667   0.61907   0.25000   0.00000  Uiso   1.00
N264   N     0.16667   0.38093   0.25000   0.00000  Uiso   1.00
C265   C     0.24462   0.50261   0.38471   0.00000  Uiso   1.00
N266   N     0.27538   0.50312   0.36602   0.00000  Uiso   1.00
C267   C     0.08871   0.49745   0.11529   0.00000  Uiso   1.00
N268   N     0.05796   0.49698   0.13397   0.00000  Uiso   1.00
N269   N     0.03793   0.42110   0.21863   0.00000  Uiso   1.00
O270   O     0.05093   0.39216   0.24781   0.00000  Uiso   1.00
O271   O     0.03143   0.40797   0.17715   0.00000  Uiso   1.00
N272   N     0.29541   0.57895   0.28128   0.00000  Uiso   1.00
O273   O     0.28240   0.60783   0.25203   0.00000  Uiso   1.00
O274   O     0.30194   0.59218   0.32274   0.00000  Uiso   1.00
N275   N     0.28676   0.42839   0.20631   0.00000  Uiso   1.00
O276   O     0.26526   0.43668   0.16994   0.00000  Uiso   1.00
O277   O     0.28681   0.38763   0.22176   0.00000  Uiso   1.00
N278   N     0.04658   0.57162   0.29371   0.00000  Uiso   1.00
O279   O     0.06807   0.56334   0.33009   0.00000  Uiso   1.00
O280   O     0.04658   0.61236   0.27822   0.00000  Uiso   1.00
C281   C     0.21443   0.38389   0.31441   0.00000  Uiso   1.00
N282   N     0.23539   0.40364   0.34045   0.00000  Uiso   1.00
C283   C     0.11890   0.61612   0.18559   0.00000  Uiso   1.00
N284   N     0.09793   0.59637   0.15956   0.00000  Uiso   1.00
C285   C     0.12610   0.37815   0.17980   0.00000  Uiso   1.00
N286   N     0.11098   0.39504   0.14893   0.00000  Uiso   1.00
C287   C     0.20724   0.62185   0.32020   0.00000  Uiso   1.00
N288   N     0.22237   0.60496   0.35106   0.00000  Uiso   1.00
O289   O     0.43892   0.53821   0.24999   0.00000  Uiso   1.00
O290   O     0.56108   0.46179   0.25000   0.00000  Uiso   1.00
O291   O     0.56108   0.53821   0.25000   0.00000  Uiso   1.00
O292   O     0.43892   0.46179   0.24999   0.00000  Uiso   1.00
C293   C     0.42006   0.49922   0.25129   0.00000  Uiso   1.00
C294   C     0.57994   0.50078   0.24872   0.00000  Uiso   1.00
O295   O     0.49999   0.53823   0.18392   0.00000  Uiso   1.00
O296   O     0.50001   0.46177   0.31607   0.00000  Uiso   1.00
O297   O     0.50001   0.53823   0.31607   0.00000  Uiso   1.00
O298   O     0.49999   0.46177   0.18392   0.00000  Uiso   1.00
C299   C     0.49952   0.49975   0.16366   0.00000  Uiso   1.00
C300   C     0.50048   0.50025   0.33633   0.00000  Uiso   1.00
Zn301  Zn    0.50000   0.55104   0.25000   0.00000  Uiso   1.00
Zn302  Zn    0.50000   0.44896   0.25000   0.00000  Uiso   1.00
C303   C     0.53940   0.50180   0.40824   0.00000  Uiso   1.00
C304   C     0.46060   0.49822   0.09176   0.00000  Uiso   1.00
C305   C     0.50158   0.50078   0.38403   0.00000  Uiso   1.00
C306   C     0.49842   0.49922   0.11597   0.00000  Uiso   1.00
C307   C     0.46394   0.49946   0.40493   0.00000  Uiso   1.00
C308   C     0.53606   0.50053   0.09507   0.00000  Uiso   1.00
C309   C     0.46305   0.49921   0.45117   0.00000  Uiso   1.00
C310   C     0.53695   0.50078   0.04882   0.00000  Uiso   1.00
C311   C     0.50055   0.50022   0.47659   0.00000  Uiso   1.00
C312   C     0.49946   0.49978   0.02341   0.00000  Uiso   1.00
C313   C     0.53906   0.50157   0.45521   0.00000  Uiso   1.00
C314   C     0.46095   0.49843   0.04479   0.00000  Uiso   1.00
C315   C     0.42516   0.49785   0.47220   0.00000  Uiso   1.00
C316   C     0.57484   0.50215   0.02779   0.00000  Uiso   1.00
C317   C     0.42403   0.49747   0.01863   0.00000  Uiso   1.00
C318   C     0.57597   0.50253   0.48137   0.00000  Uiso   1.00
H319   H     0.43534   0.49834   0.38494   0.00000  Uiso   1.00
H320   H     0.56467   0.50164   0.11506   0.00000  Uiso   1.00
H321   H     0.39635   0.49707   0.45270   0.00000  Uiso   1.00
H322   H     0.60366   0.50292   0.04730   0.00000  Uiso   1.00
H323   H     0.39410   0.49642   0.03375   0.00000  Uiso   1.00
H324   H     0.60591   0.50359   0.46625   0.00000  Uiso   1.00
C325   C     0.35247   0.46114   0.23433   0.00000  Uiso   1.00
C326   C     0.64754   0.53887   0.26567   0.00000  Uiso   1.00
C327   C     0.64343   0.46412   0.22938   0.00000  Uiso   1.00
C328   C     0.35657   0.53589   0.27064   0.00000  Uiso   1.00
C329   C     0.62420   0.50221   0.24645   0.00000  Uiso   1.00
C330   C     0.37581   0.49780   0.25356   0.00000  Uiso   1.00
C331   C     0.52206   0.35859   0.28206   0.00000  Uiso   1.00
C332   C     0.47793   0.64141   0.21794   0.00000  Uiso   1.00
C333   C     0.47879   0.35599   0.21724   0.00000  Uiso   1.00
C334   C     0.52121   0.64401   0.28275   0.00000  Uiso   1.00
N335   N     0.50000   0.61907   0.25000   0.00000  Uiso   1.00
N336   N     0.50000   0.38093   0.25000   0.00000  Uiso   1.00
C337   C     0.57796   0.50261   0.38471   0.00000  Uiso   1.00
N338   N     0.60871   0.50312   0.36602   0.00000  Uiso   1.00
C339   C     0.42205   0.49745   0.11529   0.00000  Uiso   1.00
N340   N     0.39129   0.49698   0.13397   0.00000  Uiso   1.00
N341   N     0.37126   0.42110   0.21863   0.00000  Uiso   1.00
O342   O     0.38426   0.39216   0.24781   0.00000  Uiso   1.00
O343   O     0.36476   0.40797   0.17715   0.00000  Uiso   1.00
N344   N     0.62875   0.57895   0.28128   0.00000  Uiso   1.00
O345   O     0.61573   0.60783   0.25203   0.00000  Uiso   1.00
O346   O     0.63527   0.59218   0.32274   0.00000  Uiso   1.00
N347   N     0.62009   0.42839   0.20631   0.00000  Uiso   1.00
O348   O     0.59859   0.43668   0.16994   0.00000  Uiso   1.00
O349   O     0.62015   0.38763   0.22176   0.00000  Uiso   1.00
N350   N     0.37991   0.57162   0.29371   0.00000  Uiso   1.00
O351   O     0.40140   0.56334   0.33009   0.00000  Uiso   1.00
O352   O     0.37992   0.61236   0.27822   0.00000  Uiso   1.00
C353   C     0.54776   0.38389   0.31441   0.00000  Uiso   1.00
N354   N     0.56872   0.40364   0.34045   0.00000  Uiso   1.00
C355   C     0.45224   0.61612   0.18559   0.00000  Uiso   1.00
N356   N     0.43127   0.59637   0.15956   0.00000  Uiso   1.00
C357   C     0.45943   0.37815   0.17980   0.00000  Uiso   1.00
N358   N     0.44431   0.39504   0.14893   0.00000  Uiso   1.00
C359   C     0.54057   0.62185   0.32020   0.00000  Uiso   1.00
N360   N     0.55570   0.60496   0.35106   0.00000  Uiso   1.00
O361   O     0.77226   0.53821   0.24999   0.00000  Uiso   1.00
O362   O     0.89441   0.46179   0.25000   0.00000  Uiso   1.00
O363   O     0.89441   0.53821   0.25000   0.00000  Uiso   1.00
O364   O     0.77226   0.46179   0.24999   0.00000  Uiso   1.00
C365   C     0.75339   0.49922   0.25129   0.00000  Uiso   1.00
C366   C     0.91328   0.50078   0.24872   0.00000  Uiso   1.00
O367   O     0.83333   0.53823   0.18392   0.00000  Uiso   1.00
O368   O     0.83334   0.46177   0.31607   0.00000  Uiso   1.00
O369   O     0.83334   0.53823   0.31607   0.00000  Uiso   1.00
O370   O     0.83333   0.46177   0.18392   0.00000  Uiso   1.00
C371   C     0.83285   0.49975   0.16366   0.00000  Uiso   1.00
C372   C     0.83382   0.50025   0.33633   0.00000  Uiso   1.00
Zn373  Zn    0.83333   0.55104   0.25000   0.00000  Uiso   1.00
Zn374  Zn    0.83333   0.44896   0.25000   0.00000  Uiso   1.00
C375   C     0.87274   0.50180   0.40824   0.00000  Uiso   1.00
C376   C     0.79393   0.49822   0.09176   0.00000  Uiso   1.00
C377   C     0.83492   0.50078   0.38403   0.00000  Uiso   1.00
C378   C     0.83175   0.49922   0.11597   0.00000  Uiso   1.00
C379   C     0.79727   0.49946   0.40493   0.00000  Uiso   1.00
C380   C     0.86940   0.50053   0.09507   0.00000  Uiso   1.00
C381   C     0.79638   0.49921   0.45117   0.00000  Uiso   1.00
C382   C     0.87029   0.50078   0.04882   0.00000  Uiso   1.00
C383   C     0.83388   0.50022   0.47659   0.00000  Uiso   1.00
C384   C     0.83279   0.49978   0.02341   0.00000  Uiso   1.00
C385   C     0.87239   0.50157   0.45521   0.00000  Uiso   1.00
C386   C     0.79428   0.49843   0.04479   0.00000  Uiso   1.00
C387   C     0.75850   0.49785   0.47220   0.00000  Uiso   1.00
C388   C     0.90818   0.50215   0.02779   0.00000  Uiso   1.00
C389   C     0.75736   0.49747   0.01863   0.00000  Uiso   1.00
C390   C     0.90931   0.50253   0.48137   0.00000  Uiso   1.00
H391   H     0.76867   0.49834   0.38494   0.00000  Uiso   1.00
H392   H     0.89800   0.50164   0.11506   0.00000  Uiso   1.00
H393   H     0.72968   0.49707   0.45270   0.00000  Uiso   1.00
H394   H     0.93699   0.50292   0.04730   0.00000  Uiso   1.00
H395   H     0.72743   0.49642   0.03375   0.00000  Uiso   1.00
H396   H     0.93924   0.50359   0.46625   0.00000  Uiso   1.00
C397   C     0.68580   0.46114   0.23433   0.00000  Uiso   1.00
C398   C     0.98087   0.53887   0.26567   0.00000  Uiso   1.00
C399   C     0.97676   0.46412   0.22938   0.00000  Uiso   1.00
C400   C     0.68990   0.53589   0.27064   0.00000  Uiso   1.00
C401   C     0.95753   0.50221   0.24645   0.00000  Uiso   1.00
C402   C     0.70914   0.49780   0.25356   0.00000  Uiso   1.00
C403   C     0.85540   0.35859   0.28206   0.00000  Uiso   1.00
C404   C     0.81127   0.64141   0.21794   0.00000  Uiso   1.00
C405   C     0.81212   0.35599   0.21724   0.00000  Uiso   1.00
C406   C     0.85454   0.64401   0.28275   0.00000  Uiso   1.00
N407   N     0.83333   0.61907   0.25000   0.00000  Uiso   1.00
N408   N     0.83333   0.38093   0.25000   0.00000  Uiso   1.00
C409   C     0.91129   0.50261   0.38471   0.00000  Uiso   1.00
N410   N     0.94205   0.50312   0.36602   0.00000  Uiso   1.00
C411   C     0.75538   0.49745   0.11529   0.00000  Uiso   1.00
N412   N     0.72462   0.49698   0.13397   0.00000  Uiso   1.00
N413   N     0.70459   0.42110   0.21863   0.00000  Uiso   1.00
O414   O     0.71759   0.39216   0.24781   0.00000  Uiso   1.00
O415   O     0.69809   0.40797   0.17715   0.00000  Uiso   1.00
N416   N     0.96208   0.57895   0.28128   0.00000  Uiso   1.00
O417   O     0.94907   0.60783   0.25203   0.00000  Uiso   1.00
O418   O     0.96861   0.59218   0.32274   0.00000  Uiso   1.00
N419   N     0.95343   0.42839   0.20631   0.00000  Uiso   1.00
O420   O     0.93193   0.43668   0.16994   0.00000  Uiso   1.00
O421   O     0.95348   0.38763   0.22176   0.00000  Uiso   1.00
N422   N     0.71324   0.57162   0.29371   0.00000  Uiso   1.00
O423   O     0.73474   0.56334   0.33009   0.00000  Uiso   1.00
O424   O     0.71325   0.61236   0.27822   0.00000  Uiso   1.00
C425   C     0.88109   0.38389   0.31441   0.00000  Uiso   1.00
N426   N     0.90206   0.40364   0.34045   0.00000  Uiso   1.00
C427   C     0.78557   0.61612   0.18559   0.00000  Uiso   1.00
N428   N     0.76460   0.59637   0.15956   0.00000  Uiso   1.00
C429   C     0.79277   0.37815   0.17980   0.00000  Uiso   1.00
N430   N     0.77764   0.39504   0.14893   0.00000  Uiso   1.00
C431   C     0.87390   0.62185   0.32020   0.00000  Uiso   1.00
N432   N     0.88903   0.60496   0.35106   0.00000  Uiso   1.00
O433   O     0.10559   0.87154   0.24999   0.00000  Uiso   1.00
O434   O     0.22774   0.79513   0.25000   0.00000  Uiso   1.00
O435   O     0.22774   0.87154   0.25000   0.00000  Uiso   1.00
O436   O     0.10559   0.79513   0.24999   0.00000  Uiso   1.00
C437   C     0.08672   0.83256   0.25129   0.00000  Uiso   1.00
C438   C     0.24661   0.83411   0.24872   0.00000  Uiso   1.00
O439   O     0.16666   0.87156   0.18392   0.00000  Uiso   1.00
O440   O     0.16667   0.79511   0.31607   0.00000  Uiso   1.00
O441   O     0.16667   0.87156   0.31607   0.00000  Uiso   1.00
O442   O     0.16666   0.79511   0.18392   0.00000  Uiso   1.00
C443   C     0.16619   0.83308   0.16366   0.00000  Uiso   1.00
C444   C     0.16715   0.83359   0.33633   0.00000  Uiso   1.00
Zn445  Zn    0.16667   0.88437   0.25000   0.00000  Uiso   1.00
Zn446  Zn    0.16667   0.78229   0.25000   0.00000  Uiso   1.00
C447   C     0.20607   0.83513   0.40824   0.00000  Uiso   1.00
C448   C     0.12727   0.83155   0.09176   0.00000  Uiso   1.00
C449   C     0.16825   0.83411   0.38403   0.00000  Uiso   1.00
C450   C     0.16509   0.83256   0.11597   0.00000  Uiso   1.00
C451   C     0.13061   0.83279   0.40493   0.00000  Uiso   1.00
C452   C     0.20273   0.83387   0.09507   0.00000  Uiso   1.00
C453   C     0.12972   0.83255   0.45117   0.00000  Uiso   1.00
C454   C     0.20362   0.83411   0.04882   0.00000  Uiso   1.00
C455   C     0.16721   0.83355   0.47659   0.00000  Uiso   1.00
C456   C     0.16613   0.83311   0.02341   0.00000  Uiso   1.00
C457   C     0.20572   0.83490   0.45521   0.00000  Uiso   1.00
C458   C     0.12761   0.83177   0.04479   0.00000  Uiso   1.00
C459   C     0.09183   0.83118   0.47220   0.00000  Uiso   1.00
C460   C     0.24151   0.83548   0.02779   0.00000  Uiso   1.00
C461   C     0.09070   0.83081   0.01863   0.00000  Uiso   1.00
C462   C     0.24264   0.83586   0.48137   0.00000  Uiso   1.00
H463   H     0.10200   0.83167   0.38494   0.00000  Uiso   1.00
H464   H     0.23133   0.83498   0.11506   0.00000  Uiso   1.00
H465   H     0.06301   0.83041   0.45270   0.00000  Uiso   1.00
H466   H     0.27033   0.83625   0.04730   0.00000  Uiso   1.00
H467   H     0.06076   0.82975   0.03375   0.00000  Uiso   1.00
H468   H     0.27257   0.83692   0.46625   0.00000  Uiso   1.00
C469   C     0.01913   0.79448   0.23433   0.00000  Uiso   1.00
C470   C     0.31420   0.87221   0.26567   0.00000  Uiso   1.00
C471   C     0.31010   0.79745   0.22938   0.00000  Uiso   1.00
C472   C     0.02324   0.86923   0.27064   0.00000  Uiso   1.00
C473   C     0.29086   0.83554   0.24645   0.00000  Uiso   1.00
C474   C     0.04247   0.83113   0.25356   0.00000  Uiso   1.00
C475   C     0.18873   0.69192   0.28206   0.00000  Uiso   1.00
C476   C     0.14460   0.97474   0.21794   0.00000  Uiso   1.00
C477   C     0.14546   0.68933   0.21724   0.00000  Uiso   1.00
C478   C     0.18788   0.97734   0.28275   0.00000  Uiso   1.00
N479   N     0.16667   0.95240   0.25000   0.00000  Uiso   1.00
N480   N     0.16667   0.71427   0.25000   0.00000  Uiso   1.00
C481   C     0.24462   0.83594   0.38471   0.00000  Uiso   1.00
N482   N     0.27538   0.83646   0.36602   0.00000  Uiso   1.00
C483   C     0.08871   0.83078   0.11529   0.00000  Uiso   1.00
N484   N     0.05796   0.83031   0.13397   0.00000  Uiso   1.00
N485   N     0.03793   0.75444   0.21863   0.00000  Uiso   1.00
O486   O     0.05093   0.72550   0.24781   0.00000  Uiso   1.00
O487   O     0.03143   0.74130   0.17715   0.00000  Uiso   1.00
N488   N     0.29541   0.91228   0.28128   0.00000  Uiso   1.00
O489   O     0.28240   0.94116   0.25203   0.00000  Uiso   1.00
O490   O     0.30194   0.92551   0.32274   0.00000  Uiso   1.00
N491   N     0.28676   0.76172   0.20631   0.00000  Uiso   1.00
O492   O     0.26526   0.77001   0.16994   0.00000  Uiso   1.00
O493   O     0.28681   0.72097   0.22176   0.00000  Uiso   1.00
N494   N     0.04658   0.90496   0.29371   0.00000  Uiso   1.00
O495   O     0.06807   0.89667   0.33009   0.00000  Uiso   1.00
O496   O     0.04658   0.94569   0.27822   0.00000  Uiso   1.00
C497   C     0.21443   0.71722   0.31441   0.00000  Uiso   1.00
N498   N     0.23539   0.73697   0.34045   0.00000  Uiso   1.00
C499   C     0.11890   0.94945   0.18559   0.00000  Uiso   1.00
N500   N     0.09793   0.92970   0.15956   0.00000  Uiso   1.00
C501   C     0.12610   0.71148   0.17980   0.00000  Uiso   1.00
N502   N     0.11098   0.72837   0.14893   0.00000  Uiso   1.00
C503   C     0.20724   0.95518   0.32020   0.00000  Uiso   1.00
N504   N     0.22237   0.93829   0.35106   0.00000  Uiso   1.00
O505   O     0.43892   0.87154   0.24999   0.00000  Uiso   1.00
O506   O     0.56108   0.79513   0.25000   0.00000  Uiso   1.00
O507   O     0.56108   0.87154   0.25000   0.00000  Uiso   1.00
O508   O     0.43892   0.79513   0.24999   0.00000  Uiso   1.00
C509   C     0.42006   0.83256   0.25129   0.00000  Uiso   1.00
C510   C     0.57994   0.83411   0.24872   0.00000  Uiso   1.00
O511   O     0.49999   0.87156   0.18392   0.00000  Uiso   1.00
O512   O     0.50001   0.79511   0.31607   0.00000  Uiso   1.00
O513   O     0.50001   0.87156   0.31607   0.00000  Uiso   1.00
O514   O     0.49999   0.79511   0.18392   0.00000  Uiso   1.00
C515   C     0.49952   0.83308   0.16366   0.00000  Uiso   1.00
C516   C     0.50048   0.83359   0.33633   0.00000  Uiso   1.00
Zn517  Zn    0.50000   0.88437   0.25000   0.00000  Uiso   1.00
Zn518  Zn    0.50000   0.78229   0.25000   0.00000  Uiso   1.00
C519   C     0.53940   0.83513   0.40824   0.00000  Uiso   1.00
C520   C     0.46060   0.83155   0.09176   0.00000  Uiso   1.00
C521   C     0.50158   0.83411   0.38403   0.00000  Uiso   1.00
C522   C     0.49842   0.83256   0.11597   0.00000  Uiso   1.00
C523   C     0.46394   0.83279   0.40493   0.00000  Uiso   1.00
C524   C     0.53606   0.83387   0.09507   0.00000  Uiso   1.00
C525   C     0.46305   0.83255   0.45117   0.00000  Uiso   1.00
C526   C     0.53695   0.83411   0.04882   0.00000  Uiso   1.00
C527   C     0.50055   0.83355   0.47659   0.00000  Uiso   1.00
C528   C     0.49946   0.83311   0.02341   0.00000  Uiso   1.00
C529   C     0.53906   0.83490   0.45521   0.00000  Uiso   1.00
C530   C     0.46095   0.83177   0.04479   0.00000  Uiso   1.00
C531   C     0.42516   0.83118   0.47220   0.00000  Uiso   1.00
C532   C     0.57484   0.83548   0.02779   0.00000  Uiso   1.00
C533   C     0.42403   0.83081   0.01863   0.00000  Uiso   1.00
C534   C     0.57597   0.83586   0.48137   0.00000  Uiso   1.00
H535   H     0.43534   0.83167   0.38494   0.00000  Uiso   1.00
H536   H     0.56467   0.83498   0.11506   0.00000  Uiso   1.00
H537   H     0.39635   0.83041   0.45270   0.00000  Uiso   1.00
H538   H     0.60366   0.83625   0.04730   0.00000  Uiso   1.00
H539   H     0.39410   0.82975   0.03375   0.00000  Uiso   1.00
H540   H     0.60591   0.83692   0.46625   0.00000  Uiso   1.00
C541   C     0.35247   0.79448   0.23433   0.00000  Uiso   1.00
C542   C     0.64754   0.87221   0.26567   0.00000  Uiso   1.00
C543   C     0.64343   0.79745   0.22938   0.00000  Uiso   1.00
C544   C     0.35657   0.86923   0.27064   0.00000  Uiso   1.00
C545   C     0.62420   0.83554   0.24645   0.00000  Uiso   1.00
C546   C     0.37581   0.83113   0.25356   0.00000  Uiso   1.00
C547   C     0.52206   0.69192   0.28206   0.00000  Uiso   1.00
C548   C     0.47793   0.97474   0.21794   0.00000  Uiso   1.00
C549   C     0.47879   0.68933   0.21724   0.00000  Uiso   1.00
C550   C     0.52121   0.97734   0.28275   0.00000  Uiso   1.00
N551   N     0.50000   0.95240   0.25000   0.00000  Uiso   1.00
N552   N     0.50000   0.71427   0.25000   0.00000  Uiso   1.00
C553   C     0.57796   0.83594   0.38471   0.00000  Uiso   1.00
N554   N     0.60871   0.83646   0.36602   0.00000  Uiso   1.00
C555   C     0.42205   0.83078   0.11529   0.00000  Uiso   1.00
N556   N     0.39129   0.83031   0.13397   0.00000  Uiso   1.00
N557   N     0.37126   0.75444   0.21863   0.00000  Uiso   1.00
O558   O     0.38426   0.72550   0.24781   0.00000  Uiso   1.00
O559   O     0.36476   0.74130   0.17715   0.00000  Uiso   1.00
N560   N     0.62875   0.91228   0.28128   0.00000  Uiso   1.00
O561   O     0.61573   0.94116   0.25203   0.00000  Uiso   1.00
O562   O     0.63527   0.92551   0.32274   0.00000  Uiso   1.00
N563   N     0.62009   0.76172   0.20631   0.00000  Uiso   1.00
O564   O     0.59859   0.77001   0.16994   0.00000  Uiso   1.00
O565   O     0.62015   0.72097   0.22176   0.00000  Uiso   1.00
N566   N     0.37991   0.90496   0.29371   0.00000  Uiso   1.00
O567   O     0.40140   0.89667   0.33009   0.00000  Uiso   1.00
O568   O     0.37992   0.94569   0.27822   0.00000  Uiso   1.00
C569   C     0.54776   0.71722   0.31441   0.00000  Uiso   1.00
N570   N     0.56872   0.73697   0.34045   0.00000  Uiso   1.00
C571   C     0.45224   0.94945   0.18559   0.00000  Uiso   1.00
N572   N     0.43127   0.92970   0.15956   0.00000  Uiso   1.00
C573   C     0.45943   0.71148   0.17980   0.00000  Uiso   1.00
N574   N     0.44431   0.72837   0.14893   0.00000  Uiso   1.00
C575   C     0.54057   0.95518   0.32020   0.00000  Uiso   1.00
N576   N     0.55570   0.93829   0.35106   0.00000  Uiso   1.00
O577   O     0.77226   0.87154   0.24999   0.00000  Uiso   1.00
O578   O     0.89441   0.79513   0.25000   0.00000  Uiso   1.00
O579   O     0.89441   0.87154   0.25000   0.00000  Uiso   1.00
O580   O     0.77226   0.79513   0.24999   0.00000  Uiso   1.00
C581   C     0.75339   0.83256   0.25129   0.00000  Uiso   1.00
C582   C     0.91328   0.83411   0.24872   0.00000  Uiso   1.00
O583   O     0.83333   0.87156   0.18392   0.00000  Uiso   1.00
O584   O     0.83334   0.79511   0.31607   0.00000  Uiso   1.00
O585   O     0.83334   0.87156   0.31607   0.00000  Uiso   1.00
O586   O     0.83333   0.79511   0.18392   0.00000  Uiso   1.00
C587   C     0.83285   0.83308   0.16366   0.00000  Uiso   1.00
C588   C     0.83382   0.83359   0.33633   0.00000  Uiso   1.00
Zn589  Zn    0.83333   0.88437   0.25000   0.00000  Uiso   1.00
Zn590  Zn    0.83333   0.78229   0.25000   0.00000  Uiso   1.00
C591   C     0.87274   0.83513   0.40824   0.00000  Uiso   1.00
C592   C     0.79393   0.83155   0.09176   0.00000  Uiso   1.00
C593   C     0.83492   0.83411   0.38403   0.00000  Uiso   1.00
C594   C     0.83175   0.83256   0.11597   0.00000  Uiso   1.00
C595   C     0.79727   0.83279   0.40493   0.00000  Uiso   1.00
C596   C     0.86940   0.83387   0.09507   0.00000  Uiso   1.00
C597   C     0.79638   0.83255   0.45117   0.00000  Uiso   1.00
C598   C     0.87029   0.83411   0.04882   0.00000  Uiso   1.00
C599   C     0.83388   0.83355   0.47659   0.00000  Uiso   1.00
C600   C     0.83279   0.83311   0.02341   0.00000  Uiso   1.00
C601   C     0.87239   0.83490   0.45521   0.00000  Uiso   1.00
C602   C     0.79428   0.83177   0.04479   0.00000  Uiso   1.00
C603   C     0.75850   0.83118   0.47220   0.00000  Uiso   1.00
C604   C     0.90818   0.83548   0.02779   0.00000  Uiso   1.00
C605   C     0.75736   0.83081   0.01863   0.00000  Uiso   1.00
C606   C     0.90931   0.83586   0.48137   0.00000  Uiso   1.00
H607   H     0.76867   0.83167   0.38494   0.00000  Uiso   1.00
H608   H     0.89800   0.83498   0.11506   0.00000  Uiso   1.00
H609   H     0.72968   0.83041   0.45270   0.00000  Uiso   1.00
H610   H     0.93699   0.83625   0.04730   0.00000  Uiso   1.00
H611   H     0.72743   0.82975   0.03375   0.00000  Uiso   1.00
H612   H     0.93924   0.83692   0.46625   0.00000  Uiso   1.00
C613   C     0.68580   0.79448   0.23433   0.00000  Uiso   1.00
C614   C     0.98087   0.87221   0.26567   0.00000  Uiso   1.00
C615   C     0.97676   0.79745   0.22938   0.00000  Uiso   1.00
C616   C     0.68990   0.86923   0.27064   0.00000  Uiso   1.00
C617   C     0.95753   0.83554   0.24645   0.00000  Uiso   1.00
C618   C     0.70914   0.83113   0.25356   0.00000  Uiso   1.00
C619   C     0.85540   0.69192   0.28206   0.00000  Uiso   1.00
C620   C     0.81127   0.97474   0.21794   0.00000  Uiso   1.00
C621   C     0.81212   0.68933   0.21724   0.00000  Uiso   1.00
C622   C     0.85454   0.97734   0.28275   0.00000  Uiso   1.00
N623   N     0.83333   0.95240   0.25000   0.00000  Uiso   1.00
N624   N     0.83333   0.71427   0.25000   0.00000  Uiso   1.00
C625   C     0.91129   0.83594   0.38471   0.00000  Uiso   1.00
N626   N     0.94205   0.83646   0.36602   0.00000  Uiso   1.00
C627   C     0.75538   0.83078   0.11529   0.00000  Uiso   1.00
N628   N     0.72462   0.83031   0.13397   0.00000  Uiso   1.00
N629   N     0.70459   0.75444   0.21863   0.00000  Uiso   1.00
O630   O     0.71759   0.72550   0.24781   0.00000  Uiso   1.00
O631   O     0.69809   0.74130   0.17715   0.00000  Uiso   1.00
N632   N     0.96208   0.91228   0.28128   0.00000  Uiso   1.00
O633   O     0.94907   0.94116   0.25203   0.00000  Uiso   1.00
O634   O     0.96861   0.92551   0.32274   0.00000  Uiso   1.00
N635   N     0.95343   0.76172   0.20631   0.00000  Uiso   1.00
O636   O     0.93193   0.77001   0.16994   0.00000  Uiso   1.00
O637   O     0.95348   0.72097   0.22176   0.00000  Uiso   1.00
N638   N     0.71324   0.90496   0.29371   0.00000  Uiso   1.00
O639   O     0.73474   0.89667   0.33009   0.00000  Uiso   1.00
O640   O     0.71325   0.94569   0.27822   0.00000  Uiso   1.00
C641   C     0.88109   0.71722   0.31441   0.00000  Uiso   1.00
N642   N     0.90206   0.73697   0.34045   0.00000  Uiso   1.00
C643   C     0.78557   0.94945   0.18559   0.00000  Uiso   1.00
N644   N     0.76460   0.92970   0.15956   0.00000  Uiso   1.00
C645   C     0.79277   0.71148   0.17980   0.00000  Uiso   1.00
N646   N     0.77764   0.72837   0.14893   0.00000  Uiso   1.00
C647   C     0.87390   0.95518   0.32020   0.00000  Uiso   1.00
N648   N     0.88903   0.93829   0.35106   0.00000  Uiso   1.00
O649   O     0.10559   0.20487   0.74999   0.00000  Uiso   1.00
O650   O     0.22774   0.12846   0.75000   0.00000  Uiso   1.00
O651   O     0.22774   0.20487   0.75000   0.00000  Uiso   1.00
O652   O     0.10559   0.12846   0.74999   0.00000  Uiso   1.00
C653   C     0.08672   0.16589   0.75129   0.00000  Uiso   1.00
C654   C     0.24661   0.16744   0.74872   0.00000  Uiso   1.00
O655   O     0.16666   0.20489   0.68392   0.00000  Uiso   1.00
O656   O     0.16667   0.12844   0.81607   0.00000  Uiso   1.00
O657   O     0.16667   0.20489   0.81607   0.00000  Uiso   1.00
O658   O     0.16666   0.12844   0.68392   0.00000  Uiso   1.00
C659   C     0.16619   0.16641   0.66366   0.00000  Uiso   1.00
C660   C     0.16715   0.16692   0.83633   0.00000  Uiso   1.00
Zn661  Zn    0.16667   0.21771   0.75000   0.00000  Uiso   1.00
Zn662  Zn    0.16667   0.11563   0.75000   0.00000  Uiso   1.00
C663   C     0.20607   0.16847   0.90824   0.00000  Uiso   1.00
C664   C     0.12727   0.16488   0.59176   0.00000  Uiso   1.00
C665   C     0.16825   0.16744   0.88403   0.00000  Uiso   1.00
C666   C     0.16509   0.16589   0.61597   0.00000  Uiso   1.00
C667   C     0.13061   0.16612   0.90493   0.00000  Uiso   1.00
C668   C     0.20273   0.16720   0.59507   0.00000  Uiso   1.00
C669   C     0.12972   0.16588   0.95117   0.00000  Uiso   1.00
C670   C     0.20362   0.16745   0.54882   0.00000  Uiso   1.00
C671   C     0.16721   0.16689   0.97659   0.00000  Uiso   1.00
C672   C     0.16613   0.16644   0.52341   0.00000  Uiso   1.00
C673   C     0.20572   0.16824   0.95521   0.00000  Uiso   1.00
C674   C     0.12761   0.16510   0.54479   0.00000  Uiso   1.00
C675   C     0.09183   0.16451   0.97220   0.00000  Uiso   1.00
C676   C     0.24151   0.16881   0.52779   0.00000  Uiso   1.00
C677   C     0.09070   0.16414   0.51863   0.00000  Uiso   1.00
C678   C     0.24264   0.16920   0.98137   0.00000  Uiso   1.00
H679   H     0.10200   0.16501   0.88494   0.00000  Uiso   1.00
H680   H     0.23133   0.16831   0.61506   0.00000  Uiso   1.00
H681   H     0.06301   0.16374   0.95270   0.00000  Uiso   1.00
H682   H     0.27033   0.16959   0.54730   0.00000  Uiso   1.00
H683   H     0.06076   0.16308   0.53375   0.00000  Uiso   1.00
H684   H     0.27257   0.17026   0.96625   0.00000  Uiso   1.00
C685   C     0.01913   0.12781   0.73433   0.00000  Uiso   1.00
C686   C     0.31420   0.20554   0.76567   0.00000  Uiso   1.00
C687   C     0.31010   0.13078   0.72938   0.00000  Uiso   1.00
C688   C     0.02324   0.20256   0.77064   0.00000  Uiso   1.00
C689   C     0.29086   0.16888   0.74645   0.00000  Uiso   1.00
C690   C     0.04247   0.16446   0.75356   0.00000  Uiso   1.00
C691   C     0.18873   0.02526   0.78206   0.00000  Uiso   1.00
C692   C     0.14460   0.30808   0.71794   0.00000  Uiso   1.00
C693   C     0.14546   0.02266   0.71724   0.00000  Uiso   1.00
C694   C     0.18788   0.31067   0.78275   0.00000  Uiso   1.00
N695   N     0.16667   0.28573   0.75000   0.00000  Uiso   1.00
N696   N     0.16667   0.04760   0.75000   0.00000  Uiso   1.00
C697   C     0.24462   0.16928   0.88471   0.00000  Uiso   1.00
N698   N     0.27538   0.16979   0.86602   0.00000  Uiso   1.00
C699   C     0.08871   0.16412   0.61529   0.00000  Uiso   1.00
N700   N     0.05796   0.16364   0.63397   0.00000  Uiso   1.00
N701   N     0.03793   0.08777   0.71863   0.00000  Uiso   1.00
O702   O     0.05093   0.05883   0.74781   0.00000  Uiso   1.00
O703   O     0.03143   0.07463   0.67715   0.00000  Uiso   1.00
N704   N     0.29541   0.24561   0.78128   0.00000  Uiso   1.00
O705   O     0.28240   0.27449   0.75203   0.00000  Uiso   1.00
O706   O     0.30194   0.25885   0.82274   0.00000  Uiso   1.00
N707   N     0.28676   0.09506   0.70631   0.00000  Uiso   1.00
O708   O     0.26526   0.10335   0.66994   0.00000  Uiso   1.00
O709   O     0.28681   0.05430   0.72176   0.00000  Uiso   1.00
N710   N     0.04658   0.23829   0.79371   0.00000  Uiso   1.00
O711   O     0.06807   0.23000   0.83009   0.00000  Uiso   1.00
O712   O     0.04658   0.27903   0.77822   0.00000  Uiso   1.00
C713   C     0.21443   0.05055   0.81441   0.00000  Uiso   1.00
N714   N     0.23539   0.07031   0.84045   0.00000  Uiso   1.00
C715   C     0.11890   0.28278   0.68559   0.00000  Uiso   1.00
N716   N     0.09793   0.26303   0.65956   0.00000  Uiso   1.00
C717   C     0.12610   0.04482   0.67980   0.00000  Uiso   1.00
N718   N     0.11098   0.06171   0.64893   0.00000  Uiso   1.00
C719   C     0.20724   0.28852   0.82020   0.00000  Uiso   1.00
N720   N     0.22237   0.27162   0.85106   0.00000  Uiso   1.00
O721   O     0.43892   0.20487   0.74999   0.00000  Uiso   1.00
O722   O     0.56108   0.12846   0.75000   0.00000  Uiso   1.00
O723   O     0.56108   0.20487   0.75000   0.00000  Uiso   1.00
O724   O     0.43892   0.12846   0.74999   0.00000  Uiso   1.00
C725   C     0.42006   0.16589   0.75129   0.00000  Uiso   1.00
C726   C     0.57994   0.16744   0.74872   0.00000  Uiso   1.00
O727   O     0.49999   0.20489   0.68392   0.00000  Uiso   1.00
O728   O     0.50001   0.12844   0.81607   0.00000  Uiso   1.00
O729   O     0.50001   0.20489   0.81607   0.00000  Uiso   1.00
O730   O     0.49999   0.12844   0.68392   0.00000  Uiso   1.00
C731   C     0.49952   0.16641   0.66366   0.00000  Uiso   1.00
C732   C     0.50048   0.16692   0.83633   0.00000  Uiso   1.00
Zn733  Zn    0.50000   0.21771   0.75000   0.00000  Uiso   1.00
Zn734  Zn    0.50000   0.11563   0.75000   0.00000  Uiso   1.00
C735   C     0.53940   0.16847   0.90824   0.00000  Uiso   1.00
C736   C     0.46060   0.16488   0.59176   0.00000  Uiso   1.00
C737   C     0.50158   0.16744   0.88403   0.00000  Uiso   1.00
C738   C     0.49842   0.16589   0.61597   0.00000  Uiso   1.00
C739   C     0.46394   0.16612   0.90493   0.00000  Uiso   1.00
C740   C     0.53606   0.16720   0.59507   0.00000  Uiso   1.00
C741   C     0.46305   0.16588   0.95117   0.00000  Uiso   1.00
C742   C     0.53695   0.16745   0.54882   0.00000  Uiso   1.00
C743   C     0.50055   0.16689   0.97659   0.00000  Uiso   1.00
C744   C     0.49946   0.16644   0.52341   0.00000  Uiso   1.00
C745   C     0.53906   0.16824   0.95521   0.00000  Uiso   1.00
C746   C     0.46095   0.16510   0.54479   0.00000  Uiso   1.00
C747   C     0.42516   0.16451   0.97220   0.00000  Uiso   1.00
C748   C     0.57484   0.16881   0.52779   0.00000  Uiso   1.00
C749   C     0.42403   0.16414   0.51863   0.00000  Uiso   1.00
C750   C     0.57597   0.16920   0.98137   0.00000  Uiso   1.00
H751   H     0.43534   0.16501   0.88494   0.00000  Uiso   1.00
H752   H     0.56467   0.16831   0.61506   0.00000  Uiso   1.00
H753   H     0.39635   0.16374   0.95270   0.00000  Uiso   1.00
H754   H     0.60366   0.16959   0.54730   0.00000  Uiso   1.00
H755   H     0.39410   0.16308   0.53375   0.00000  Uiso   1.00
H756   H     0.60591   0.17026   0.96625   0.00000  Uiso   1.00
C757   C     0.35247   0.12781   0.73433   0.00000  Uiso   1.00
C758   C     0.64754   0.20554   0.76567   0.00000  Uiso   1.00
C759   C     0.64343   0.13078   0.72938   0.00000  Uiso   1.00
C760   C     0.35657   0.20256   0.77064   0.00000  Uiso   1.00
C761   C     0.62420   0.16888   0.74645   0.00000  Uiso   1.00
C762   C     0.37581   0.16446   0.75356   0.00000  Uiso   1.00
C763   C     0.52206   0.02526   0.78206   0.00000  Uiso   1.00
C764   C     0.47793   0.30808   0.71794   0.00000  Uiso   1.00
C765   C     0.47879   0.02266   0.71724   0.00000  Uiso   1.00
C766   C     0.52121   0.31067   0.78275   0.00000  Uiso   1.00
N767   N     0.50000   0.28573   0.75000   0.00000  Uiso   1.00
N768   N     0.50000   0.04760   0.75000   0.00000  Uiso   1.00
C769   C     0.57796   0.16928   0.88471   0.00000  Uiso   1.00
N770   N     0.60871   0.16979   0.86602   0.00000  Uiso   1.00
C771   C     0.42205   0.16412   0.61529   0.00000  Uiso   1.00
N772   N     0.39129   0.16364   0.63397   0.00000  Uiso   1.00
N773   N     0.37126   0.08777   0.71863   0.00000  Uiso   1.00
O774   O     0.38426   0.05883   0.74781   0.00000  Uiso   1.00
O775   O     0.36476   0.07463   0.67715   0.00000  Uiso   1.00
N776   N     0.62875   0.24561   0.78128   0.00000  Uiso   1.00
O777   O     0.61573   0.27449   0.75203   0.00000  Uiso   1.00
O778   O     0.63527   0.25885   0.82274   0.00000  Uiso   1.00
N779   N     0.62009   0.09506   0.70631   0.00000  Uiso   1.00
O780   O     0.59859   0.10335   0.66994   0.00000  Uiso   1.00
O781   O     0.62015   0.05430   0.72176   0.00000  Uiso   1.00
N782   N     0.37991   0.23829   0.79371   0.00000  Uiso   1.00
O783   O     0.40140   0.23000   0.83009   0.00000  Uiso   1.00
O784   O     0.37992   0.27903   0.77822   0.00000  Uiso   1.00
C785   C     0.54776   0.05055   0.81441   0.00000  Uiso   1.00
N786   N     0.56872   0.07031   0.84045   0.00000  Uiso   1.00
C787   C     0.45224   0.28278   0.68559   0.00000  Uiso   1.00
N788   N     0.43127   0.26303   0.65956   0.00000  Uiso   1.00
C789   C     0.45943   0.04482   0.67980   0.00000  Uiso   1.00
N790   N     0.44431   0.06171   0.64893   0.00000  Uiso   1.00
C791   C     0.54057   0.28852   0.82020   0.00000  Uiso   1.00
N792   N     0.55570   0.27162   0.85106   0.00000  Uiso   1.00
O793   O     0.77226   0.20487   0.74999   0.00000  Uiso   1.00
O794   O     0.89441   0.12846   0.75000   0.00000  Uiso   1.00
O795   O     0.89441   0.20487   0.75000   0.00000  Uiso   1.00
O796   O     0.77226   0.12846   0.74999   0.00000  Uiso   1.00
C797   C     0.75339   0.16589   0.75129   0.00000  Uiso   1.00
C798   C     0.91328   0.16744   0.74872   0.00000  Uiso   1.00
O799   O     0.83333   0.20489   0.68392   0.00000  Uiso   1.00
O800   O     0.83334   0.12844   0.81607   0.00000  Uiso   1.00
O801   O     0.83334   0.20489   0.81607   0.00000  Uiso   1.00
O802   O     0.83333   0.12844   0.68392   0.00000  Uiso   1.00
C803   C     0.83285   0.16641   0.66366   0.00000  Uiso   1.00
C804   C     0.83382   0.16692   0.83633   0.00000  Uiso   1.00
Zn805  Zn    0.83333   0.21771   0.75000   0.00000  Uiso   1.00
Zn806  Zn    0.83333   0.11563   0.75000   0.00000  Uiso   1.00
C807   C     0.87274   0.16847   0.90824   0.00000  Uiso   1.00
C808   C     0.79393   0.16488   0.59176   0.00000  Uiso   1.00
C809   C     0.83492   0.16744   0.88403   0.00000  Uiso   1.00
C810   C     0.83175   0.16589   0.61597   0.00000  Uiso   1.00
C811   C     0.79727   0.16612   0.90493   0.00000  Uiso   1.00
C812   C     0.86940   0.16720   0.59507   0.00000  Uiso   1.00
C813   C     0.79638   0.16588   0.95117   0.00000  Uiso   1.00
C814   C     0.87029   0.16745   0.54882   0.00000  Uiso   1.00
C815   C     0.83388   0.16689   0.97659   0.00000  Uiso   1.00
C816   C     0.83279   0.16644   0.52341   0.00000  Uiso   1.00
C817   C     0.87239   0.16824   0.95521   0.00000  Uiso   1.00
C818   C     0.79428   0.16510   0.54479   0.00000  Uiso   1.00
C819   C     0.75850   0.16451   0.97220   0.00000  Uiso   1.00
C820   C     0.90818   0.16881   0.52779   0.00000  Uiso   1.00
C821   C     0.75736   0.16414   0.51863   0.00000  Uiso   1.00
C822   C     0.90931   0.16920   0.98137   0.00000  Uiso   1.00
H823   H     0.76867   0.16501   0.88494   0.00000  Uiso   1.00
H824   H     0.89800   0.16831   0.61506   0.00000  Uiso   1.00
H825   H     0.72968   0.16374   0.95270   0.00000  Uiso   1.00
H826   H     0.93699   0.16959   0.54730   0.00000  Uiso   1.00
H827   H     0.72743   0.16308   0.53375   0.00000  Uiso   1.00
H828   H     0.93924   0.17026   0.96625   0.00000  Uiso   1.00
C829   C     0.68580   0.12781   0.73433   0.00000  Uiso   1.00
C830   C     0.98087   0.20554   0.76567   0.00000  Uiso   1.00
C831   C     0.97676   0.13078   0.72938   0.00000  Uiso   1.00
C832   C     0.68990   0.20256   0.77064   0.00000  Uiso   1.00
C833   C     0.95753   0.16888   0.74645   0.00000  Uiso   1.00
C834   C     0.70914   0.16446   0.75356   0.00000  Uiso   1.00
C835   C     0.85540   0.02526   0.78206   0.00000  Uiso   1.00
C836   C     0.81127   0.30808   0.71794   0.00000  Uiso   1.00
C837   C     0.81212   0.02266   0.71724   0.00000  Uiso   1.00
C838   C     0.85454   0.31067   0.78275   0.00000  Uiso   1.00
N839   N     0.83333   0.28573   0.75000   0.00000  Uiso   1.00
N840   N     0.83333   0.04760   0.75000   0.00000  Uiso   1.00
C841   C     0.91129   0.16928   0.88471   0.00000  Uiso   1.00
N842   N     0.94205   0.16979   0.86602   0.00000  Uiso   1.00
C843   C     0.75538   0.16412   0.61529   0.00000  Uiso   1.00
N844   N     0.72462   0.16364   0.63397   0.00000  Uiso   1.00
N845   N     0.70459   0.08777   0.71863   0.00000  Uiso   1.00
O846   O     0.71759   0.05883   0.74781   0.00000  Uiso   1.00
O847   O     0.69809   0.07463   0.67715   0.00000  Uiso   1.00
N848   N     0.96208   0.24561   0.78128   0.00000  Uiso   1.00
O849   O     0.94907   0.27449   0.75203   0.00000  Uiso   1.00
O850   O     0.96861   0.25885   0.82274   0.00000  Uiso   1.00
N851   N     0.95343   0.09506   0.70631   0.00000  Uiso   1.00
O852   O     0.93193   0.10335   0.66994   0.00000  Uiso   1.00
O853   O     0.95348   0.05430   0.72176   0.00000  Uiso   1.00
N854   N     0.71324   0.23829   0.79371   0.00000  Uiso   1.00
O855   O     0.73474   0.23000   0.83009   0.00000  Uiso   1.00
O856   O     0.71325   0.27903   0.77822   0.00000  Uiso   1.00
C857   C     0.88109   0.05055   0.81441   0.00000  Uiso   1.00
N858   N     0.90206   0.07031   0.84045   0.00000  Uiso   1.00
C859   C     0.78557   0.28278   0.68559   0.00000  Uiso   1.00
N860   N     0.76460   0.26303   0.65956   0.00000  Uiso   1.00
C861   C     0.79277   0.04482   0.67980   0.00000  Uiso   1.00
N862   N     0.77764   0.06171   0.64893   0.00000  Uiso   1.00
C863   C     0.87390   0.28852   0.82020   0.00000  Uiso   1.00
N864   N     0.88903   0.27162   0.85106   0.00000  Uiso   1.00
O865   O     0.10559   0.53821   0.74999   0.00000  Uiso   1.00
O866   O     0.22774   0.46179   0.75000   0.00000  Uiso   1.00
O867   O     0.22774   0.53821   0.75000   0.00000  Uiso   1.00
O868   O     0.10559   0.46179   0.74999   0.00000  Uiso   1.00
C869   C     0.08672   0.49922   0.75129   0.00000  Uiso   1.00
C870   C     0.24661   0.50078   0.74872   0.00000  Uiso   1.00
O871   O     0.16666   0.53823   0.68392   0.00000  Uiso   1.00
O872   O     0.16667   0.46177   0.81607   0.00000  Uiso   1.00
O873   O     0.16667   0.53823   0.81607   0.00000  Uiso   1.00
O874   O     0.16666   0.46177   0.68392   0.00000  Uiso   1.00
C875   C     0.16619   0.49975   0.66366   0.00000  Uiso   1.00
C876   C     0.16715   0.50025   0.83633   0.00000  Uiso   1.00
Zn877  Zn    0.16667   0.55104   0.75000   0.00000  Uiso   1.00
Zn878  Zn    0.16667   0.44896   0.75000   0.00000  Uiso   1.00
C879   C     0.20607   0.50180   0.90824   0.00000  Uiso   1.00
C880   C     0.12727   0.49822   0.59176   0.00000  Uiso   1.00
C881   C     0.16825   0.50078   0.88403   0.00000  Uiso   1.00
C882   C     0.16509   0.49922   0.61597   0.00000  Uiso   1.00
C883   C     0.13061   0.49946   0.90493   0.00000  Uiso   1.00
C884   C     0.20273   0.50053   0.59507   0.00000  Uiso   1.00
C885   C     0.12972   0.49921   0.95117   0.00000  Uiso   1.00
C886   C     0.20362   0.50078   0.54882   0.00000  Uiso   1.00
C887   C     0.16721   0.50022   0.97659   0.00000  Uiso   1.00
C888   C     0.16613   0.49978   0.52341   0.00000  Uiso   1.00
C889   C     0.20572   0.50157   0.95521   0.00000  Uiso   1.00
C890   C     0.12761   0.49843   0.54479   0.00000  Uiso   1.00
C891   C     0.09183   0.49785   0.97220   0.00000  Uiso   1.00
C892   C     0.24151   0.50215   0.52779   0.00000  Uiso   1.00
C893   C     0.09070   0.49747   0.51863   0.00000  Uiso   1.00
C894   C     0.24264   0.50253   0.98137   0.00000  Uiso   1.00
H895   H     0.10200   0.49834   0.88494   0.00000  Uiso   1.00
H896   H     0.23133   0.50164   0.61506   0.00000  Uiso   1.00
H897   H     0.06301   0.49707   0.95270   0.00000  Uiso   1.00
H898   H     0.27033   0.50292   0.54730   0.00000  Uiso   1.00
H899   H     0.06076   0.49642   0.53375   0.00000  Uiso   1.00
H900   H     0.27257   0.50359   0.96625   0.00000  Uiso   1.00
C901   C     0.01913   0.46114   0.73433   0.00000  Uiso   1.00
C902   C     0.31420   0.53887   0.76567   0.00000  Uiso   1.00
C903   C     0.31010   0.46412   0.72938   0.00000  Uiso   1.00
C904   C     0.02324   0.53589   0.77064   0.00000  Uiso   1.00
C905   C     0.29086   0.50221   0.74645   0.00000  Uiso   1.00
C906   C     0.04247   0.49780   0.75356   0.00000  Uiso   1.00
C907   C     0.18873   0.35859   0.78206   0.00000  Uiso   1.00
C908   C     0.14460   0.64141   0.71794   0.00000  Uiso   1.00
C909   C     0.14546   0.35599   0.71724   0.00000  Uiso   1.00
C910   C     0.18788   0.64401   0.78275   0.00000  Uiso   1.00
N911   N     0.16667   0.61907   0.75000   0.00000  Uiso   1.00
N912   N     0.16667   0.38093   0.75000   0.00000  Uiso   1.00
C913   C     0.24462   0.50261   0.88471   0.00000  Uiso   1.00
N914   N     0.27538   0.50312   0.86602   0.00000  Uiso   1.00
C915   C     0.08871   0.49745   0.61529   0.00000  Uiso   1.00
N916   N     0.05796   0.49698   0.63397   0.00000  Uiso   1.00
N917   N     0.03793   0.42110   0.71863   0.00000  Uiso   1.00
O918   O     0.05093   0.39216   0.74781   0.00000  Uiso   1.00
O919   O     0.03143   0.40797   0.67715   0.00000  Uiso   1.00
N920   N     0.29541   0.57895   0.78128   0.00000  Uiso   1.00
O921   O     0.28240   0.60783   0.75203   0.00000  Uiso   1.00
O922   O     0.30194   0.59218   0.82274   0.00000  Uiso   1.00
N923   N     0.28676   0.42839   0.70631   0.00000  Uiso   1.00
O924   O     0.26526   0.43668   0.66994   0.00000  Uiso   1.00
O925   O     0.28681   0.38763   0.72176   0.00000  Uiso   1.00
N926   N     0.04658   0.57162   0.79371   0.00000  Uiso   1.00
O927   O     0.06807   0.56334   0.83009   0.00000  Uiso   1.00
O928   O     0.04658   0.61236   0.77822   0.00000  Uiso   1.00
C929   C     0.21443   0.38389   0.81441   0.00000  Uiso   1.00
N930   N     0.23539   0.40364   0.84045   0.00000  Uiso   1.00
C931   C     0.11890   0.61612   0.68559   0.00000  Uiso   1.00
N932   N     0.09793   0.59637   0.65956   0.00000  Uiso   1.00
C933   C     0.12610   0.37815   0.67980   0.00000  Uiso   1.00
N934   N     0.11098   0.39504   0.64893   0.00000  Uiso   1.00
C935   C     0.20724   0.62185   0.82020   0.00000  Uiso   1.00
N936   N     0.22237   0.60496   0.85106   0.00000  Uiso   1.00
O937   O     0.43892   0.53821   0.74999   0.00000  Uiso   1.00
O938   O     0.56108   0.46179   0.75000   0.00000  Uiso   1.00
O939   O     0.56108   0.53821   0.75000   0.00000  Uiso   1.00
O940   O     0.43892   0.46179   0.74999   0.00000  Uiso   1.00
C941   C     0.42006   0.49922   0.75129   0.00000  Uiso   1.00
C942   C     0.57994   0.50078   0.74872   0.00000  Uiso   1.00
O943   O     0.49999   0.53823   0.68392   0.00000  Uiso   1.00
O944   O     0.50001   0.46177   0.81607   0.00000  Uiso   1.00
O945   O     0.50001   0.53823   0.81607   0.00000  Uiso   1.00
O946   O     0.49999   0.46177   0.68392   0.00000  Uiso   1.00
C947   C     0.49952   0.49975   0.66366   0.00000  Uiso   1.00
C948   C     0.50048   0.50025   0.83633   0.00000  Uiso   1.00
Zn949  Zn    0.50000   0.55104   0.75000   0.00000  Uiso   1.00
Zn950  Zn    0.50000   0.44896   0.75000   0.00000  Uiso   1.00
C951   C     0.53940   0.50180   0.90824   0.00000  Uiso   1.00
C952   C     0.46060   0.49822   0.59176   0.00000  Uiso   1.00
C953   C     0.50158   0.50078   0.88403   0.00000  Uiso   1.00
C954   C     0.49842   0.49922   0.61597   0.00000  Uiso   1.00
C955   C     0.46394   0.49946   0.90493   0.00000  Uiso   1.00
C956   C     0.53606   0.50053   0.59507   0.00000  Uiso   1.00
C957   C     0.46305   0.49921   0.95117   0.00000  Uiso   1.00
C958   C     0.53695   0.50078   0.54882   0.00000  Uiso   1.00
C959   C     0.50055   0.50022   0.97659   0.00000  Uiso   1.00
C960   C     0.49946   0.49978   0.52341   0.00000  Uiso   1.00
C961   C     0.53906   0.50157   0.95521   0.00000  Uiso   1.00
C962   C     0.46095   0.49843   0.54479   0.00000  Uiso   1.00
C963   C     0.42516   0.49785   0.97220   0.00000  Uiso   1.00
C964   C     0.57484   0.50215   0.52779   0.00000  Uiso   1.00
C965   C     0.42403   0.49747   0.51863   0.00000  Uiso   1.00
C966   C     0.57597   0.50253   0.98137   0.00000  Uiso   1.00
H967   H     0.43534   0.49834   0.88494   0.00000  Uiso   1.00
H968   H     0.56467   0.50164   0.61506   0.00000  Uiso   1.00
H969   H     0.39635   0.49707   0.95270   0.00000  Uiso   1.00
H970   H     0.60366   0.50292   0.54730   0.00000  Uiso   1.00
H971   H     0.39410   0.49642   0.53375   0.00000  Uiso   1.00
H972   H     0.60591   0.50359   0.96625   0.00000  Uiso   1.00
C973   C     0.35247   0.46114   0.73433   0.00000  Uiso   1.00
C974   C     0.64754   0.53887   0.76567   0.00000  Uiso   1.00
C975   C     0.64343   0.46412   0.72938   0.00000  Uiso   1.00
C976   C     0.35657   0.53589   0.77064   0.00000  Uiso   1.00
C977   C     0.62420   0.50221   0.74645   0.00000  Uiso   1.00
C978   C     0.37581   0.49780   0.75356   0.00000  Uiso   1.00
C979   C     0.52206   0.35859   0.78206   0.00000  Uiso   1.00
C980   C     0.47793   0.64141   0.71794   0.00000  Uiso   1.00
C981   C     0.47879   0.35599   0.71724   0.00000  Uiso   1.00
C982   C     0.52121   0.64401   0.78275   0.00000  Uiso   1.00
N983   N     0.50000   0.61907   0.75000   0.00000  Uiso   1.00
N984   N     0.50000   0.38093   0.75000   0.00000  Uiso   1.00
C985   C     0.57796   0.50261   0.88471   0.00000  Uiso   1.00
N986   N     0.60871   0.50312   0.86602   0.00000  Uiso   1.00
C987   C     0.42205   0.49745   0.61529   0.00000  Uiso   1.00
N988   N     0.39129   0.49698   0.63397   0.00000  Uiso   1.00
N989   N     0.37126   0.42110   0.71863   0.00000  Uiso   1.00
O990   O     0.38426   0.39216   0.74781   0.00000  Uiso   1.00
O991   O     0.36476   0.40797   0.67715   0.00000  Uiso   1.00
N992   N     0.62875   0.57895   0.78128   0.00000  Uiso   1.00
O993   O     0.61573   0.60783   0.75203   0.00000  Uiso   1.00
O994   O     0.63527   0.59218   0.82274   0.00000  Uiso   1.00
N995   N     0.62009   0.42839   0.70631   0.00000  Uiso   1.00
O996   O     0.59859   0.43668   0.66994   0.00000  Uiso   1.00
O997   O     0.62015   0.38763   0.72176   0.00000  Uiso   1.00
N998   N     0.37991   0.57162   0.79371   0.00000  Uiso   1.00
O999   O     0.40140   0.56334   0.83009   0.00000  Uiso   1.00
O1000  O     0.37992   0.61236   0.77822   0.00000  Uiso   1.00
C1001  C     0.54776   0.38389   0.81441   0.00000  Uiso   1.00
N1002  N     0.56872   0.40364   0.84045   0.00000  Uiso   1.00
C1003  C     0.45224   0.61612   0.68559   0.00000  Uiso   1.00
N1004  N     0.43127   0.59637   0.65956   0.00000  Uiso   1.00
C1005  C     0.45943   0.37815   0.67980   0.00000  Uiso   1.00
N1006  N     0.44431   0.39504   0.64893   0.00000  Uiso   1.00
C1007  C     0.54057   0.62185   0.82020   0.00000  Uiso   1.00
N1008  N     0.55570   0.60496   0.85106   0.00000  Uiso   1.00
O1009  O     0.77226   0.53821   0.74999   0.00000  Uiso   1.00
O1010  O     0.89441   0.46179   0.75000   0.00000  Uiso   1.00
O1011  O     0.89441   0.53821   0.75000   0.00000  Uiso   1.00
O1012  O     0.77226   0.46179   0.74999   0.00000  Uiso   1.00
C1013  C     0.75339   0.49922   0.75129   0.00000  Uiso   1.00
C1014  C     0.91328   0.50078   0.74872   0.00000  Uiso   1.00
O1015  O     0.83333   0.53823   0.68392   0.00000  Uiso   1.00
O1016  O     0.83334   0.46177   0.81607   0.00000  Uiso   1.00
O1017  O     0.83334   0.53823   0.81607   0.00000  Uiso   1.00
O1018  O     0.83333   0.46177   0.68392   0.00000  Uiso   1.00
C1019  C     0.83285   0.49975   0.66366   0.00000  Uiso   1.00
C1020  C     0.83382   0.50025   0.83633   0.00000  Uiso   1.00
Zn1021 Zn    0.83333   0.55104   0.75000   0.00000  Uiso   1.00
Zn1022 Zn    0.83333   0.44896   0.75000   0.00000  Uiso   1.00
C1023  C     0.87274   0.50180   0.90824   0.00000  Uiso   1.00
C1024  C     0.79393   0.49822   0.59176   0.00000  Uiso   1.00
C1025  C     0.83492   0.50078   0.88403   0.00000  Uiso   1.00
C1026  C     0.83175   0.49922   0.61597   0.00000  Uiso   1.00
C1027  C     0.79727   0.49946   0.90493   0.00000  Uiso   1.00
C1028  C     0.86940   0.50053   0.59507   0.00000  Uiso   1.00
C1029  C     0.79638   0.49921   0.95117   0.00000  Uiso   1.00
C1030  C     0.87029   0.50078   0.54882   0.00000  Uiso   1.00
C1031  C     0.83388   0.50022   0.97659   0.00000  Uiso   1.00
C1032  C     0.83279   0.49978   0.52341   0.00000  Uiso   1.00
C1033  C     0.87239   0.50157   0.95521   0.00000  Uiso   1.00
C1034  C     0.79428   0.49843   0.54479   0.00000  Uiso   1.00
C1035  C     0.75850   0.49785   0.97220   0.00000  Uiso   1.00
C1036  C     0.90818   0.50215   0.52779   0.00000  Uiso   1.00
C1037  C     0.75736   0.49747   0.51863   0.00000  Uiso   1.00
C1038  C     0.90931   0.50253   0.98137   0.00000  Uiso   1.00
H1039  H     0.76867   0.49834   0.88494   0.00000  Uiso   1.00
H1040  H     0.89800   0.50164   0.61506   0.00000  Uiso   1.00
H1041  H     0.72968   0.49707   0.95270   0.00000  Uiso   1.00
H1042  H     0.93699   0.50292   0.54730   0.00000  Uiso   1.00
H1043  H     0.72743   0.49642   0.53375   0.00000  Uiso   1.00
H1044  H     0.93924   0.50359   0.96625   0.00000  Uiso   1.00
C1045  C     0.68580   0.46114   0.73433   0.00000  Uiso   1.00
C1046  C     0.98087   0.53887   0.76567   0.00000  Uiso   1.00
C1047  C     0.97676   0.46412   0.72938   0.00000  Uiso   1.00
C1048  C     0.68990   0.53589   0.77064   0.00000  Uiso   1.00
C1049  C     0.95753   0.50221   0.74645   0.00000  Uiso   1.00
C1050  C     0.70914   0.49780   0.75356   0.00000  Uiso   1.00
C1051  C     0.85540   0.35859   0.78206   0.00000  Uiso   1.00
C1052  C     0.81127   0.64141   0.71794   0.00000  Uiso   1.00
C1053  C     0.81212   0.35599   0.71724   0.00000  Uiso   1.00
C1054  C     0.85454   0.64401   0.78275   0.00000  Uiso   1.00
N1055  N     0.83333   0.61907   0.75000   0.00000  Uiso   1.00
N1056  N     0.83333   0.38093   0.75000   0.00000  Uiso   1.00
C1057  C     0.91129   0.50261   0.88471   0.00000  Uiso   1.00
N1058  N     0.94205   0.50312   0.86602   0.00000  Uiso   1.00
C1059  C     0.75538   0.49745   0.61529   0.00000  Uiso   1.00
N1060  N     0.72462   0.49698   0.63397   0.00000  Uiso   1.00
N1061  N     0.70459   0.42110   0.71863   0.00000  Uiso   1.00
O1062  O     0.71759   0.39216   0.74781   0.00000  Uiso   1.00
O1063  O     0.69809   0.40797   0.67715   0.00000  Uiso   1.00
N1064  N     0.96208   0.57895   0.78128   0.00000  Uiso   1.00
O1065  O     0.94907   0.60783   0.75203   0.00000  Uiso   1.00
O1066  O     0.96861   0.59218   0.82274   0.00000  Uiso   1.00
N1067  N     0.95343   0.42839   0.70631   0.00000  Uiso   1.00
O1068  O     0.93193   0.43668   0.66994   0.00000  Uiso   1.00
O1069  O     0.95348   0.38763   0.72176   0.00000  Uiso   1.00
N1070  N     0.71324   0.57162   0.79371   0.00000  Uiso   1.00
O1071  O     0.73474   0.56334   0.83009   0.00000  Uiso   1.00
O1072  O     0.71325   0.61236   0.77822   0.00000  Uiso   1.00
C1073  C     0.88109   0.38389   0.81441   0.00000  Uiso   1.00
N1074  N     0.90206   0.40364   0.84045   0.00000  Uiso   1.00
C1075  C     0.78557   0.61612   0.68559   0.00000  Uiso   1.00
N1076  N     0.76460   0.59637   0.65956   0.00000  Uiso   1.00
C1077  C     0.79277   0.37815   0.67980   0.00000  Uiso   1.00
N1078  N     0.77764   0.39504   0.64893   0.00000  Uiso   1.00
C1079  C     0.87390   0.62185   0.82020   0.00000  Uiso   1.00
N1080  N     0.88903   0.60496   0.85106   0.00000  Uiso   1.00
O1081  O     0.10559   0.87154   0.74999   0.00000  Uiso   1.00
O1082  O     0.22774   0.79513   0.75000   0.00000  Uiso   1.00
O1083  O     0.22774   0.87154   0.75000   0.00000  Uiso   1.00
O1084  O     0.10559   0.79513   0.74999   0.00000  Uiso   1.00
C1085  C     0.08672   0.83256   0.75129   0.00000  Uiso   1.00
C1086  C     0.24661   0.83411   0.74872   0.00000  Uiso   1.00
O1087  O     0.16666   0.87156   0.68392   0.00000  Uiso   1.00
O1088  O     0.16667   0.79511   0.81607   0.00000  Uiso   1.00
O1089  O     0.16667   0.87156   0.81607   0.00000  Uiso   1.00
O1090  O     0.16666   0.79511   0.68392   0.00000  Uiso   1.00
C1091  C     0.16619   0.83308   0.66366   0.00000  Uiso   1.00
C1092  C     0.16715   0.83359   0.83633   0.00000  Uiso   1.00
Zn1093 Zn    0.16667   0.88437   0.75000   0.00000  Uiso   1.00
Zn1094 Zn    0.16667   0.78229   0.75000   0.00000  Uiso   1.00
C1095  C     0.20607   0.83513   0.90824   0.00000  Uiso   1.00
C1096  C     0.12727   0.83155   0.59176   0.00000  Uiso   1.00
C1097  C     0.16825   0.83411   0.88403   0.00000  Uiso   1.00
C1098  C     0.16509   0.83256   0.61597   0.00000  Uiso   1.00
C1099  C     0.13061   0.83279   0.90493   0.00000  Uiso   1.00
C1100  C     0.20273   0.83387   0.59507   0.00000  Uiso   1.00
C1101  C     0.12972   0.83255   0.95117   0.00000  Uiso   1.00
C1102  C     0.20362   0.83411   0.54882   0.00000  Uiso   1.00
C1103  C     0.16721   0.83355   0.97659   0.00000  Uiso   1.00
C1104  C     0.16613   0.83311   0.52341   0.00000  Uiso   1.00
C1105  C     0.20572   0.83490   0.95521   0.00000  Uiso   1.00
C1106  C     0.12761   0.83177   0.54479   0.00000  Uiso   1.00
C1107  C     0.09183   0.83118   0.97220   0.00000  Uiso   1.00
C1108  C     0.24151   0.83548   0.52779   0.00000  Uiso   1.00
C1109  C     0.09070   0.83081   0.51863   0.00000  Uiso   1.00
C1110  C     0.24264   0.83586   0.98137   0.00000  Uiso   1.00
H1111  H     0.10200   0.83167   0.88494   0.00000  Uiso   1.00
H1112  H     0.23133   0.83498   0.61506   0.00000  Uiso   1.00
H1113  H     0.06301   0.83041   0.95270   0.00000  Uiso   1.00
H1114  H     0.27033   0.83625   0.54730   0.00000  Uiso   1.00
H1115  H     0.06076   0.82975   0.53375   0.00000  Uiso   1.00
H1116  H     0.27257   0.83692   0.96625   0.00000  Uiso   1.00
C1117  C     0.01913   0.79448   0.73433   0.00000  Uiso   1.00
C1118  C     0.31420   0.87221   0.76567   0.00000  Uiso   1.00
C1119  C     0.31010   0.79745   0.72938   0.00000  Uiso   1.00
C1120  C     0.02324   0.86923   0.77064   0.00000  Uiso   1.00
C1121  C     0.29086   0.83554   0.74645   0.00000  Uiso   1.00
C1122  C     0.04247   0.83113   0.75356   0.00000  Uiso   1.00
C1123  C     0.18873   0.69192   0.78206   0.00000  Uiso   1.00
C1124  C     0.14460   0.97474   0.71794   0.00000  Uiso   1.00
C1125  C     0.14546   0.68933   0.71724   0.00000  Uiso   1.00
C1126  C     0.18788   0.97734   0.78275   0.00000  Uiso   1.00
N1127  N     0.16667   0.95240   0.75000   0.00000  Uiso   1.00
N1128  N     0.16667   0.71427   0.75000   0.00000  Uiso   1.00
C1129  C     0.24462   0.83594   0.88471   0.00000  Uiso   1.00
N1130  N     0.27538   0.83646   0.86602   0.00000  Uiso   1.00
C1131  C     0.08871   0.83078   0.61529   0.00000  Uiso   1.00
N1132  N     0.05796   0.83031   0.63397   0.00000  Uiso   1.00
N1133  N     0.03793   0.75444   0.71863   0.00000  Uiso   1.00
O1134  O     0.05093   0.72550   0.74781   0.00000  Uiso   1.00
O1135  O     0.03143   0.74130   0.67715   0.00000  Uiso   1.00
N1136  N     0.29541   0.91228   0.78128   0.00000  Uiso   1.00
O1137  O     0.28240   0.94116   0.75203   0.00000  Uiso   1.00
O1138  O     0.30194   0.92551   0.82274   0.00000  Uiso   1.00
N1139  N     0.28676   0.76172   0.70631   0.00000  Uiso   1.00
O1140  O     0.26526   0.77001   0.66994   0.00000  Uiso   1.00
O1141  O     0.28681   0.72097   0.72176   0.00000  Uiso   1.00
N1142  N     0.04658   0.90496   0.79371   0.00000  Uiso   1.00
O1143  O     0.06807   0.89667   0.83009   0.00000  Uiso   1.00
O1144  O     0.04658   0.94569   0.77822   0.00000  Uiso   1.00
C1145  C     0.21443   0.71722   0.81441   0.00000  Uiso   1.00
N1146  N     0.23539   0.73697   0.84045   0.00000  Uiso   1.00
C1147  C     0.11890   0.94945   0.68559   0.00000  Uiso   1.00
N1148  N     0.09793   0.92970   0.65956   0.00000  Uiso   1.00
C1149  C     0.12610   0.71148   0.67980   0.00000  Uiso   1.00
N1150  N     0.11098   0.72837   0.64893   0.00000  Uiso   1.00
C1151  C     0.20724   0.95518   0.82020   0.00000  Uiso   1.00
N1152  N     0.22237   0.93829   0.85106   0.00000  Uiso   1.00
O1153  O     0.43892   0.87154   0.74999   0.00000  Uiso   1.00
O1154  O     0.56108   0.79513   0.75000   0.00000  Uiso   1.00
O1155  O     0.56108   0.87154   0.75000   0.00000  Uiso   1.00
O1156  O     0.43892   0.79513   0.74999   0.00000  Uiso   1.00
C1157  C     0.42006   0.83256   0.75129   0.00000  Uiso   1.00
C1158  C     0.57994   0.83411   0.74872   0.00000  Uiso   1.00
O1159  O     0.49999   0.87156   0.68392   0.00000  Uiso   1.00
O1160  O     0.50001   0.79511   0.81607   0.00000  Uiso   1.00
O1161  O     0.50001   0.87156   0.81607   0.00000  Uiso   1.00
O1162  O     0.49999   0.79511   0.68392   0.00000  Uiso   1.00
C1163  C     0.49952   0.83308   0.66366   0.00000  Uiso   1.00
C1164  C     0.50048   0.83359   0.83633   0.00000  Uiso   1.00
Zn1165 Zn    0.50000   0.88437   0.75000   0.00000  Uiso   1.00
Zn1166 Zn    0.50000   0.78229   0.75000   0.00000  Uiso   1.00
C1167  C     0.53940   0.83513   0.90824   0.00000  Uiso   1.00
C1168  C     0.46060   0.83155   0.59176   0.00000  Uiso   1.00
C1169  C     0.50158   0.83411   0.88403   0.00000  Uiso   1.00
C1170  C     0.49842   0.83256   0.61597   0.00000  Uiso   1.00
C1171  C     0.46394   0.83279   0.90493   0.00000  Uiso   1.00
C1172  C     0.53606   0.83387   0.59507   0.00000  Uiso   1.00
C1173  C     0.46305   0.83255   0.95117   0.00000  Uiso   1.00
C1174  C     0.53695   0.83411   0.54882   0.00000  Uiso   1.00
C1175  C     0.50055   0.83355   0.97659   0.00000  Uiso   1.00
C1176  C     0.49946   0.83311   0.52341   0.00000  Uiso   1.00
C1177  C     0.53906   0.83490   0.95521   0.00000  Uiso   1.00
C1178  C     0.46095   0.83177   0.54479   0.00000  Uiso   1.00
C1179  C     0.42516   0.83118   0.97220   0.00000  Uiso   1.00
C1180  C     0.57484   0.83548   0.52779   0.00000  Uiso   1.00
C1181  C     0.42403   0.83081   0.51863   0.00000  Uiso   1.00
C1182  C     0.57597   0.83586   0.98137   0.00000  Uiso   1.00
H1183  H     0.43534   0.83167   0.88494   0.00000  Uiso   1.00
H1184  H     0.56467   0.83498   0.61506   0.00000  Uiso   1.00
H1185  H     0.39635   0.83041   0.95270   0.00000  Uiso   1.00
H1186  H     0.60366   0.83625   0.54730   0.00000  Uiso   1.00
H1187  H     0.39410   0.82975   0.53375   0.00000  Uiso   1.00
H1188  H     0.60591   0.83692   0.96625   0.00000  Uiso   1.00
C1189  C     0.35247   0.79448   0.73433   0.00000  Uiso   1.00
C1190  C     0.64754   0.87221   0.76567   0.00000  Uiso   1.00
C1191  C     0.64343   0.79745   0.72938   0.00000  Uiso   1.00
C1192  C     0.35657   0.86923   0.77064   0.00000  Uiso   1.00
C1193  C     0.62420   0.83554   0.74645   0.00000  Uiso   1.00
C1194  C     0.37581   0.83113   0.75356   0.00000  Uiso   1.00
C1195  C     0.52206   0.69192   0.78206   0.00000  Uiso   1.00
C1196  C     0.47793   0.97474   0.71794   0.00000  Uiso   1.00
C1197  C     0.47879   0.68933   0.71724   0.00000  Uiso   1.00
C1198  C     0.52121   0.97734   0.78275   0.00000  Uiso   1.00
N1199  N     0.50000   0.95240   0.75000   0.00000  Uiso   1.00
N1200  N     0.50000   0.71427   0.75000   0.00000  Uiso   1.00
C1201  C     0.57796   0.83594   0.88471   0.00000  Uiso   1.00
N1202  N     0.60871   0.83646   0.86602   0.00000  Uiso   1.00
C1203  C     0.42205   0.83078   0.61529   0.00000  Uiso   1.00
N1204  N     0.39129   0.83031   0.63397   0.00000  Uiso   1.00
N1205  N     0.37126   0.75444   0.71863   0.00000  Uiso   1.00
O1206  O     0.38426   0.72550   0.74781   0.00000  Uiso   1.00
O1207  O     0.36476   0.74130   0.67715   0.00000  Uiso   1.00
N1208  N     0.62875   0.91228   0.78128   0.00000  Uiso   1.00
O1209  O     0.61573   0.94116   0.75203   0.00000  Uiso   1.00
O1210  O     0.63527   0.92551   0.82274   0.00000  Uiso   1.00
N1211  N     0.62009   0.76172   0.70631   0.00000  Uiso   1.00
O1212  O     0.59859   0.77001   0.66994   0.00000  Uiso   1.00
O1213  O     0.62015   0.72097   0.72176   0.00000  Uiso   1.00
N1214  N     0.37991   0.90496   0.79371   0.00000  Uiso   1.00
O1215  O     0.40140   0.89667   0.83009   0.00000  Uiso   1.00
O1216  O     0.37992   0.94569   0.77822   0.00000  Uiso   1.00
C1217  C     0.54776   0.71722   0.81441   0.00000  Uiso   1.00
N1218  N     0.56872   0.73697   0.84045   0.00000  Uiso   1.00
C1219  C     0.45224   0.94945   0.68559   0.00000  Uiso   1.00
N1220  N     0.43127   0.92970   0.65956   0.00000  Uiso   1.00
C1221  C     0.45943   0.71148   0.67980   0.00000  Uiso   1.00
N1222  N     0.44431   0.72837   0.64893   0.00000  Uiso   1.00
C1223  C     0.54057   0.95518   0.82020   0.00000  Uiso   1.00
N1224  N     0.55570   0.93829   0.85106   0.00000  Uiso   1.00
O1225  O     0.77226   0.87154   0.74999   0.00000  Uiso   1.00
O1226  O     0.89441   0.79513   0.75000   0.00000  Uiso   1.00
O1227  O     0.89441   0.87154   0.75000   0.00000  Uiso   1.00
O1228  O     0.77226   0.79513   0.74999   0.00000  Uiso   1.00
C1229  C     0.75339   0.83256   0.75129   0.00000  Uiso   1.00
C1230  C     0.91328   0.83411   0.74872   0.00000  Uiso   1.00
O1231  O     0.83333   0.87156   0.68392   0.00000  Uiso   1.00
O1232  O     0.83334   0.79511   0.81607   0.00000  Uiso   1.00
O1233  O     0.83334   0.87156   0.81607   0.00000  Uiso   1.00
O1234  O     0.83333   0.79511   0.68392   0.00000  Uiso   1.00
C1235  C     0.83285   0.83308   0.66366   0.00000  Uiso   1.00
C1236  C     0.83382   0.83359   0.83633   0.00000  Uiso   1.00
Zn1237 Zn    0.83333   0.88437   0.75000   0.00000  Uiso   1.00
Zn1238 Zn    0.83333   0.78229   0.75000   0.00000  Uiso   1.00
C1239  C     0.87274   0.83513   0.90824   0.00000  Uiso   1.00
C1240  C     0.79393   0.83155   0.59176   0.00000  Uiso   1.00
C1241  C     0.83492   0.83411   0.88403   0.00000  Uiso   1.00
C1242  C     0.83175   0.83256   0.61597   0.00000  Uiso   1.00
C1243  C     0.79727   0.83279   0.90493   0.00000  Uiso   1.00
C1244  C     0.86940   0.83387   0.59507   0.00000  Uiso   1.00
C1245  C     0.79638   0.83255   0.95117   0.00000  Uiso   1.00
C1246  C     0.87029   0.83411   0.54882   0.00000  Uiso   1.00
C1247  C     0.83388   0.83355   0.97659   0.00000  Uiso   1.00
C1248  C     0.83279   0.83311   0.52341   0.00000  Uiso   1.00
C1249  C     0.87239   0.83490   0.95521   0.00000  Uiso   1.00
C1250  C     0.79428   0.83177   0.54479   0.00000  Uiso   1.00
C1251  C     0.75850   0.83118   0.97220   0.00000  Uiso   1.00
C1252  C     0.90818   0.83548   0.52779   0.00000  Uiso   1.00
C1253  C     0.75736   0.83081   0.51863   0.00000  Uiso   1.00
C1254  C     0.90931   0.83586   0.98137   0.00000  Uiso   1.00
H1255  H     0.76867   0.83167   0.88494   0.00000  Uiso   1.00
H1256  H     0.89800   0.83498   0.61506   0.00000  Uiso   1.00
H1257  H     0.72968   0.83041   0.95270   0.00000  Uiso   1.00
H1258  H     0.93699   0.83625   0.54730   0.00000  Uiso   1.00
H1259  H     0.72743   0.82975   0.53375   0.00000  Uiso   1.00
H1260  H     0.93924   0.83692   0.96625   0.00000  Uiso   1.00
C1261  C     0.68580   0.79448   0.73433   0.00000  Uiso   1.00
C1262  C     0.98087   0.87221   0.76567   0.00000  Uiso   1.00
C1263  C     0.97676   0.79745   0.72938   0.00000  Uiso   1.00
C1264  C     0.68990   0.86923   0.77064   0.00000  Uiso   1.00
C1265  C     0.95753   0.83554   0.74645   0.00000  Uiso   1.00
C1266  C     0.70914   0.83113   0.75356   0.00000  Uiso   1.00
C1267  C     0.85540   0.69192   0.78206   0.00000  Uiso   1.00
C1268  C     0.81127   0.97474   0.71794   0.00000  Uiso   1.00
C1269  C     0.81212   0.68933   0.71724   0.00000  Uiso   1.00
C1270  C     0.85454   0.97734   0.78275   0.00000  Uiso   1.00
N1271  N     0.83333   0.95240   0.75000   0.00000  Uiso   1.00
N1272  N     0.83333   0.71427   0.75000   0.00000  Uiso   1.00
C1273  C     0.91129   0.83594   0.88471   0.00000  Uiso   1.00
N1274  N     0.94205   0.83646   0.86602   0.00000  Uiso   1.00
C1275  C     0.75538   0.83078   0.61529   0.00000  Uiso   1.00
N1276  N     0.72462   0.83031   0.63397   0.00000  Uiso   1.00
N1277  N     0.70459   0.75444   0.71863   0.00000  Uiso   1.00
O1278  O     0.71759   0.72550   0.74781   0.00000  Uiso   1.00
O1279  O     0.69809   0.74130   0.67715   0.00000  Uiso   1.00
N1280  N     0.96208   0.91228   0.78128   0.00000  Uiso   1.00
O1281  O     0.94907   0.94116   0.75203   0.00000  Uiso   1.00
O1282  O     0.96861   0.92551   0.82274   0.00000  Uiso   1.00
N1283  N     0.95343   0.76172   0.70631   0.00000  Uiso   1.00
O1284  O     0.93193   0.77001   0.66994   0.00000  Uiso   1.00
O1285  O     0.95348   0.72097   0.72176   0.00000  Uiso   1.00
N1286  N     0.71324   0.90496   0.79371   0.00000  Uiso   1.00
O1287  O     0.73474   0.89667   0.83009   0.00000  Uiso   1.00
O1288  O     0.71325   0.94569   0.77822   0.00000  Uiso   1.00
C1289  C     0.88109   0.71722   0.81441   0.00000  Uiso   1.00
N1290  N     0.90206   0.73697   0.84045   0.00000  Uiso   1.00
C1291  C     0.78557   0.94945   0.68559   0.00000  Uiso   1.00
N1292  N     0.76460   0.92970   0.65956   0.00000  Uiso   1.00
C1293  C     0.79277   0.71148   0.67980   0.00000  Uiso   1.00
N1294  N     0.77764   0.72837   0.64893   0.00000  Uiso   1.00
C1295  C     0.87390   0.95518   0.82020   0.00000  Uiso   1.00
N1296  N     0.88903   0.93829   0.85106   0.00000  Uiso   1.00
loop_
_geom_bond_atom_site_label_1
_geom_bond_atom_site_label_2
_geom_bond_distance
_geom_bond_site_symmetry_2
_ccdc_geom_bond_type
O1     C5      1.294   .     A
O1     Zn13    2.004   .     S
O2     C6      1.294   .     A
O2     Zn14    2.004   .     S
O3     Zn13    2.029   .     S
O3     C6      1.288   .     A
O4     Zn14    2.029   .     S
O4     C5      1.288   .     A
C5     C42     1.438   .     S
C6     C41     1.438   .     S
O7     C11     1.286   .     A
O7     Zn13    2.002   .     S
O8     C12     1.286   .     A
O8     Zn14    2.002   .     S
O9     Zn13    2.011   .     S
O9     C12     1.287   .     A
O10    C11     1.287   .     A
O10    Zn14    2.011   .     S
C11    C18     1.421   .     S
C12    C17     1.421   .     S
Zn13   N47     2.022   .     S
Zn14   N48     2.022   .     S
C15    C49     1.452   .     S
C15    C25     1.401   .     A
C15    C17     1.402   .     A
C16    C51     1.452   .     S
C16    C26     1.401   .     A
C16    C18     1.402   .     A
C17    C19     1.387   .     A
C18    C20     1.387   .     A
C19    H31     1.086   .     S
C19    C21     1.380   .     A
C20    C22     1.380   .     A
C20    H32     1.086   .     S
C21    C27     1.396   .     A
C21    C23     1.411   .     A
C22    C28     1.396   .     A
C22    C24     1.411   .     A
C23    C25     1.419   .     A
C23    C672    1.398   .     S
C24    C26     1.419   .     A
C24    C671    1.398   1_554 S
C25    C30     1.407   .     A
C26    C29     1.407   .     A
C27    H33     1.084   .     S
C27    C677    1.386   .     S
C28    H34     1.084   .     S
C28    C678    1.386   1_554 S
C29    H35     1.083   .     S
C29    C675    1.386   1_554 S
C30    H36     1.083   .     S
C30    C676    1.386   .     S
C37    N53     1.435   .     S
C37    C42     1.411   .     A
C37    C183    1.383   1_455 S
C38    N56     1.435   .     S
C38    C41     1.411   .     A
C38    C112    1.383   .     S
C39    N59     1.439   .     S
C39    C41     1.408   .     A
C39    C109    1.383   .     S
C40    C42     1.408   .     A
C40    N62     1.439   .     S
C40    C182    1.383   1_455 S
C43    N48     1.368   .     A
C43    C65     1.442   .     S
C43    C478    1.424   1_545 S
C44    N47     1.368   .     A
C44    C67     1.442   .     S
C44    C261    1.424   .     S
C45    N48     1.372   .     A
C45    C69     1.441   .     S
C45    C476    1.424   1_545 S
C46    C71     1.441   .     S
C46    N47     1.372   .     A
C46    C259    1.424   .     S
C49    N50     1.157   .     T
C51    N52     1.157   .     T
N53    O54     1.302   .     A
N53    O55     1.301   .     A
N56    O57     1.302   .     A
N56    O58     1.301   .     A
N59    O60     1.301   .     A
N59    O61     1.302   .     A
N62    O63     1.301   .     A
N62    O64     1.302   .     A
C65    N66     1.157   .     T
C67    N68     1.157   .     T
C69    N70     1.157   .     T
C71    N72     1.157   .     T
O73    C77     1.294   .     A
O73    Zn85    2.004   .     S
O74    C78     1.294   .     A
O74    Zn86    2.004   .     S
O75    Zn85    2.029   .     S
O75    C78     1.288   .     A
O76    Zn86    2.029   .     S
O76    C77     1.288   .     A
C77    C114    1.438   .     S
C78    C113    1.438   .     S
O79    C83     1.286   .     A
O79    Zn85    2.002   .     S
O80    C84     1.286   .     A
O80    Zn86    2.002   .     S
O81    Zn85    2.011   .     S
O81    C84     1.287   .     A
O82    C83     1.287   .     A
O82    Zn86    2.011   .     S
C83    C90     1.421   .     S
C84    C89     1.421   .     S
Zn85   N119    2.022   .     S
Zn86   N120    2.022   .     S
C87    C121    1.452   .     S
C87    C97     1.401   .     A
C87    C89     1.402   .     A
C88    C123    1.452   .     S
C88    C98     1.401   .     A
C88    C90     1.402   .     A
C89    C91     1.387   .     A
C90    C92     1.387   .     A
C91    H103    1.086   .     S
C91    C93     1.380   .     A
C92    C94     1.380   .     A
C92    H104    1.086   .     S
C93    C99     1.396   .     A
C93    C95     1.411   .     A
C94    C100    1.396   .     A
C94    C96     1.411   .     A
C95    C97     1.419   .     A
C95    C744    1.398   .     S
C96    C98     1.419   .     A
C96    C743    1.398   1_554 S
C97    C102    1.407   .     A
C98    C101    1.407   .     A
C99    H105    1.084   .     S
C99    C749    1.386   .     S
C100   H106    1.084   .     S
C100   C750    1.386   1_554 S
C101   H107    1.083   .     S
C101   C747    1.386   1_554 S
C102   H108    1.083   .     S
C102   C748    1.386   .     S
C109   N125    1.435   .     S
C109   C114    1.411   .     A
C110   N128    1.435   .     S
C110   C113    1.411   .     A
C110   C184    1.383   .     S
C111   N131    1.439   .     S
C111   C113    1.408   .     A
C111   C181    1.383   .     S
C112   C114    1.408   .     A
C112   N134    1.439   .     S
C115   N120    1.368   .     A
C115   C137    1.442   .     S
C115   C550    1.424   1_545 S
C116   N119    1.368   .     A
C116   C139    1.442   .     S
C116   C333    1.424   .     S
C117   N120    1.372   .     A
C117   C141    1.441   .     S
C117   C548    1.424   1_545 S
C118   C143    1.441   .     S
C118   N119    1.372   .     A
C118   C331    1.424   .     S
C121   N122    1.157   .     T
C123   N124    1.157   .     T
N125   O126    1.302   .     A
N125   O127    1.301   .     A
N128   O129    1.302   .     A
N128   O130    1.301   .     A
N131   O132    1.301   .     A
N131   O133    1.302   .     A
N134   O135    1.301   .     A
N134   O136    1.302   .     A
C137   N138    1.157   .     T
C139   N140    1.157   .     T
C141   N142    1.157   .     T
C143   N144    1.157   .     T
O145   C149    1.294   .     A
O145   Zn157   2.004   .     S
O146   C150    1.294   .     A
O146   Zn158   2.004   .     S
O147   Zn157   2.029   .     S
O147   C150    1.288   .     A
O148   Zn158   2.029   .     S
O148   C149    1.288   .     A
C149   C186    1.438   .     S
C150   C185    1.438   .     S
O151   C155    1.286   .     A
O151   Zn157   2.002   .     S
O152   C156    1.286   .     A
O152   Zn158   2.002   .     S
O153   Zn157   2.011   .     S
O153   C156    1.287   .     A
O154   C155    1.287   .     A
O154   Zn158   2.011   .     S
C155   C162    1.421   .     S
C156   C161    1.421   .     S
Zn157  N191    2.022   .     S
Zn158  N192    2.022   .     S
C159   C193    1.452   .     S
C159   C169    1.401   .     A
C159   C161    1.402   .     A
C160   C195    1.452   .     S
C160   C170    1.401   .     A
C160   C162    1.402   .     A
C161   C163    1.387   .     A
C162   C164    1.387   .     A
C163   H175    1.086   .     S
C163   C165    1.380   .     A
C164   C166    1.380   .     A
C164   H176    1.086   .     S
C165   C171    1.396   .     A
C165   C167    1.411   .     A
C166   C172    1.396   .     A
C166   C168    1.411   .     A
C167   C169    1.419   .     A
C167   C816    1.398   .     S
C168   C170    1.419   .     A
C168   C815    1.398   1_554 S
C169   C174    1.407   .     A
C170   C173    1.407   .     A
C171   H177    1.084   .     S
C171   C821    1.386   .     S
C172   H178    1.084   .     S
C172   C822    1.386   1_554 S
C173   H179    1.083   .     S
C173   C819    1.386   1_554 S
C174   H180    1.083   .     S
C174   C820    1.386   .     S
C181   N197    1.435   .     S
C181   C186    1.411   .     A
C182   N200    1.435   .     S
C182   C185    1.411   .     A
C182   C40     1.383   1_655 S
C183   N203    1.439   .     S
C183   C185    1.408   .     A
C183   C37     1.383   1_655 S
C184   C186    1.408   .     A
C184   N206    1.439   .     S
C187   N192    1.368   .     A
C187   C209    1.442   .     S
C187   C622    1.424   1_545 S
C188   N191    1.368   .     A
C188   C211    1.442   .     S
C188   C405    1.424   .     S
C189   N192    1.372   .     A
C189   C213    1.441   .     S
C189   C620    1.424   1_545 S
C190   C215    1.441   .     S
C190   N191    1.372   .     A
C190   C403    1.424   .     S
C193   N194    1.157   .     T
C195   N196    1.157   .     T
N197   O198    1.302   .     A
N197   O199    1.301   .     A
N200   O201    1.302   .     A
N200   O202    1.301   .     A
N203   O204    1.301   .     A
N203   O205    1.302   .     A
N206   O207    1.301   .     A
N206   O208    1.302   .     A
C209   N210    1.157   .     T
C211   N212    1.157   .     T
C213   N214    1.157   .     T
C215   N216    1.157   .     T
O217   C221    1.294   .     A
O217   Zn229   2.004   .     S
O218   C222    1.294   .     A
O218   Zn230   2.004   .     S
O219   Zn229   2.029   .     S
O219   C222    1.288   .     A
O220   Zn230   2.029   .     S
O220   C221    1.288   .     A
C221   C258    1.438   .     S
C222   C257    1.438   .     S
O223   C227    1.286   .     A
O223   Zn229   2.002   .     S
O224   C228    1.286   .     A
O224   Zn230   2.002   .     S
O225   Zn229   2.011   .     S
O225   C228    1.287   .     A
O226   C227    1.287   .     A
O226   Zn230   2.011   .     S
C227   C234    1.421   .     S
C228   C233    1.421   .     S
Zn229  N263    2.022   .     S
Zn230  N264    2.022   .     S
C231   C265    1.452   .     S
C231   C241    1.401   .     A
C231   C233    1.402   .     A
C232   C267    1.452   .     S
C232   C242    1.401   .     A
C232   C234    1.402   .     A
C233   C235    1.387   .     A
C234   C236    1.387   .     A
C235   H247    1.086   .     S
C235   C237    1.380   .     A
C236   C238    1.380   .     A
C236   H248    1.086   .     S
C237   C243    1.396   .     A
C237   C239    1.411   .     A
C238   C244    1.396   .     A
C238   C240    1.411   .     A
C239   C241    1.419   .     A
C239   C888    1.398   .     S
C240   C242    1.419   .     A
C240   C887    1.398   1_554 S
C241   C246    1.407   .     A
C242   C245    1.407   .     A
C243   H249    1.084   .     S
C243   C893    1.386   .     S
C244   H250    1.084   .     S
C244   C894    1.386   1_554 S
C245   H251    1.083   .     S
C245   C891    1.386   1_554 S
C246   H252    1.083   .     S
C246   C892    1.386   .     S
C253   N269    1.435   .     S
C253   C258    1.411   .     A
C253   C399    1.383   1_455 S
C254   N272    1.435   .     S
C254   C257    1.411   .     A
C254   C328    1.383   .     S
C255   N275    1.439   .     S
C255   C257    1.408   .     A
C255   C325    1.383   .     S
C256   C258    1.408   .     A
C256   N278    1.439   .     S
C256   C398    1.383   1_455 S
C259   N264    1.368   .     A
C259   C281    1.442   .     S
C260   N263    1.368   .     A
C260   C283    1.442   .     S
C260   C477    1.424   .     S
C261   N264    1.372   .     A
C261   C285    1.441   .     S
C262   C287    1.441   .     S
C262   N263    1.372   .     A
C262   C475    1.424   .     S
C265   N266    1.157   .     T
C267   N268    1.157   .     T
N269   O270    1.302   .     A
N269   O271    1.301   .     A
N272   O273    1.302   .     A
N272   O274    1.301   .     A
N275   O276    1.301   .     A
N275   O277    1.302   .     A
N278   O279    1.301   .     A
N278   O280    1.302   .     A
C281   N282    1.157   .     T
C283   N284    1.157   .     T
C285   N286    1.157   .     T
C287   N288    1.157   .     T
O289   C293    1.294   .     A
O289   Zn301   2.004   .     S
O290   C294    1.294   .     A
O290   Zn302   2.004   .     S
O291   Zn301   2.029   .     S
O291   C294    1.288   .     A
O292   Zn302   2.029   .     S
O292   C293    1.288   .     A
C293   C330    1.438   .     S
C294   C329    1.438   .     S
O295   C299    1.286   .     A
O295   Zn301   2.002   .     S
O296   C300    1.286   .     A
O296   Zn302   2.002   .     S
O297   Zn301   2.011   .     S
O297   C300    1.287   .     A
O298   C299    1.287   .     A
O298   Zn302   2.011   .     S
C299   C306    1.421   .     S
C300   C305    1.421   .     S
Zn301  N335    2.022   .     S
Zn302  N336    2.022   .     S
C303   C337    1.452   .     S
C303   C313    1.401   .     A
C303   C305    1.402   .     A
C304   C339    1.452   .     S
C304   C314    1.401   .     A
C304   C306    1.402   .     A
C305   C307    1.387   .     A
C306   C308    1.387   .     A
C307   H319    1.086   .     S
C307   C309    1.380   .     A
C308   C310    1.380   .     A
C308   H320    1.086   .     S
C309   C315    1.396   .     A
C309   C311    1.411   .     A
C310   C316    1.396   .     A
C310   C312    1.411   .     A
C311   C313    1.419   .     A
C311   C960    1.398   .     S
C312   C314    1.419   .     A
C312   C959    1.398   1_554 S
C313   C318    1.407   .     A
C314   C317    1.407   .     A
C315   H321    1.084   .     S
C315   C965    1.386   .     S
C316   H322    1.084   .     S
C316   C966    1.386   1_554 S
C317   H323    1.083   .     S
C317   C963    1.386   1_554 S
C318   H324    1.083   .     S
C318   C964    1.386   .     S
C325   N341    1.435   .     S
C325   C330    1.411   .     A
C326   N344    1.435   .     S
C326   C329    1.411   .     A
C326   C400    1.383   .     S
C327   N347    1.439   .     S
C327   C329    1.408   .     A
C327   C397    1.383   .     S
C328   C330    1.408   .     A
C328   N350    1.439   .     S
C331   N336    1.368   .     A
C331   C353    1.442   .     S
C332   N335    1.368   .     A
C332   C355    1.442   .     S
C332   C549    1.424   .     S
C333   N336    1.372   .     A
C333   C357    1.441   .     S
C334   C359    1.441   .     S
C334   N335    1.372   .     A
C334   C547    1.424   .     S
C337   N338    1.157   .     T
C339   N340    1.157   .     T
N341   O342    1.302   .     A
N341   O343    1.301   .     A
N344   O345    1.302   .     A
N344   O346    1.301   .     A
N347   O348    1.301   .     A
N347   O349    1.302   .     A
N350   O351    1.301   .     A
N350   O352    1.302   .     A
C353   N354    1.157   .     T
C355   N356    1.157   .     T
C357   N358    1.157   .     T
C359   N360    1.157   .     T
O361   C365    1.294   .     A
O361   Zn373   2.004   .     S
O362   C366    1.294   .     A
O362   Zn374   2.004   .     S
O363   Zn373   2.029   .     S
O363   C366    1.288   .     A
O364   Zn374   2.029   .     S
O364   C365    1.288   .     A
C365   C402    1.438   .     S
C366   C401    1.438   .     S
O367   C371    1.286   .     A
O367   Zn373   2.002   .     S
O368   C372    1.286   .     A
O368   Zn374   2.002   .     S
O369   Zn373   2.011   .     S
O369   C372    1.287   .     A
O370   C371    1.287   .     A
O370   Zn374   2.011   .     S
C371   C378    1.421   .     S
C372   C377    1.421   .     S
Zn373  N407    2.022   .     S
Zn374  N408    2.022   .     S
C375   C409    1.452   .     S
C375   C385    1.401   .     A
C375   C377    1.402   .     A
C376   C411    1.452   .     S
C376   C386    1.401   .     A
C376   C378    1.402   .     A
C377   C379    1.387   .     A
C378   C380    1.387   .     A
C379   H391    1.086   .     S
C379   C381    1.380   .     A
C380   C382    1.380   .     A
C380   H392    1.086   .     S
C381   C387    1.396   .     A
C381   C383    1.411   .     A
C382   C388    1.396   .     A
C382   C384    1.411   .     A
C383   C385    1.419   .     A
C383   C1032   1.398   .     S
C384   C386    1.419   .     A
C384   C1031   1.398   1_554 S
C385   C390    1.407   .     A
C386   C389    1.407   .     A
C387   H393    1.084   .     S
C387   C1037   1.386   .     S
C388   H394    1.084   .     S
C388   C1038   1.386   1_554 S
C389   H395    1.083   .     S
C389   C1035   1.386   1_554 S
C390   H396    1.083   .     S
C390   C1036   1.386   .     S
C397   N413    1.435   .     S
C397   C402    1.411   .     A
C398   N416    1.435   .     S
C398   C401    1.411   .     A
C398   C256    1.383   1_655 S
C399   N419    1.439   .     S
C399   C401    1.408   .     A
C399   C253    1.383   1_655 S
C400   C402    1.408   .     A
C400   N422    1.439   .     S
C403   N408    1.368   .     A
C403   C425    1.442   .     S
C404   N407    1.368   .     A
C404   C427    1.442   .     S
C404   C621    1.424   .     S
C405   N408    1.372   .     A
C405   C429    1.441   .     S
C406   C431    1.441   .     S
C406   N407    1.372   .     A
C406   C619    1.424   .     S
C409   N410    1.157   .     T
C411   N412    1.157   .     T
N413   O414    1.302   .     A
N413   O415    1.301   .     A
N416   O417    1.302   .     A
N416   O418    1.301   .     A
N419   O420    1.301   .     A
N419   O421    1.302   .     A
N422   O423    1.301   .     A
N422   O424    1.302   .     A
C425   N426    1.157   .     T
C427   N428    1.157   .     T
C429   N430    1.157   .     T
C431   N432    1.157   .     T
O433   C437    1.294   .     A
O433   Zn445   2.004   .     S
O434   C438    1.294   .     A
O434   Zn446   2.004   .     S
O435   Zn445   2.029   .     S
O435   C438    1.288   .     A
O436   Zn446   2.029   .     S
O436   C437    1.288   .     A
C437   C474    1.438   .     S
C438   C473    1.438   .     S
O439   C443    1.286   .     A
O439   Zn445   2.002   .     S
O440   C444    1.286   .     A
O440   Zn446   2.002   .     S
O441   Zn445   2.011   .     S
O441   C444    1.287   .     A
O442   C443    1.287   .     A
O442   Zn446   2.011   .     S
C443   C450    1.421   .     S
C444   C449    1.421   .     S
Zn445  N479    2.022   .     S
Zn446  N480    2.022   .     S
C447   C481    1.452   .     S
C447   C457    1.401   .     A
C447   C449    1.402   .     A
C448   C483    1.452   .     S
C448   C458    1.401   .     A
C448   C450    1.402   .     A
C449   C451    1.387   .     A
C450   C452    1.387   .     A
C451   H463    1.086   .     S
C451   C453    1.380   .     A
C452   C454    1.380   .     A
C452   H464    1.086   .     S
C453   C459    1.396   .     A
C453   C455    1.411   .     A
C454   C460    1.396   .     A
C454   C456    1.411   .     A
C455   C457    1.419   .     A
C455   C1104   1.398   .     S
C456   C458    1.419   .     A
C456   C1103   1.398   1_554 S
C457   C462    1.407   .     A
C458   C461    1.407   .     A
C459   H465    1.084   .     S
C459   C1109   1.386   .     S
C460   H466    1.084   .     S
C460   C1110   1.386   1_554 S
C461   H467    1.083   .     S
C461   C1107   1.386   1_554 S
C462   H468    1.083   .     S
C462   C1108   1.386   .     S
C469   N485    1.435   .     S
C469   C474    1.411   .     A
C469   C615    1.383   1_455 S
C470   N488    1.435   .     S
C470   C473    1.411   .     A
C470   C544    1.383   .     S
C471   N491    1.439   .     S
C471   C473    1.408   .     A
C471   C541    1.383   .     S
C472   C474    1.408   .     A
C472   N494    1.439   .     S
C472   C614    1.383   1_455 S
C475   N480    1.368   .     A
C475   C497    1.442   .     S
C476   N479    1.368   .     A
C476   C499    1.442   .     S
C476   C45     1.424   1_565 S
C477   N480    1.372   .     A
C477   C501    1.441   .     S
C478   C503    1.441   .     S
C478   N479    1.372   .     A
C478   C43     1.424   1_565 S
C481   N482    1.157   .     T
C483   N484    1.157   .     T
N485   O486    1.302   .     A
N485   O487    1.301   .     A
N488   O489    1.302   .     A
N488   O490    1.301   .     A
N491   O492    1.301   .     A
N491   O493    1.302   .     A
N494   O495    1.301   .     A
N494   O496    1.302   .     A
C497   N498    1.157   .     T
C499   N500    1.157   .     T
C501   N502    1.157   .     T
C503   N504    1.157   .     T
O505   C509    1.294   .     A
O505   Zn517   2.004   .     S
O506   C510    1.294   .     A
O506   Zn518   2.004   .     S
O507   Zn517   2.029   .     S
O507   C510    1.288   .     A
O508   Zn518   2.029   .     S
O508   C509    1.288   .     A
C509   C546    1.438   .     S
C510   C545    1.438   .     S
O511   C515    1.286   .     A
O511   Zn517   2.002   .     S
O512   C516    1.286   .     A
O512   Zn518   2.002   .     S
O513   Zn517   2.011   .     S
O513   C516    1.287   .     A
O514   C515    1.287   .     A
O514   Zn518   2.011   .     S
C515   C522    1.421   .     S
C516   C521    1.421   .     S
Zn517  N551    2.022   .     S
Zn518  N552    2.022   .     S
C519   C553    1.452   .     S
C519   C529    1.401   .     A
C519   C521    1.402   .     A
C520   C555    1.452   .     S
C520   C530    1.401   .     A
C520   C522    1.402   .     A
C521   C523    1.387   .     A
C522   C524    1.387   .     A
C523   H535    1.086   .     S
C523   C525    1.380   .     A
C524   C526    1.380   .     A
C524   H536    1.086   .     S
C525   C531    1.396   .     A
C525   C527    1.411   .     A
C526   C532    1.396   .     A
C526   C528    1.411   .     A
C527   C529    1.419   .     A
C527   C1176   1.398   .     S
C528   C530    1.419   .     A
C528   C1175   1.398   1_554 S
C529   C534    1.407   .     A
C530   C533    1.407   .     A
C531   H537    1.084   .     S
C531   C1181   1.386   .     S
C532   H538    1.084   .     S
C532   C1182   1.386   1_554 S
C533   H539    1.083   .     S
C533   C1179   1.386   1_554 S
C534   H540    1.083   .     S
C534   C1180   1.386   .     S
C541   N557    1.435   .     S
C541   C546    1.411   .     A
C542   N560    1.435   .     S
C542   C545    1.411   .     A
C542   C616    1.383   .     S
C543   N563    1.439   .     S
C543   C545    1.408   .     A
C543   C613    1.383   .     S
C544   C546    1.408   .     A
C544   N566    1.439   .     S
C547   N552    1.368   .     A
C547   C569    1.442   .     S
C548   N551    1.368   .     A
C548   C571    1.442   .     S
C548   C117    1.424   1_565 S
C549   N552    1.372   .     A
C549   C573    1.441   .     S
C550   C575    1.441   .     S
C550   N551    1.372   .     A
C550   C115    1.424   1_565 S
C553   N554    1.157   .     T
C555   N556    1.157   .     T
N557   O558    1.302   .     A
N557   O559    1.301   .     A
N560   O561    1.302   .     A
N560   O562    1.301   .     A
N563   O564    1.301   .     A
N563   O565    1.302   .     A
N566   O567    1.301   .     A
N566   O568    1.302   .     A
C569   N570    1.157   .     T
C571   N572    1.157   .     T
C573   N574    1.157   .     T
C575   N576    1.157   .     T
O577   C581    1.294   .     A
O577   Zn589   2.004   .     S
O578   C582    1.294   .     A
O578   Zn590   2.004   .     S
O579   Zn589   2.029   .     S
O579   C582    1.288   .     A
O580   Zn590   2.029   .     S
O580   C581    1.288   .     A
C581   C618    1.438   .     S
C582   C617    1.438   .     S
O583   C587    1.286   .     A
O583   Zn589   2.002   .     S
O584   C588    1.286   .     A
O584   Zn590   2.002   .     S
O585   Zn589   2.011   .     S
O585   C588    1.287   .     A
O586   C587    1.287   .     A
O586   Zn590   2.011   .     S
C587   C594    1.421   .     S
C588   C593    1.421   .     S
Zn589  N623    2.022   .     S
Zn590  N624    2.022   .     S
C591   C625    1.452   .     S
C591   C601    1.401   .     A
C591   C593    1.402   .     A
C592   C627    1.452   .     S
C592   C602    1.401   .     A
C592   C594    1.402   .     A
C593   C595    1.387   .     A
C594   C596    1.387   .     A
C595   H607    1.086   .     S
C595   C597    1.380   .     A
C596   C598    1.380   .     A
C596   H608    1.086   .     S
C597   C603    1.396   .     A
C597   C599    1.411   .     A
C598   C604    1.396   .     A
C598   C600    1.411   .     A
C599   C601    1.419   .     A
C599   C1248   1.398   .     S
C600   C602    1.419   .     A
C600   C1247   1.398   1_554 S
C601   C606    1.407   .     A
C602   C605    1.407   .     A
C603   H609    1.084   .     S
C603   C1253   1.386   .     S
C604   H610    1.084   .     S
C604   C1254   1.386   1_554 S
C605   H611    1.083   .     S
C605   C1251   1.386   1_554 S
C606   H612    1.083   .     S
C606   C1252   1.386   .     S
C613   N629    1.435   .     S
C613   C618    1.411   .     A
C614   N632    1.435   .     S
C614   C617    1.411   .     A
C614   C472    1.383   1_655 S
C615   N635    1.439   .     S
C615   C617    1.408   .     A
C615   C469    1.383   1_655 S
C616   C618    1.408   .     A
C616   N638    1.439   .     S
C619   N624    1.368   .     A
C619   C641    1.442   .     S
C620   N623    1.368   .     A
C620   C643    1.442   .     S
C620   C189    1.424   1_565 S
C621   N624    1.372   .     A
C621   C645    1.441   .     S
C622   C647    1.441   .     S
C622   N623    1.372   .     A
C622   C187    1.424   1_565 S
C625   N626    1.157   .     T
C627   N628    1.157   .     T
N629   O630    1.302   .     A
N629   O631    1.301   .     A
N632   O633    1.302   .     A
N632   O634    1.301   .     A
N635   O636    1.301   .     A
N635   O637    1.302   .     A
N638   O639    1.301   .     A
N638   O640    1.302   .     A
C641   N642    1.157   .     T
C643   N644    1.157   .     T
C645   N646    1.157   .     T
C647   N648    1.157   .     T
O649   C653    1.294   .     A
O649   Zn661   2.004   .     S
O650   C654    1.294   .     A
O650   Zn662   2.004   .     S
O651   Zn661   2.029   .     S
O651   C654    1.288   .     A
O652   Zn662   2.029   .     S
O652   C653    1.288   .     A
C653   C690    1.438   .     S
C654   C689    1.438   .     S
O655   C659    1.286   .     A
O655   Zn661   2.002   .     S
O656   C660    1.286   .     A
O656   Zn662   2.002   .     S
O657   Zn661   2.011   .     S
O657   C660    1.287   .     A
O658   C659    1.287   .     A
O658   Zn662   2.011   .     S
C659   C666    1.421   .     S
C660   C665    1.421   .     S
Zn661  N695    2.022   .     S
Zn662  N696    2.022   .     S
C663   C697    1.452   .     S
C663   C673    1.401   .     A
C663   C665    1.402   .     A
C664   C699    1.452   .     S
C664   C674    1.401   .     A
C664   C666    1.402   .     A
C665   C667    1.387   .     A
C666   C668    1.387   .     A
C667   H679    1.086   .     S
C667   C669    1.380   .     A
C668   C670    1.380   .     A
C668   H680    1.086   .     S
C669   C675    1.396   .     A
C669   C671    1.411   .     A
C670   C676    1.396   .     A
C670   C672    1.411   .     A
C671   C673    1.419   .     A
C671   C24     1.398   1_556 S
C672   C674    1.419   .     A
C673   C678    1.407   .     A
C674   C677    1.407   .     A
C675   H681    1.084   .     S
C675   C29     1.386   1_556 S
C676   H682    1.084   .     S
C677   H683    1.083   .     S
C678   H684    1.083   .     S
C678   C28     1.386   1_556 S
C685   N701    1.435   .     S
C685   C690    1.411   .     A
C685   C831    1.383   1_455 S
C686   N704    1.435   .     S
C686   C689    1.411   .     A
C686   C760    1.383   .     S
C687   N707    1.439   .     S
C687   C689    1.408   .     A
C687   C757    1.383   .     S
C688   C690    1.408   .     A
C688   N710    1.439   .     S
C688   C830    1.383   1_455 S
C691   N696    1.368   .     A
C691   C713    1.442   .     S
C691   C1126   1.424   1_545 S
C692   N695    1.368   .     A
C692   C715    1.442   .     S
C692   C909    1.424   .     S
C693   N696    1.372   .     A
C693   C717    1.441   .     S
C693   C1124   1.424   1_545 S
C694   C719    1.441   .     S
C694   N695    1.372   .     A
C694   C907    1.424   .     S
C697   N698    1.157   .     T
C699   N700    1.157   .     T
N701   O702    1.302   .     A
N701   O703    1.301   .     A
N704   O705    1.302   .     A
N704   O706    1.301   .     A
N707   O708    1.301   .     A
N707   O709    1.302   .     A
N710   O711    1.301   .     A
N710   O712    1.302   .     A
C713   N714    1.157   .     T
C715   N716    1.157   .     T
C717   N718    1.157   .     T
C719   N720    1.157   .     T
O721   C725    1.294   .     A
O721   Zn733   2.004   .     S
O722   C726    1.294   .     A
O722   Zn734   2.004   .     S
O723   Zn733   2.029   .     S
O723   C726    1.288   .     A
O724   Zn734   2.029   .     S
O724   C725    1.288   .     A
C725   C762    1.438   .     S
C726   C761    1.438   .     S
O727   C731    1.286   .     A
O727   Zn733   2.002   .     S
O728   C732    1.286   .     A
O728   Zn734   2.002   .     S
O729   Zn733   2.011   .     S
O729   C732    1.287   .     A
O730   C731    1.287   .     A
O730   Zn734   2.011   .     S
C731   C738    1.421   .     S
C732   C737    1.421   .     S
Zn733  N767    2.022   .     S
Zn734  N768    2.022   .     S
C735   C769    1.452   .     S
C735   C745    1.401   .     A
C735   C737    1.402   .     A
C736   C771    1.452   .     S
C736   C746    1.401   .     A
C736   C738    1.402   .     A
C737   C739    1.387   .     A
C738   C740    1.387   .     A
C739   H751    1.086   .     S
C739   C741    1.380   .     A
C740   C742    1.380   .     A
C740   H752    1.086   .     S
C741   C747    1.396   .     A
C741   C743    1.411   .     A
C742   C748    1.396   .     A
C742   C744    1.411   .     A
C743   C745    1.419   .     A
C743   C96     1.398   1_556 S
C744   C746    1.419   .     A
C745   C750    1.407   .     A
C746   C749    1.407   .     A
C747   H753    1.084   .     S
C747   C101    1.386   1_556 S
C748   H754    1.084   .     S
C749   H755    1.083   .     S
C750   H756    1.083   .     S
C750   C100    1.386   1_556 S
C757   N773    1.435   .     S
C757   C762    1.411   .     A
C758   N776    1.435   .     S
C758   C761    1.411   .     A
C758   C832    1.383   .     S
C759   N779    1.439   .     S
C759   C761    1.408   .     A
C759   C829    1.383   .     S
C760   C762    1.408   .     A
C760   N782    1.439   .     S
C763   N768    1.368   .     A
C763   C785    1.442   .     S
C763   C1198   1.424   1_545 S
C764   N767    1.368   .     A
C764   C787    1.442   .     S
C764   C981    1.424   .     S
C765   N768    1.372   .     A
C765   C789    1.441   .     S
C765   C1196   1.424   1_545 S
C766   C791    1.441   .     S
C766   N767    1.372   .     A
C766   C979    1.424   .     S
C769   N770    1.157   .     T
C771   N772    1.157   .     T
N773   O774    1.302   .     A
N773   O775    1.301   .     A
N776   O777    1.302   .     A
N776   O778    1.301   .     A
N779   O780    1.301   .     A
N779   O781    1.302   .     A
N782   O783    1.301   .     A
N782   O784    1.302   .     A
C785   N786    1.157   .     T
C787   N788    1.157   .     T
C789   N790    1.157   .     T
C791   N792    1.157   .     T
O793   C797    1.294   .     A
O793   Zn805   2.004   .     S
O794   C798    1.294   .     A
O794   Zn806   2.004   .     S
O795   Zn805   2.029   .     S
O795   C798    1.288   .     A
O796   Zn806   2.029   .     S
O796   C797    1.288   .     A
C797   C834    1.438   .     S
C798   C833    1.438   .     S
O799   C803    1.286   .     A
O799   Zn805   2.002   .     S
O800   C804    1.286   .     A
O800   Zn806   2.002   .     S
O801   Zn805   2.011   .     S
O801   C804    1.287   .     A
O802   C803    1.287   .     A
O802   Zn806   2.011   .     S
C803   C810    1.421   .     S
C804   C809    1.421   .     S
Zn805  N839    2.022   .     S
Zn806  N840    2.022   .     S
C807   C841    1.452   .     S
C807   C817    1.401   .     A
C807   C809    1.402   .     A
C808   C843    1.452   .     S
C808   C818    1.401   .     A
C808   C810    1.402   .     A
C809   C811    1.387   .     A
C810   C812    1.387   .     A
C811   H823    1.086   .     S
C811   C813    1.380   .     A
C812   C814    1.380   .     A
C812   H824    1.086   .     S
C813   C819    1.396   .     A
C813   C815    1.411   .     A
C814   C820    1.396   .     A
C814   C816    1.411   .     A
C815   C817    1.419   .     A
C815   C168    1.398   1_556 S
C816   C818    1.419   .     A
C817   C822    1.407   .     A
C818   C821    1.407   .     A
C819   H825    1.084   .     S
C819   C173    1.386   1_556 S
C820   H826    1.084   .     S
C821   H827    1.083   .     S
C822   H828    1.083   .     S
C822   C172    1.386   1_556 S
C829   N845    1.435   .     S
C829   C834    1.411   .     A
C830   N848    1.435   .     S
C830   C833    1.411   .     A
C830   C688    1.383   1_655 S
C831   N851    1.439   .     S
C831   C833    1.408   .     A
C831   C685    1.383   1_655 S
C832   C834    1.408   .     A
C832   N854    1.439   .     S
C835   N840    1.368   .     A
C835   C857    1.442   .     S
C835   C1270   1.424   1_545 S
C836   N839    1.368   .     A
C836   C859    1.442   .     S
C836   C1053   1.424   .     S
C837   N840    1.372   .     A
C837   C861    1.441   .     S
C837   C1268   1.424   1_545 S
C838   C863    1.441   .     S
C838   N839    1.372   .     A
C838   C1051   1.424   .     S
C841   N842    1.157   .     T
C843   N844    1.157   .     T
N845   O846    1.302   .     A
N845   O847    1.301   .     A
N848   O849    1.302   .     A
N848   O850    1.301   .     A
N851   O852    1.301   .     A
N851   O853    1.302   .     A
N854   O855    1.301   .     A
N854   O856    1.302   .     A
C857   N858    1.157   .     T
C859   N860    1.157   .     T
C861   N862    1.157   .     T
C863   N864    1.157   .     T
O865   C869    1.294   .     A
O865   Zn877   2.004   .     S
O866   C870    1.294   .     A
O866   Zn878   2.004   .     S
O867   Zn877   2.029   .     S
O867   C870    1.288   .     A
O868   Zn878   2.029   .     S
O868   C869    1.288   .     A
C869   C906    1.438   .     S
C870   C905    1.438   .     S
O871   C875    1.286   .     A
O871   Zn877   2.002   .     S
O872   C876    1.286   .     A
O872   Zn878   2.002   .     S
O873   Zn877   2.011   .     S
O873   C876    1.287   .     A
O874   C875    1.287   .     A
O874   Zn878   2.011   .     S
C875   C882    1.421   .     S
C876   C881    1.421   .     S
Zn877  N911    2.022   .     S
Zn878  N912    2.022   .     S
C879   C913    1.452   .     S
C879   C889    1.401   .     A
C879   C881    1.402   .     A
C880   C915    1.452   .     S
C880   C890    1.401   .     A
C880   C882    1.402   .     A
C881   C883    1.387   .     A
C882   C884    1.387   .     A
C883   H895    1.086   .     S
C883   C885    1.380   .     A
C884   C886    1.380   .     A
C884   H896    1.086   .     S
C885   C891    1.396   .     A
C885   C887    1.411   .     A
C886   C892    1.396   .     A
C886   C888    1.411   .     A
C887   C889    1.419   .     A
C887   C240    1.398   1_556 S
C888   C890    1.419   .     A
C889   C894    1.407   .     A
C890   C893    1.407   .     A
C891   H897    1.084   .     S
C891   C245    1.386   1_556 S
C892   H898    1.084   .     S
C893   H899    1.083   .     S
C894   H900    1.083   .     S
C894   C244    1.386   1_556 S
C901   N917    1.435   .     S
C901   C906    1.411   .     A
C901   C1047   1.383   1_455 S
C902   N920    1.435   .     S
C902   C905    1.411   .     A
C902   C976    1.383   .     S
C903   N923    1.439   .     S
C903   C905    1.408   .     A
C903   C973    1.383   .     S
C904   C906    1.408   .     A
C904   N926    1.439   .     S
C904   C1046   1.383   1_455 S
C907   N912    1.368   .     A
C907   C929    1.442   .     S
C908   N911    1.368   .     A
C908   C931    1.442   .     S
C908   C1125   1.424   .     S
C909   N912    1.372   .     A
C909   C933    1.441   .     S
C910   C935    1.441   .     S
C910   N911    1.372   .     A
C910   C1123   1.424   .     S
C913   N914    1.157   .     T
C915   N916    1.157   .     T
N917   O918    1.302   .     A
N917   O919    1.301   .     A
N920   O921    1.302   .     A
N920   O922    1.301   .     A
N923   O924    1.301   .     A
N923   O925    1.302   .     A
N926   O927    1.301   .     A
N926   O928    1.302   .     A
C929   N930    1.157   .     T
C931   N932    1.157   .     T
C933   N934    1.157   .     T
C935   N936    1.157   .     T
O937   C941    1.294   .     A
O937   Zn949   2.004   .     S
O938   C942    1.294   .     A
O938   Zn950   2.004   .     S
O939   Zn949   2.029   .     S
O939   C942    1.288   .     A
O940   Zn950   2.029   .     S
O940   C941    1.288   .     A
C941   C978    1.438   .     S
C942   C977    1.438   .     S
O943   C947    1.286   .     A
O943   Zn949   2.002   .     S
O944   C948    1.286   .     A
O944   Zn950   2.002   .     S
O945   Zn949   2.011   .     S
O945   C948    1.287   .     A
O946   C947    1.287   .     A
O946   Zn950   2.011   .     S
C947   C954    1.421   .     S
C948   C953    1.421   .     S
Zn949  N983    2.022   .     S
Zn950  N984    2.022   .     S
C951   C985    1.452   .     S
C951   C961    1.401   .     A
C951   C953    1.402   .     A
C952   C987    1.452   .     S
C952   C962    1.401   .     A
C952   C954    1.402   .     A
C953   C955    1.387   .     A
C954   C956    1.387   .     A
C955   H967    1.086   .     S
C955   C957    1.380   .     A
C956   C958    1.380   .     A
C956   H968    1.086   .     S
C957   C963    1.396   .     A
C957   C959    1.411   .     A
C958   C964    1.396   .     A
C958   C960    1.411   .     A
C959   C961    1.419   .     A
C959   C312    1.398   1_556 S
C960   C962    1.419   .     A
C961   C966    1.407   .     A
C962   C965    1.407   .     A
C963   H969    1.084   .     S
C963   C317    1.386   1_556 S
C964   H970    1.084   .     S
C965   H971    1.083   .     S
C966   H972    1.083   .     S
C966   C316    1.386   1_556 S
C973   N989    1.435   .     S
C973   C978    1.411   .     A
C974   N992    1.435   .     S
C974   C977    1.411   .     A
C974   C1048   1.383   .     S
C975   N995    1.439   .     S
C975   C977    1.408   .     A
C975   C1045   1.383   .     S
C976   C978    1.408   .     A
C976   N998    1.439   .     S
C979   N984    1.368   .     A
C979   C1001   1.442   .     S
C980   N983    1.368   .     A
C980   C1003   1.442   .     S
C980   C1197   1.424   .     S
C981   N984    1.372   .     A
C981   C1005   1.441   .     S
C982   C1007   1.441   .     S
C982   N983    1.372   .     A
C982   C1195   1.424   .     S
C985   N986    1.157   .     T
C987   N988    1.157   .     T
N989   O990    1.302   .     A
N989   O991    1.301   .     A
N992   O993    1.302   .     A
N992   O994    1.301   .     A
N995   O996    1.301   .     A
N995   O997    1.302   .     A
N998   O999    1.301   .     A
N998   O1000   1.302   .     A
C1001  N1002   1.157   .     T
C1003  N1004   1.157   .     T
C1005  N1006   1.157   .     T
C1007  N1008   1.157   .     T
O1009  C1013   1.294   .     A
O1009  Zn1021  2.004   .     S
O1010  C1014   1.294   .     A
O1010  Zn1022  2.004   .     S
O1011  Zn1021  2.029   .     S
O1011  C1014   1.288   .     A
O1012  Zn1022  2.029   .     S
O1012  C1013   1.288   .     A
C1013  C1050   1.438   .     S
C1014  C1049   1.438   .     S
O1015  C1019   1.286   .     A
O1015  Zn1021  2.002   .     S
O1016  C1020   1.286   .     A
O1016  Zn1022  2.002   .     S
O1017  Zn1021  2.011   .     S
O1017  C1020   1.287   .     A
O1018  C1019   1.287   .     A
O1018  Zn1022  2.011   .     S
C1019  C1026   1.421   .     S
C1020  C1025   1.421   .     S
Zn1021 N1055   2.022   .     S
Zn1022 N1056   2.022   .     S
C1023  C1057   1.452   .     S
C1023  C1033   1.401   .     A
C1023  C1025   1.402   .     A
C1024  C1059   1.452   .     S
C1024  C1034   1.401   .     A
C1024  C1026   1.402   .     A
C1025  C1027   1.387   .     A
C1026  C1028   1.387   .     A
C1027  H1039   1.086   .     S
C1027  C1029   1.380   .     A
C1028  C1030   1.380   .     A
C1028  H1040   1.086   .     S
C1029  C1035   1.396   .     A
C1029  C1031   1.411   .     A
C1030  C1036   1.396   .     A
C1030  C1032   1.411   .     A
C1031  C1033   1.419   .     A
C1031  C384    1.398   1_556 S
C1032  C1034   1.419   .     A
C1033  C1038   1.407   .     A
C1034  C1037   1.407   .     A
C1035  H1041   1.084   .     S
C1035  C389    1.386   1_556 S
C1036  H1042   1.084   .     S
C1037  H1043   1.083   .     S
C1038  H1044   1.083   .     S
C1038  C388    1.386   1_556 S
C1045  N1061   1.435   .     S
C1045  C1050   1.411   .     A
C1046  N1064   1.435   .     S
C1046  C1049   1.411   .     A
C1046  C904    1.383   1_655 S
C1047  N1067   1.439   .     S
C1047  C1049   1.408   .     A
C1047  C901    1.383   1_655 S
C1048  C1050   1.408   .     A
C1048  N1070   1.439   .     S
C1051  N1056   1.368   .     A
C1051  C1073   1.442   .     S
C1052  N1055   1.368   .     A
C1052  C1075   1.442   .     S
C1052  C1269   1.424   .     S
C1053  N1056   1.372   .     A
C1053  C1077   1.441   .     S
C1054  C1079   1.441   .     S
C1054  N1055   1.372   .     A
C1054  C1267   1.424   .     S
C1057  N1058   1.157   .     T
C1059  N1060   1.157   .     T
N1061  O1062   1.302   .     A
N1061  O1063   1.301   .     A
N1064  O1065   1.302   .     A
N1064  O1066   1.301   .     A
N1067  O1068   1.301   .     A
N1067  O1069   1.302   .     A
N1070  O1071   1.301   .     A
N1070  O1072   1.302   .     A
C1073  N1074   1.157   .     T
C1075  N1076   1.157   .     T
C1077  N1078   1.157   .     T
C1079  N1080   1.157   .     T
O1081  C1085   1.294   .     A
O1081  Zn1093  2.004   .     S
O1082  C1086   1.294   .     A
O1082  Zn1094  2.004   .     S
O1083  Zn1093  2.029   .     S
O1083  C1086   1.288   .     A
O1084  Zn1094  2.029   .     S
O1084  C1085   1.288   .     A
C1085  C1122   1.438   .     S
C1086  C1121   1.438   .     S
O1087  C1091   1.286   .     A
O1087  Zn1093  2.002   .     S
O1088  C1092   1.286   .     A
O1088  Zn1094  2.002   .     S
O1089  Zn1093  2.011   .     S
O1089  C1092   1.287   .     A
O1090  C1091   1.287   .     A
O1090  Zn1094  2.011   .     S
C1091  C1098   1.421   .     S
C1092  C1097   1.421   .     S
Zn1093 N1127   2.022   .     S
Zn1094 N1128   2.022   .     S
C1095  C1129   1.452   .     S
C1095  C1105   1.401   .     A
C1095  C1097   1.402   .     A
C1096  C1131   1.452   .     S
C1096  C1106   1.401   .     A
C1096  C1098   1.402   .     A
C1097  C1099   1.387   .     A
C1098  C1100   1.387   .     A
C1099  H1111   1.086   .     S
C1099  C1101   1.380   .     A
C1100  C1102   1.380   .     A
C1100  H1112   1.086   .     S
C1101  C1107   1.396   .     A
C1101  C1103   1.411   .     A
C1102  C1108   1.396   .     A
C1102  C1104   1.411   .     A
C1103  C1105   1.419   .     A
C1103  C456    1.398   1_556 S
C1104  C1106   1.419   .     A
C1105  C1110   1.407   .     A
C1106  C1109   1.407   .     A
C1107  H1113   1.084   .     S
C1107  C461    1.386   1_556 S
C1108  H1114   1.084   .     S
C1109  H1115   1.083   .     S
C1110  H1116   1.083   .     S
C1110  C460    1.386   1_556 S
C1117  N1133   1.435   .     S
C1117  C1122   1.411   .     A
C1117  C1263   1.383   1_455 S
C1118  N1136   1.435   .     S
C1118  C1121   1.411   .     A
C1118  C1192   1.383   .     S
C1119  N1139   1.439   .     S
C1119  C1121   1.408   .     A
C1119  C1189   1.383   .     S
C1120  C1122   1.408   .     A
C1120  N1142   1.439   .     S
C1120  C1262   1.383   1_455 S
C1123  N1128   1.368   .     A
C1123  C1145   1.442   .     S
C1124  N1127   1.368   .     A
C1124  C1147   1.442   .     S
C1124  C693    1.424   1_565 S
C1125  N1128   1.372   .     A
C1125  C1149   1.441   .     S
C1126  C1151   1.441   .     S
C1126  N1127   1.372   .     A
C1126  C691    1.424   1_565 S
C1129  N1130   1.157   .     T
C1131  N1132   1.157   .     T
N1133  O1134   1.302   .     A
N1133  O1135   1.301   .     A
N1136  O1137   1.302   .     A
N1136  O1138   1.301   .     A
N1139  O1140   1.301   .     A
N1139  O1141   1.302   .     A
N1142  O1143   1.301   .     A
N1142  O1144   1.302   .     A
C1145  N1146   1.157   .     T
C1147  N1148   1.157   .     T
C1149  N1150   1.157   .     T
C1151  N1152   1.157   .     T
O1153  C1157   1.294   .     A
O1153  Zn1165  2.004   .     S
O1154  C1158   1.294   .     A
O1154  Zn1166  2.004   .     S
O1155  Zn1165  2.029   .     S
O1155  C1158   1.288   .     A
O1156  Zn1166  2.029   .     S
O1156  C1157   1.288   .     A
C1157  C1194   1.438   .     S
C1158  C1193   1.438   .     S
O1159  C1163   1.286   .     A
O1159  Zn1165  2.002   .     S
O1160  C1164   1.286   .     A
O1160  Zn1166  2.002   .     S
O1161  Zn1165  2.011   .     S
O1161  C1164   1.287   .     A
O1162  C1163   1.287   .     A
O1162  Zn1166  2.011   .     S
C1163  C1170   1.421   .     S
C1164  C1169   1.421   .     S
Zn1165 N1199   2.022   .     S
Zn1166 N1200   2.022   .     S
C1167  C1201   1.452   .     S
C1167  C1177   1.401   .     A
C1167  C1169   1.402   .     A
C1168  C1203   1.452   .     S
C1168  C1178   1.401   .     A
C1168  C1170   1.402   .     A
C1169  C1171   1.387   .     A
C1170  C1172   1.387   .     A
C1171  H1183   1.086   .     S
C1171  C1173   1.380   .     A
C1172  C1174   1.380   .     A
C1172  H1184   1.086   .     S
C1173  C1179   1.396   .     A
C1173  C1175   1.411   .     A
C1174  C1180   1.396   .     A
C1174  C1176   1.411   .     A
C1175  C1177   1.419   .     A
C1175  C528    1.398   1_556 S
C1176  C1178   1.419   .     A
C1177  C1182   1.407   .     A
C1178  C1181   1.407   .     A
C1179  H1185   1.084   .     S
C1179  C533    1.386   1_556 S
C1180  H1186   1.084   .     S
C1181  H1187   1.083   .     S
C1182  H1188   1.083   .     S
C1182  C532    1.386   1_556 S
C1189  N1205   1.435   .     S
C1189  C1194   1.411   .     A
C1190  N1208   1.435   .     S
C1190  C1193   1.411   .     A
C1190  C1264   1.383   .     S
C1191  N1211   1.439   .     S
C1191  C1193   1.408   .     A
C1191  C1261   1.383   .     S
C1192  C1194   1.408   .     A
C1192  N1214   1.439   .     S
C1195  N1200   1.368   .     A
C1195  C1217   1.442   .     S
C1196  N1199   1.368   .     A
C1196  C1219   1.442   .     S
C1196  C765    1.424   1_565 S
C1197  N1200   1.372   .     A
C1197  C1221   1.441   .     S
C1198  C1223   1.441   .     S
C1198  N1199   1.372   .     A
C1198  C763    1.424   1_565 S
C1201  N1202   1.157   .     T
C1203  N1204   1.157   .     T
N1205  O1206   1.302   .     A
N1205  O1207   1.301   .     A
N1208  O1209   1.302   .     A
N1208  O1210   1.301   .     A
N1211  O1212   1.301   .     A
N1211  O1213   1.302   .     A
N1214  O1215   1.301   .     A
N1214  O1216   1.302   .     A
C1217  N1218   1.157   .     T
C1219  N1220   1.157   .     T
C1221  N1222   1.157   .     T
C1223  N1224   1.157   .     T
O1225  C1229   1.294   .     A
O1225  Zn1237  2.004   .     S
O1226  C1230   1.294   .     A
O1226  Zn1238  2.004   .     S
O1227  Zn1237  2.029   .     S
O1227  C1230   1.288   .     A
O1228  Zn1238  2.029   .     S
O1228  C1229   1.288   .     A
C1229  C1266   1.438   .     S
C1230  C1265   1.438   .     S
O1231  C1235   1.286   .     A
O1231  Zn1237  2.002   .     S
O1232  C1236   1.286   .     A
O1232  Zn1238  2.002   .     S
O1233  Zn1237  2.011   .     S
O1233  C1236   1.287   .     A
O1234  C1235   1.287   .     A
O1234  Zn1238  2.011   .     S
C1235  C1242   1.421   .     S
C1236  C1241   1.421   .     S
Zn1237 N1271   2.022   .     S
Zn1238 N1272   2.022   .     S
C1239  C1273   1.452   .     S
C1239  C1249   1.401   .     A
C1239  C1241   1.402   .     A
C1240  C1275   1.452   .     S
C1240  C1250   1.401   .     A
C1240  C1242   1.402   .     A
C1241  C1243   1.387   .     A
C1242  C1244   1.387   .     A
C1243  H1255   1.086   .     S
C1243  C1245   1.380   .     A
C1244  C1246   1.380   .     A
C1244  H1256   1.086   .     S
C1245  C1251   1.396   .     A
C1245  C1247   1.411   .     A
C1246  C1252   1.396   .     A
C1246  C1248   1.411   .     A
C1247  C1249   1.419   .     A
C1247  C600    1.398   1_556 S
C1248  C1250   1.419   .     A
C1249  C1254   1.407   .     A
C1250  C1253   1.407   .     A
C1251  H1257   1.084   .     S
C1251  C605    1.386   1_556 S
C1252  H1258   1.084   .     S
C1253  H1259   1.083   .     S
C1254  H1260   1.083   .     S
C1254  C604    1.386   1_556 S
C1261  N1277   1.435   .     S
C1261  C1266   1.411   .     A
C1262  N1280   1.435   .     S
C1262  C1265   1.411   .     A
C1262  C1120   1.383   1_655 S
C1263  N1283   1.439   .     S
C1263  C1265   1.408   .     A
C1263  C1117   1.383   1_655 S
C1264  C1266   1.408   .     A
C1264  N1286   1.439   .     S
C1267  N1272   1.368   .     A
C1267  C1289   1.442   .     S
C1268  N1271   1.368   .     A
C1268  C1291   1.442   .     S
C1268  C837    1.424   1_565 S
C1269  N1272   1.372   .     A
C1269  C1293   1.441   .     S
C1270  C1295   1.441   .     S
C1270  N1271   1.372   .     A
C1270  C835    1.424   1_565 S
C1273  N1274   1.157   .     T
C1275  N1276   1.157   .     T
N1277  O1278   1.302   .     A
N1277  O1279   1.301   .     A
N1280  O1281   1.302   .     A
N1280  O1282   1.301   .     A
N1283  O1284   1.301   .     A
N1283  O1285   1.302   .     A
N1286  O1287   1.301   .     A
N1286  O1288   1.302   .     A
C1289  N1290   1.157   .     T
C1291  N1292   1.157   .     T
C1293  N1294   1.157   .     T
C1295  N1296   1.157   .     T
