data_str_m3_o2_o10_pcu_sym.184
_audit_creation_date              2020-01-03
_audit_creation_method            'Materials Studio'
_symmetry_space_group_name_H-M    'P1'
_symmetry_Int_Tables_number       1
_symmetry_cell_setting            triclinic
loop_
_symmetry_equiv_pos_as_xyz
  x,y,z
_cell_length_a                    25.8859
_cell_length_b                    29.7258
_cell_length_c                    28.3358
_cell_angle_alpha                 90.1324
_cell_angle_beta                  98.3667
_cell_angle_gamma                 89.9144
loop_
_atom_site_label
_atom_site_type_symbol
_atom_site_fract_x
_atom_site_fract_y
_atom_site_fract_z
_atom_site_U_iso_or_equiv
_atom_site_adp_type
_atom_site_occupancy
O1     O     0.16667   0.18454   0.28974   0.00000  Uiso   1.00
O2     O     0.16666   0.31547   0.21026   0.00000  Uiso   1.00
O3     O     0.16667   0.18453   0.21026   0.00000  Uiso   1.00
O4     O     0.16666   0.31547   0.28974   0.00000  Uiso   1.00
C5     C     0.16767   0.16367   0.25007   0.00000  Uiso   1.00
C6     C     0.16766   0.33628   0.25020   0.00000  Uiso   1.00
O7     O     0.09058   0.25000   0.28045   0.00000  Uiso   1.00
O8     O     0.24275   0.25000   0.21956   0.00000  Uiso   1.00
O9     O     0.09058   0.25000   0.20097   0.00000  Uiso   1.00
O10    O     0.24275   0.25000   0.29904   0.00000  Uiso   1.00
C11    C     0.06715   0.24996   0.23772   0.00000  Uiso   1.00
C12    C     0.26620   0.25025   0.26227   0.00000  Uiso   1.00
Zn13   Zn    0.16667   0.25001   0.30307   0.00000  Uiso   1.00
Zn14   Zn    0.16667   0.25000   0.19693   0.00000  Uiso   1.00
C15    C     0.01293   0.24295   0.23233   0.00000  Uiso   1.00
C16    C     0.32040   0.25762   0.26758   0.00000  Uiso   1.00
C17    C     0.16706   0.04434   0.28826   0.00000  Uiso   1.00
C18    C     0.16367   0.45583   0.21293   0.00000  Uiso   1.00
C19    C     0.15804   0.09012   0.28663   0.00000  Uiso   1.00
C20    C     0.15480   0.41006   0.21227   0.00000  Uiso   1.00
H21    H     0.13619   0.10540   0.31235   0.00000  Uiso   1.00
H22    H     0.13064   0.39504   0.18188   0.00000  Uiso   1.00
C23    C     0.17563   0.11571   0.25101   0.00000  Uiso   1.00
C24    C     0.17561   0.38413   0.25135   0.00000  Uiso   1.00
C25    C     0.20424   0.09598   0.21811   0.00000  Uiso   1.00
C26    C     0.20724   0.40340   0.29041   0.00000  Uiso   1.00
H27    H     0.21912   0.11653   0.19159   0.00000  Uiso   1.00
H28    H     0.22473   0.38241   0.31968   0.00000  Uiso   1.00
C29    C     0.21534   0.05016   0.22028   0.00000  Uiso   1.00
C30    C     0.21803   0.44927   0.29100   0.00000  Uiso   1.00
C31    C     0.19507   0.02421   0.25496   0.00000  Uiso   1.00
C32    C     0.19470   0.47559   0.25225   0.00000  Uiso   1.00
C33    C     0.12507   0.23118   0.04704   0.00000  Uiso   1.00
C34    C     0.19093   0.28467   0.45068   0.00000  Uiso   1.00
H35    H     0.09155   0.21692   0.02481   0.00000  Uiso   1.00
H36    H     0.20948   0.31263   0.47097   0.00000  Uiso   1.00
C37    C     0.12596   0.23137   0.09678   0.00000  Uiso   1.00
C38    C     0.19062   0.28394   0.40101   0.00000  Uiso   1.00
H39    H     0.09384   0.21668   0.11184   0.00000  Uiso   1.00
H40    H     0.20950   0.31072   0.38419   0.00000  Uiso   1.00
N41    N     0.16667   0.24999   0.12624   0.00000  Uiso   1.00
N42    N     0.16667   0.25001   0.37377   0.00000  Uiso   1.00
C43    C     0.20740   0.26857   0.10769   0.00000  Uiso   1.00
C44    C     0.14265   0.21611   0.39446   0.00000  Uiso   1.00
H45    H     0.23956   0.28325   0.13134   0.00000  Uiso   1.00
H46    H     0.12376   0.18934   0.37250   0.00000  Uiso   1.00
C47    C     0.20830   0.26875   0.05818   0.00000  Uiso   1.00
C48    C     0.14234   0.21537   0.44404   0.00000  Uiso   1.00
H49    H     0.24182   0.28300   0.04493   0.00000  Uiso   1.00
H50    H     0.12378   0.18741   0.45925   0.00000  Uiso   1.00
C51    C     0.16667   0.24998   0.02667   0.00000  Uiso   1.00
C52    C     0.16665   0.25001   0.47330   0.00000  Uiso   1.00
N53    N     0.32402   0.21214   0.19542   0.00000  Uiso   1.00
O54    O     0.33086   0.21872   0.15137   0.00000  Uiso   1.00
O55    O     0.30344   0.17449   0.20682   0.00000  Uiso   1.00
N56    N     0.00927   0.28850   0.30448   0.00000  Uiso   1.00
O57    O     0.00123   0.28266   0.34832   0.00000  Uiso   1.00
O58    O     0.03115   0.32558   0.29316   0.00000  Uiso   1.00
F59    F     0.14642   0.01925   0.32091   0.00000  Uiso   1.00
F60    F     0.14012   0.48125   0.17615   0.00000  Uiso   1.00
N61    N     0.24648   0.03056   0.18728   0.00000  Uiso   1.00
O62    O     0.27528   0.49528   0.19908   0.00000  Uiso   1.00
O63    O     0.25015   0.05042   0.14702   0.00000  Uiso   1.00
N64    N     0.25209   0.46849   0.33070   0.00000  Uiso   1.00
O65    O     0.28007   0.00386   0.32497   0.00000  Uiso   1.00
O66    O     0.25911   0.44820   0.37180   0.00000  Uiso   1.00
O67    O     0.50000   0.18454   0.28974   0.00000  Uiso   1.00
O68    O     0.50000   0.31547   0.21026   0.00000  Uiso   1.00
O69    O     0.50000   0.18453   0.21026   0.00000  Uiso   1.00
O70    O     0.50000   0.31547   0.28974   0.00000  Uiso   1.00
C71    C     0.50100   0.16367   0.25007   0.00000  Uiso   1.00
C72    C     0.50099   0.33628   0.25020   0.00000  Uiso   1.00
O73    O     0.42392   0.25000   0.28045   0.00000  Uiso   1.00
O74    O     0.57608   0.25000   0.21956   0.00000  Uiso   1.00
O75    O     0.42392   0.25000   0.20097   0.00000  Uiso   1.00
O76    O     0.57608   0.25000   0.29904   0.00000  Uiso   1.00
C77    C     0.40048   0.24996   0.23772   0.00000  Uiso   1.00
C78    C     0.59953   0.25025   0.26227   0.00000  Uiso   1.00
Zn79   Zn    0.50000   0.25001   0.30307   0.00000  Uiso   1.00
Zn80   Zn    0.50000   0.25000   0.19693   0.00000  Uiso   1.00
C81    C     0.34626   0.24295   0.23233   0.00000  Uiso   1.00
C82    C     0.65373   0.25762   0.26758   0.00000  Uiso   1.00
C83    C     0.50040   0.04434   0.28826   0.00000  Uiso   1.00
C84    C     0.49700   0.45583   0.21293   0.00000  Uiso   1.00
C85    C     0.49138   0.09012   0.28663   0.00000  Uiso   1.00
C86    C     0.48814   0.41006   0.21227   0.00000  Uiso   1.00
H87    H     0.46952   0.10540   0.31235   0.00000  Uiso   1.00
H88    H     0.46397   0.39504   0.18188   0.00000  Uiso   1.00
C89    C     0.50897   0.11571   0.25101   0.00000  Uiso   1.00
C90    C     0.50895   0.38413   0.25135   0.00000  Uiso   1.00
C91    C     0.53757   0.09598   0.21811   0.00000  Uiso   1.00
C92    C     0.54057   0.40340   0.29041   0.00000  Uiso   1.00
H93    H     0.55245   0.11653   0.19159   0.00000  Uiso   1.00
H94    H     0.55807   0.38241   0.31968   0.00000  Uiso   1.00
C95    C     0.54867   0.05016   0.22028   0.00000  Uiso   1.00
C96    C     0.55137   0.44927   0.29100   0.00000  Uiso   1.00
C97    C     0.52840   0.02421   0.25496   0.00000  Uiso   1.00
C98    C     0.52803   0.47559   0.25225   0.00000  Uiso   1.00
C99    C     0.45840   0.23118   0.04704   0.00000  Uiso   1.00
C100   C     0.52426   0.28467   0.45068   0.00000  Uiso   1.00
H101   H     0.42488   0.21692   0.02481   0.00000  Uiso   1.00
H102   H     0.54281   0.31263   0.47097   0.00000  Uiso   1.00
C103   C     0.45929   0.23137   0.09678   0.00000  Uiso   1.00
C104   C     0.52396   0.28394   0.40101   0.00000  Uiso   1.00
H105   H     0.42717   0.21668   0.11184   0.00000  Uiso   1.00
H106   H     0.54283   0.31072   0.38419   0.00000  Uiso   1.00
N107   N     0.50000   0.24999   0.12624   0.00000  Uiso   1.00
N108   N     0.50000   0.25001   0.37377   0.00000  Uiso   1.00
C109   C     0.54074   0.26857   0.10769   0.00000  Uiso   1.00
C110   C     0.47598   0.21611   0.39446   0.00000  Uiso   1.00
H111   H     0.57289   0.28325   0.13134   0.00000  Uiso   1.00
H112   H     0.45709   0.18934   0.37250   0.00000  Uiso   1.00
C113   C     0.54163   0.26875   0.05818   0.00000  Uiso   1.00
C114   C     0.47567   0.21537   0.44404   0.00000  Uiso   1.00
H115   H     0.57516   0.28300   0.04493   0.00000  Uiso   1.00
H116   H     0.45711   0.18741   0.45925   0.00000  Uiso   1.00
C117   C     0.50000   0.24998   0.02667   0.00000  Uiso   1.00
C118   C     0.49998   0.25001   0.47330   0.00000  Uiso   1.00
N119   N     0.65736   0.21214   0.19542   0.00000  Uiso   1.00
O120   O     0.66419   0.21872   0.15137   0.00000  Uiso   1.00
O121   O     0.63678   0.17449   0.20682   0.00000  Uiso   1.00
N122   N     0.34260   0.28850   0.30448   0.00000  Uiso   1.00
O123   O     0.33456   0.28266   0.34832   0.00000  Uiso   1.00
O124   O     0.36448   0.32558   0.29316   0.00000  Uiso   1.00
F125   F     0.47976   0.01925   0.32091   0.00000  Uiso   1.00
F126   F     0.47345   0.48125   0.17615   0.00000  Uiso   1.00
N127   N     0.57981   0.03056   0.18728   0.00000  Uiso   1.00
O128   O     0.60861   0.49528   0.19908   0.00000  Uiso   1.00
O129   O     0.58349   0.05042   0.14702   0.00000  Uiso   1.00
N130   N     0.58543   0.46849   0.33070   0.00000  Uiso   1.00
O131   O     0.61341   0.00386   0.32497   0.00000  Uiso   1.00
O132   O     0.59245   0.44820   0.37180   0.00000  Uiso   1.00
O133   O     0.83334   0.18454   0.28974   0.00000  Uiso   1.00
O134   O     0.83333   0.31547   0.21026   0.00000  Uiso   1.00
O135   O     0.83334   0.18453   0.21026   0.00000  Uiso   1.00
O136   O     0.83333   0.31547   0.28974   0.00000  Uiso   1.00
C137   C     0.83434   0.16367   0.25007   0.00000  Uiso   1.00
C138   C     0.83432   0.33628   0.25020   0.00000  Uiso   1.00
O139   O     0.75725   0.25000   0.28045   0.00000  Uiso   1.00
O140   O     0.90942   0.25000   0.21956   0.00000  Uiso   1.00
O141   O     0.75725   0.25000   0.20097   0.00000  Uiso   1.00
O142   O     0.90942   0.25000   0.29904   0.00000  Uiso   1.00
C143   C     0.73381   0.24996   0.23772   0.00000  Uiso   1.00
C144   C     0.93287   0.25025   0.26227   0.00000  Uiso   1.00
Zn145  Zn    0.83333   0.25001   0.30307   0.00000  Uiso   1.00
Zn146  Zn    0.83333   0.25000   0.19693   0.00000  Uiso   1.00
C147   C     0.67959   0.24295   0.23233   0.00000  Uiso   1.00
C148   C     0.98707   0.25762   0.26758   0.00000  Uiso   1.00
C149   C     0.83373   0.04434   0.28826   0.00000  Uiso   1.00
C150   C     0.83033   0.45583   0.21293   0.00000  Uiso   1.00
C151   C     0.82471   0.09012   0.28663   0.00000  Uiso   1.00
C152   C     0.82147   0.41006   0.21227   0.00000  Uiso   1.00
H153   H     0.80286   0.10540   0.31235   0.00000  Uiso   1.00
H154   H     0.79731   0.39504   0.18188   0.00000  Uiso   1.00
C155   C     0.84230   0.11571   0.25101   0.00000  Uiso   1.00
C156   C     0.84228   0.38413   0.25135   0.00000  Uiso   1.00
C157   C     0.87091   0.09598   0.21811   0.00000  Uiso   1.00
C158   C     0.87391   0.40340   0.29041   0.00000  Uiso   1.00
H159   H     0.88579   0.11653   0.19159   0.00000  Uiso   1.00
H160   H     0.89140   0.38241   0.31968   0.00000  Uiso   1.00
C161   C     0.88201   0.05016   0.22028   0.00000  Uiso   1.00
C162   C     0.88470   0.44927   0.29100   0.00000  Uiso   1.00
C163   C     0.86174   0.02421   0.25496   0.00000  Uiso   1.00
C164   C     0.86137   0.47559   0.25225   0.00000  Uiso   1.00
C165   C     0.79173   0.23118   0.04704   0.00000  Uiso   1.00
C166   C     0.85760   0.28467   0.45068   0.00000  Uiso   1.00
H167   H     0.75821   0.21692   0.02481   0.00000  Uiso   1.00
H168   H     0.87615   0.31263   0.47097   0.00000  Uiso   1.00
C169   C     0.79262   0.23137   0.09678   0.00000  Uiso   1.00
C170   C     0.85729   0.28394   0.40101   0.00000  Uiso   1.00
H171   H     0.76051   0.21668   0.11184   0.00000  Uiso   1.00
H172   H     0.87616   0.31072   0.38419   0.00000  Uiso   1.00
N173   N     0.83333   0.24999   0.12624   0.00000  Uiso   1.00
N174   N     0.83333   0.25001   0.37377   0.00000  Uiso   1.00
C175   C     0.87407   0.26857   0.10769   0.00000  Uiso   1.00
C176   C     0.80932   0.21611   0.39446   0.00000  Uiso   1.00
H177   H     0.90623   0.28325   0.13134   0.00000  Uiso   1.00
H178   H     0.79043   0.18934   0.37250   0.00000  Uiso   1.00
C179   C     0.87496   0.26875   0.05818   0.00000  Uiso   1.00
C180   C     0.80900   0.21537   0.44404   0.00000  Uiso   1.00
H181   H     0.90849   0.28300   0.04493   0.00000  Uiso   1.00
H182   H     0.79044   0.18741   0.45925   0.00000  Uiso   1.00
C183   C     0.83334   0.24998   0.02667   0.00000  Uiso   1.00
C184   C     0.83331   0.25001   0.47330   0.00000  Uiso   1.00
N185   N     0.99069   0.21214   0.19542   0.00000  Uiso   1.00
O186   O     0.99752   0.21872   0.15137   0.00000  Uiso   1.00
O187   O     0.97011   0.17449   0.20682   0.00000  Uiso   1.00
N188   N     0.67594   0.28850   0.30448   0.00000  Uiso   1.00
O189   O     0.66789   0.28266   0.34832   0.00000  Uiso   1.00
O190   O     0.69782   0.32558   0.29316   0.00000  Uiso   1.00
F191   F     0.81309   0.01925   0.32091   0.00000  Uiso   1.00
F192   F     0.80679   0.48125   0.17615   0.00000  Uiso   1.00
N193   N     0.91315   0.03056   0.18728   0.00000  Uiso   1.00
O194   O     0.94194   0.49528   0.19908   0.00000  Uiso   1.00
O195   O     0.91682   0.05042   0.14702   0.00000  Uiso   1.00
N196   N     0.91876   0.46849   0.33070   0.00000  Uiso   1.00
O197   O     0.94674   0.00386   0.32497   0.00000  Uiso   1.00
O198   O     0.92578   0.44820   0.37180   0.00000  Uiso   1.00
O199   O     0.16667   0.68454   0.28974   0.00000  Uiso   1.00
O200   O     0.16666   0.81547   0.21026   0.00000  Uiso   1.00
O201   O     0.16667   0.68453   0.21026   0.00000  Uiso   1.00
O202   O     0.16666   0.81547   0.28974   0.00000  Uiso   1.00
C203   C     0.16767   0.66367   0.25007   0.00000  Uiso   1.00
C204   C     0.16766   0.83628   0.25020   0.00000  Uiso   1.00
O205   O     0.09058   0.75000   0.28045   0.00000  Uiso   1.00
O206   O     0.24275   0.75000   0.21956   0.00000  Uiso   1.00
O207   O     0.09058   0.75000   0.20097   0.00000  Uiso   1.00
O208   O     0.24275   0.75000   0.29904   0.00000  Uiso   1.00
C209   C     0.06715   0.74996   0.23772   0.00000  Uiso   1.00
C210   C     0.26620   0.75025   0.26227   0.00000  Uiso   1.00
Zn211  Zn    0.16667   0.75001   0.30307   0.00000  Uiso   1.00
Zn212  Zn    0.16667   0.75000   0.19693   0.00000  Uiso   1.00
C213   C     0.01293   0.74295   0.23233   0.00000  Uiso   1.00
C214   C     0.32040   0.75762   0.26758   0.00000  Uiso   1.00
C215   C     0.16706   0.54434   0.28826   0.00000  Uiso   1.00
C216   C     0.16367   0.95583   0.21293   0.00000  Uiso   1.00
C217   C     0.15804   0.59012   0.28663   0.00000  Uiso   1.00
C218   C     0.15480   0.91006   0.21227   0.00000  Uiso   1.00
H219   H     0.13619   0.60540   0.31235   0.00000  Uiso   1.00
H220   H     0.13064   0.89504   0.18188   0.00000  Uiso   1.00
C221   C     0.17563   0.61571   0.25101   0.00000  Uiso   1.00
C222   C     0.17561   0.88413   0.25135   0.00000  Uiso   1.00
C223   C     0.20424   0.59598   0.21811   0.00000  Uiso   1.00
C224   C     0.20724   0.90340   0.29041   0.00000  Uiso   1.00
H225   H     0.21912   0.61653   0.19159   0.00000  Uiso   1.00
H226   H     0.22473   0.88241   0.31968   0.00000  Uiso   1.00
C227   C     0.21534   0.55016   0.22028   0.00000  Uiso   1.00
C228   C     0.21803   0.94927   0.29100   0.00000  Uiso   1.00
C229   C     0.19507   0.52421   0.25496   0.00000  Uiso   1.00
C230   C     0.19470   0.97559   0.25225   0.00000  Uiso   1.00
C231   C     0.12507   0.73118   0.04704   0.00000  Uiso   1.00
C232   C     0.19093   0.78467   0.45068   0.00000  Uiso   1.00
H233   H     0.09155   0.71692   0.02481   0.00000  Uiso   1.00
H234   H     0.20948   0.81263   0.47097   0.00000  Uiso   1.00
C235   C     0.12596   0.73137   0.09678   0.00000  Uiso   1.00
C236   C     0.19062   0.78394   0.40101   0.00000  Uiso   1.00
H237   H     0.09384   0.71668   0.11184   0.00000  Uiso   1.00
H238   H     0.20950   0.81072   0.38419   0.00000  Uiso   1.00
N239   N     0.16667   0.74999   0.12624   0.00000  Uiso   1.00
N240   N     0.16667   0.75001   0.37377   0.00000  Uiso   1.00
C241   C     0.20740   0.76857   0.10769   0.00000  Uiso   1.00
C242   C     0.14265   0.71611   0.39446   0.00000  Uiso   1.00
H243   H     0.23956   0.78325   0.13134   0.00000  Uiso   1.00
H244   H     0.12376   0.68934   0.37250   0.00000  Uiso   1.00
C245   C     0.20830   0.76875   0.05818   0.00000  Uiso   1.00
C246   C     0.14234   0.71537   0.44404   0.00000  Uiso   1.00
H247   H     0.24182   0.78300   0.04493   0.00000  Uiso   1.00
H248   H     0.12378   0.68741   0.45925   0.00000  Uiso   1.00
C249   C     0.16667   0.74998   0.02667   0.00000  Uiso   1.00
C250   C     0.16665   0.75001   0.47330   0.00000  Uiso   1.00
N251   N     0.32402   0.71214   0.19542   0.00000  Uiso   1.00
O252   O     0.33086   0.71872   0.15137   0.00000  Uiso   1.00
O253   O     0.30344   0.67449   0.20682   0.00000  Uiso   1.00
N254   N     0.00927   0.78850   0.30448   0.00000  Uiso   1.00
O255   O     0.00123   0.78266   0.34832   0.00000  Uiso   1.00
O256   O     0.03115   0.82558   0.29316   0.00000  Uiso   1.00
F257   F     0.14642   0.51925   0.32091   0.00000  Uiso   1.00
F258   F     0.14012   0.98125   0.17615   0.00000  Uiso   1.00
N259   N     0.24648   0.53056   0.18728   0.00000  Uiso   1.00
O260   O     0.27528   0.99528   0.19908   0.00000  Uiso   1.00
O261   O     0.25015   0.55042   0.14702   0.00000  Uiso   1.00
N262   N     0.25209   0.96849   0.33070   0.00000  Uiso   1.00
O263   O     0.28007   0.50386   0.32497   0.00000  Uiso   1.00
O264   O     0.25911   0.94820   0.37180   0.00000  Uiso   1.00
O265   O     0.50000   0.68454   0.28974   0.00000  Uiso   1.00
O266   O     0.50000   0.81547   0.21026   0.00000  Uiso   1.00
O267   O     0.50000   0.68453   0.21026   0.00000  Uiso   1.00
O268   O     0.50000   0.81547   0.28974   0.00000  Uiso   1.00
C269   C     0.50100   0.66367   0.25007   0.00000  Uiso   1.00
C270   C     0.50099   0.83628   0.25020   0.00000  Uiso   1.00
O271   O     0.42392   0.75000   0.28045   0.00000  Uiso   1.00
O272   O     0.57608   0.75000   0.21956   0.00000  Uiso   1.00
O273   O     0.42392   0.75000   0.20097   0.00000  Uiso   1.00
O274   O     0.57608   0.75000   0.29904   0.00000  Uiso   1.00
C275   C     0.40048   0.74996   0.23772   0.00000  Uiso   1.00
C276   C     0.59953   0.75025   0.26227   0.00000  Uiso   1.00
Zn277  Zn    0.50000   0.75001   0.30307   0.00000  Uiso   1.00
Zn278  Zn    0.50000   0.75000   0.19693   0.00000  Uiso   1.00
C279   C     0.34626   0.74295   0.23233   0.00000  Uiso   1.00
C280   C     0.65373   0.75762   0.26758   0.00000  Uiso   1.00
C281   C     0.50040   0.54434   0.28826   0.00000  Uiso   1.00
C282   C     0.49700   0.95583   0.21293   0.00000  Uiso   1.00
C283   C     0.49138   0.59012   0.28663   0.00000  Uiso   1.00
C284   C     0.48814   0.91006   0.21227   0.00000  Uiso   1.00
H285   H     0.46952   0.60540   0.31235   0.00000  Uiso   1.00
H286   H     0.46397   0.89504   0.18188   0.00000  Uiso   1.00
C287   C     0.50897   0.61571   0.25101   0.00000  Uiso   1.00
C288   C     0.50895   0.88413   0.25135   0.00000  Uiso   1.00
C289   C     0.53757   0.59598   0.21811   0.00000  Uiso   1.00
C290   C     0.54057   0.90340   0.29041   0.00000  Uiso   1.00
H291   H     0.55245   0.61653   0.19159   0.00000  Uiso   1.00
H292   H     0.55807   0.88241   0.31968   0.00000  Uiso   1.00
C293   C     0.54867   0.55016   0.22028   0.00000  Uiso   1.00
C294   C     0.55137   0.94927   0.29100   0.00000  Uiso   1.00
C295   C     0.52840   0.52421   0.25496   0.00000  Uiso   1.00
C296   C     0.52803   0.97559   0.25225   0.00000  Uiso   1.00
C297   C     0.45840   0.73118   0.04704   0.00000  Uiso   1.00
C298   C     0.52426   0.78467   0.45068   0.00000  Uiso   1.00
H299   H     0.42488   0.71692   0.02481   0.00000  Uiso   1.00
H300   H     0.54281   0.81263   0.47097   0.00000  Uiso   1.00
C301   C     0.45929   0.73137   0.09678   0.00000  Uiso   1.00
C302   C     0.52396   0.78394   0.40101   0.00000  Uiso   1.00
H303   H     0.42717   0.71668   0.11184   0.00000  Uiso   1.00
H304   H     0.54283   0.81072   0.38419   0.00000  Uiso   1.00
N305   N     0.50000   0.74999   0.12624   0.00000  Uiso   1.00
N306   N     0.50000   0.75001   0.37377   0.00000  Uiso   1.00
C307   C     0.54074   0.76857   0.10769   0.00000  Uiso   1.00
C308   C     0.47598   0.71611   0.39446   0.00000  Uiso   1.00
H309   H     0.57289   0.78325   0.13134   0.00000  Uiso   1.00
H310   H     0.45709   0.68934   0.37250   0.00000  Uiso   1.00
C311   C     0.54163   0.76875   0.05818   0.00000  Uiso   1.00
C312   C     0.47567   0.71537   0.44404   0.00000  Uiso   1.00
H313   H     0.57516   0.78300   0.04493   0.00000  Uiso   1.00
H314   H     0.45711   0.68741   0.45925   0.00000  Uiso   1.00
C315   C     0.50000   0.74998   0.02667   0.00000  Uiso   1.00
C316   C     0.49998   0.75001   0.47330   0.00000  Uiso   1.00
N317   N     0.65736   0.71214   0.19542   0.00000  Uiso   1.00
O318   O     0.66419   0.71872   0.15137   0.00000  Uiso   1.00
O319   O     0.63678   0.67449   0.20682   0.00000  Uiso   1.00
N320   N     0.34260   0.78850   0.30448   0.00000  Uiso   1.00
O321   O     0.33456   0.78266   0.34832   0.00000  Uiso   1.00
O322   O     0.36448   0.82558   0.29316   0.00000  Uiso   1.00
F323   F     0.47976   0.51925   0.32091   0.00000  Uiso   1.00
F324   F     0.47345   0.98125   0.17615   0.00000  Uiso   1.00
N325   N     0.57981   0.53056   0.18728   0.00000  Uiso   1.00
O326   O     0.60861   0.99528   0.19908   0.00000  Uiso   1.00
O327   O     0.58349   0.55042   0.14702   0.00000  Uiso   1.00
N328   N     0.58543   0.96849   0.33070   0.00000  Uiso   1.00
O329   O     0.61341   0.50386   0.32497   0.00000  Uiso   1.00
O330   O     0.59245   0.94820   0.37180   0.00000  Uiso   1.00
O331   O     0.83334   0.68454   0.28974   0.00000  Uiso   1.00
O332   O     0.83333   0.81547   0.21026   0.00000  Uiso   1.00
O333   O     0.83334   0.68453   0.21026   0.00000  Uiso   1.00
O334   O     0.83333   0.81547   0.28974   0.00000  Uiso   1.00
C335   C     0.83434   0.66367   0.25007   0.00000  Uiso   1.00
C336   C     0.83432   0.83628   0.25020   0.00000  Uiso   1.00
O337   O     0.75725   0.75000   0.28045   0.00000  Uiso   1.00
O338   O     0.90942   0.75000   0.21956   0.00000  Uiso   1.00
O339   O     0.75725   0.75000   0.20097   0.00000  Uiso   1.00
O340   O     0.90942   0.75000   0.29904   0.00000  Uiso   1.00
C341   C     0.73381   0.74996   0.23772   0.00000  Uiso   1.00
C342   C     0.93287   0.75025   0.26227   0.00000  Uiso   1.00
Zn343  Zn    0.83333   0.75001   0.30307   0.00000  Uiso   1.00
Zn344  Zn    0.83333   0.75000   0.19693   0.00000  Uiso   1.00
C345   C     0.67959   0.74295   0.23233   0.00000  Uiso   1.00
C346   C     0.98707   0.75762   0.26758   0.00000  Uiso   1.00
C347   C     0.83373   0.54434   0.28826   0.00000  Uiso   1.00
C348   C     0.83033   0.95583   0.21293   0.00000  Uiso   1.00
C349   C     0.82471   0.59012   0.28663   0.00000  Uiso   1.00
C350   C     0.82147   0.91006   0.21227   0.00000  Uiso   1.00
H351   H     0.80286   0.60540   0.31235   0.00000  Uiso   1.00
H352   H     0.79731   0.89504   0.18188   0.00000  Uiso   1.00
C353   C     0.84230   0.61571   0.25101   0.00000  Uiso   1.00
C354   C     0.84228   0.88413   0.25135   0.00000  Uiso   1.00
C355   C     0.87091   0.59598   0.21811   0.00000  Uiso   1.00
C356   C     0.87391   0.90340   0.29041   0.00000  Uiso   1.00
H357   H     0.88579   0.61653   0.19159   0.00000  Uiso   1.00
H358   H     0.89140   0.88241   0.31968   0.00000  Uiso   1.00
C359   C     0.88201   0.55016   0.22028   0.00000  Uiso   1.00
C360   C     0.88470   0.94927   0.29100   0.00000  Uiso   1.00
C361   C     0.86174   0.52421   0.25496   0.00000  Uiso   1.00
C362   C     0.86137   0.97559   0.25225   0.00000  Uiso   1.00
C363   C     0.79173   0.73118   0.04704   0.00000  Uiso   1.00
C364   C     0.85760   0.78467   0.45068   0.00000  Uiso   1.00
H365   H     0.75821   0.71692   0.02481   0.00000  Uiso   1.00
H366   H     0.87615   0.81263   0.47097   0.00000  Uiso   1.00
C367   C     0.79262   0.73137   0.09678   0.00000  Uiso   1.00
C368   C     0.85729   0.78394   0.40101   0.00000  Uiso   1.00
H369   H     0.76051   0.71668   0.11184   0.00000  Uiso   1.00
H370   H     0.87616   0.81072   0.38419   0.00000  Uiso   1.00
N371   N     0.83333   0.74999   0.12624   0.00000  Uiso   1.00
N372   N     0.83333   0.75001   0.37377   0.00000  Uiso   1.00
C373   C     0.87407   0.76857   0.10769   0.00000  Uiso   1.00
C374   C     0.80932   0.71611   0.39446   0.00000  Uiso   1.00
H375   H     0.90623   0.78325   0.13134   0.00000  Uiso   1.00
H376   H     0.79043   0.68934   0.37250   0.00000  Uiso   1.00
C377   C     0.87496   0.76875   0.05818   0.00000  Uiso   1.00
C378   C     0.80900   0.71537   0.44404   0.00000  Uiso   1.00
H379   H     0.90849   0.78300   0.04493   0.00000  Uiso   1.00
H380   H     0.79044   0.68741   0.45925   0.00000  Uiso   1.00
C381   C     0.83334   0.74998   0.02667   0.00000  Uiso   1.00
C382   C     0.83331   0.75001   0.47330   0.00000  Uiso   1.00
N383   N     0.99069   0.71214   0.19542   0.00000  Uiso   1.00
O384   O     0.99752   0.71872   0.15137   0.00000  Uiso   1.00
O385   O     0.97011   0.67449   0.20682   0.00000  Uiso   1.00
N386   N     0.67594   0.78850   0.30448   0.00000  Uiso   1.00
O387   O     0.66789   0.78266   0.34832   0.00000  Uiso   1.00
O388   O     0.69782   0.82558   0.29316   0.00000  Uiso   1.00
F389   F     0.81309   0.51925   0.32091   0.00000  Uiso   1.00
F390   F     0.80679   0.98125   0.17615   0.00000  Uiso   1.00
N391   N     0.91315   0.53056   0.18728   0.00000  Uiso   1.00
O392   O     0.94194   0.99528   0.19908   0.00000  Uiso   1.00
O393   O     0.91682   0.55042   0.14702   0.00000  Uiso   1.00
N394   N     0.91876   0.96849   0.33070   0.00000  Uiso   1.00
O395   O     0.94674   0.50386   0.32497   0.00000  Uiso   1.00
O396   O     0.92578   0.94820   0.37180   0.00000  Uiso   1.00
O397   O     0.16667   0.18454   0.78974   0.00000  Uiso   1.00
O398   O     0.16666   0.31547   0.71026   0.00000  Uiso   1.00
O399   O     0.16667   0.18453   0.71026   0.00000  Uiso   1.00
O400   O     0.16666   0.31547   0.78974   0.00000  Uiso   1.00
C401   C     0.16767   0.16367   0.75007   0.00000  Uiso   1.00
C402   C     0.16766   0.33628   0.75020   0.00000  Uiso   1.00
O403   O     0.09058   0.25000   0.78045   0.00000  Uiso   1.00
O404   O     0.24275   0.25000   0.71956   0.00000  Uiso   1.00
O405   O     0.09058   0.25000   0.70097   0.00000  Uiso   1.00
O406   O     0.24275   0.25000   0.79904   0.00000  Uiso   1.00
C407   C     0.06715   0.24996   0.73772   0.00000  Uiso   1.00
C408   C     0.26620   0.25025   0.76227   0.00000  Uiso   1.00
Zn409  Zn    0.16667   0.25001   0.80307   0.00000  Uiso   1.00
Zn410  Zn    0.16667   0.25000   0.69693   0.00000  Uiso   1.00
C411   C     0.01293   0.24295   0.73233   0.00000  Uiso   1.00
C412   C     0.32040   0.25762   0.76758   0.00000  Uiso   1.00
C413   C     0.16706   0.04434   0.78826   0.00000  Uiso   1.00
C414   C     0.16367   0.45583   0.71293   0.00000  Uiso   1.00
C415   C     0.15804   0.09012   0.78663   0.00000  Uiso   1.00
C416   C     0.15480   0.41006   0.71227   0.00000  Uiso   1.00
H417   H     0.13619   0.10540   0.81235   0.00000  Uiso   1.00
H418   H     0.13064   0.39504   0.68188   0.00000  Uiso   1.00
C419   C     0.17563   0.11571   0.75101   0.00000  Uiso   1.00
C420   C     0.17561   0.38413   0.75135   0.00000  Uiso   1.00
C421   C     0.20424   0.09598   0.71811   0.00000  Uiso   1.00
C422   C     0.20724   0.40340   0.79041   0.00000  Uiso   1.00
H423   H     0.21912   0.11653   0.69159   0.00000  Uiso   1.00
H424   H     0.22473   0.38241   0.81968   0.00000  Uiso   1.00
C425   C     0.21534   0.05016   0.72028   0.00000  Uiso   1.00
C426   C     0.21803   0.44927   0.79100   0.00000  Uiso   1.00
C427   C     0.19507   0.02421   0.75496   0.00000  Uiso   1.00
C428   C     0.19470   0.47559   0.75225   0.00000  Uiso   1.00
C429   C     0.12507   0.23118   0.54704   0.00000  Uiso   1.00
C430   C     0.19093   0.28467   0.95068   0.00000  Uiso   1.00
H431   H     0.09155   0.21692   0.52481   0.00000  Uiso   1.00
H432   H     0.20948   0.31263   0.97097   0.00000  Uiso   1.00
C433   C     0.12596   0.23137   0.59678   0.00000  Uiso   1.00
C434   C     0.19062   0.28394   0.90101   0.00000  Uiso   1.00
H435   H     0.09384   0.21668   0.61184   0.00000  Uiso   1.00
H436   H     0.20950   0.31072   0.88419   0.00000  Uiso   1.00
N437   N     0.16667   0.24999   0.62624   0.00000  Uiso   1.00
N438   N     0.16667   0.25001   0.87377   0.00000  Uiso   1.00
C439   C     0.20740   0.26857   0.60769   0.00000  Uiso   1.00
C440   C     0.14265   0.21611   0.89446   0.00000  Uiso   1.00
H441   H     0.23956   0.28325   0.63134   0.00000  Uiso   1.00
H442   H     0.12376   0.18934   0.87250   0.00000  Uiso   1.00
C443   C     0.20830   0.26875   0.55818   0.00000  Uiso   1.00
C444   C     0.14234   0.21537   0.94404   0.00000  Uiso   1.00
H445   H     0.24182   0.28300   0.54493   0.00000  Uiso   1.00
H446   H     0.12378   0.18741   0.95925   0.00000  Uiso   1.00
C447   C     0.16667   0.24998   0.52667   0.00000  Uiso   1.00
C448   C     0.16665   0.25001   0.97330   0.00000  Uiso   1.00
N449   N     0.32402   0.21214   0.69542   0.00000  Uiso   1.00
O450   O     0.33086   0.21872   0.65137   0.00000  Uiso   1.00
O451   O     0.30344   0.17449   0.70682   0.00000  Uiso   1.00
N452   N     0.00927   0.28850   0.80448   0.00000  Uiso   1.00
O453   O     0.00123   0.28266   0.84832   0.00000  Uiso   1.00
O454   O     0.03115   0.32558   0.79316   0.00000  Uiso   1.00
F455   F     0.14642   0.01925   0.82091   0.00000  Uiso   1.00
F456   F     0.14012   0.48125   0.67615   0.00000  Uiso   1.00
N457   N     0.24648   0.03056   0.68728   0.00000  Uiso   1.00
O458   O     0.27528   0.49528   0.69908   0.00000  Uiso   1.00
O459   O     0.25015   0.05042   0.64702   0.00000  Uiso   1.00
N460   N     0.25209   0.46849   0.83070   0.00000  Uiso   1.00
O461   O     0.28007   0.00386   0.82497   0.00000  Uiso   1.00
O462   O     0.25911   0.44820   0.87180   0.00000  Uiso   1.00
O463   O     0.50000   0.18454   0.78974   0.00000  Uiso   1.00
O464   O     0.50000   0.31547   0.71026   0.00000  Uiso   1.00
O465   O     0.50000   0.18453   0.71026   0.00000  Uiso   1.00
O466   O     0.50000   0.31547   0.78974   0.00000  Uiso   1.00
C467   C     0.50100   0.16367   0.75007   0.00000  Uiso   1.00
C468   C     0.50099   0.33628   0.75020   0.00000  Uiso   1.00
O469   O     0.42392   0.25000   0.78045   0.00000  Uiso   1.00
O470   O     0.57608   0.25000   0.71956   0.00000  Uiso   1.00
O471   O     0.42392   0.25000   0.70097   0.00000  Uiso   1.00
O472   O     0.57608   0.25000   0.79904   0.00000  Uiso   1.00
C473   C     0.40048   0.24996   0.73772   0.00000  Uiso   1.00
C474   C     0.59953   0.25025   0.76227   0.00000  Uiso   1.00
Zn475  Zn    0.50000   0.25001   0.80307   0.00000  Uiso   1.00
Zn476  Zn    0.50000   0.25000   0.69693   0.00000  Uiso   1.00
C477   C     0.34626   0.24295   0.73233   0.00000  Uiso   1.00
C478   C     0.65373   0.25762   0.76758   0.00000  Uiso   1.00
C479   C     0.50040   0.04434   0.78826   0.00000  Uiso   1.00
C480   C     0.49700   0.45583   0.71293   0.00000  Uiso   1.00
C481   C     0.49138   0.09012   0.78663   0.00000  Uiso   1.00
C482   C     0.48814   0.41006   0.71227   0.00000  Uiso   1.00
H483   H     0.46952   0.10540   0.81235   0.00000  Uiso   1.00
H484   H     0.46397   0.39504   0.68188   0.00000  Uiso   1.00
C485   C     0.50897   0.11571   0.75101   0.00000  Uiso   1.00
C486   C     0.50895   0.38413   0.75135   0.00000  Uiso   1.00
C487   C     0.53757   0.09598   0.71811   0.00000  Uiso   1.00
C488   C     0.54057   0.40340   0.79041   0.00000  Uiso   1.00
H489   H     0.55245   0.11653   0.69159   0.00000  Uiso   1.00
H490   H     0.55807   0.38241   0.81968   0.00000  Uiso   1.00
C491   C     0.54867   0.05016   0.72028   0.00000  Uiso   1.00
C492   C     0.55137   0.44927   0.79100   0.00000  Uiso   1.00
C493   C     0.52840   0.02421   0.75496   0.00000  Uiso   1.00
C494   C     0.52803   0.47559   0.75225   0.00000  Uiso   1.00
C495   C     0.45840   0.23118   0.54704   0.00000  Uiso   1.00
C496   C     0.52426   0.28467   0.95068   0.00000  Uiso   1.00
H497   H     0.42488   0.21692   0.52481   0.00000  Uiso   1.00
H498   H     0.54281   0.31263   0.97097   0.00000  Uiso   1.00
C499   C     0.45929   0.23137   0.59678   0.00000  Uiso   1.00
C500   C     0.52396   0.28394   0.90101   0.00000  Uiso   1.00
H501   H     0.42717   0.21668   0.61184   0.00000  Uiso   1.00
H502   H     0.54283   0.31072   0.88419   0.00000  Uiso   1.00
N503   N     0.50000   0.24999   0.62624   0.00000  Uiso   1.00
N504   N     0.50000   0.25001   0.87377   0.00000  Uiso   1.00
C505   C     0.54074   0.26857   0.60769   0.00000  Uiso   1.00
C506   C     0.47598   0.21611   0.89446   0.00000  Uiso   1.00
H507   H     0.57289   0.28325   0.63134   0.00000  Uiso   1.00
H508   H     0.45709   0.18934   0.87250   0.00000  Uiso   1.00
C509   C     0.54163   0.26875   0.55818   0.00000  Uiso   1.00
C510   C     0.47567   0.21537   0.94404   0.00000  Uiso   1.00
H511   H     0.57516   0.28300   0.54493   0.00000  Uiso   1.00
H512   H     0.45711   0.18741   0.95925   0.00000  Uiso   1.00
C513   C     0.50000   0.24998   0.52667   0.00000  Uiso   1.00
C514   C     0.49998   0.25001   0.97330   0.00000  Uiso   1.00
N515   N     0.65736   0.21214   0.69542   0.00000  Uiso   1.00
O516   O     0.66419   0.21872   0.65137   0.00000  Uiso   1.00
O517   O     0.63678   0.17449   0.70682   0.00000  Uiso   1.00
N518   N     0.34260   0.28850   0.80448   0.00000  Uiso   1.00
O519   O     0.33456   0.28266   0.84832   0.00000  Uiso   1.00
O520   O     0.36448   0.32558   0.79316   0.00000  Uiso   1.00
F521   F     0.47976   0.01925   0.82091   0.00000  Uiso   1.00
F522   F     0.47345   0.48125   0.67615   0.00000  Uiso   1.00
N523   N     0.57981   0.03056   0.68728   0.00000  Uiso   1.00
O524   O     0.60861   0.49528   0.69908   0.00000  Uiso   1.00
O525   O     0.58349   0.05042   0.64702   0.00000  Uiso   1.00
N526   N     0.58543   0.46849   0.83070   0.00000  Uiso   1.00
O527   O     0.61341   0.00386   0.82497   0.00000  Uiso   1.00
O528   O     0.59245   0.44820   0.87180   0.00000  Uiso   1.00
O529   O     0.83334   0.18454   0.78974   0.00000  Uiso   1.00
O530   O     0.83333   0.31547   0.71026   0.00000  Uiso   1.00
O531   O     0.83334   0.18453   0.71026   0.00000  Uiso   1.00
O532   O     0.83333   0.31547   0.78974   0.00000  Uiso   1.00
C533   C     0.83434   0.16367   0.75007   0.00000  Uiso   1.00
C534   C     0.83432   0.33628   0.75020   0.00000  Uiso   1.00
O535   O     0.75725   0.25000   0.78045   0.00000  Uiso   1.00
O536   O     0.90942   0.25000   0.71956   0.00000  Uiso   1.00
O537   O     0.75725   0.25000   0.70097   0.00000  Uiso   1.00
O538   O     0.90942   0.25000   0.79904   0.00000  Uiso   1.00
C539   C     0.73381   0.24996   0.73772   0.00000  Uiso   1.00
C540   C     0.93287   0.25025   0.76227   0.00000  Uiso   1.00
Zn541  Zn    0.83333   0.25001   0.80307   0.00000  Uiso   1.00
Zn542  Zn    0.83333   0.25000   0.69693   0.00000  Uiso   1.00
C543   C     0.67959   0.24295   0.73233   0.00000  Uiso   1.00
C544   C     0.98707   0.25762   0.76758   0.00000  Uiso   1.00
C545   C     0.83373   0.04434   0.78826   0.00000  Uiso   1.00
C546   C     0.83033   0.45583   0.71293   0.00000  Uiso   1.00
C547   C     0.82471   0.09012   0.78663   0.00000  Uiso   1.00
C548   C     0.82147   0.41006   0.71227   0.00000  Uiso   1.00
H549   H     0.80286   0.10540   0.81235   0.00000  Uiso   1.00
H550   H     0.79731   0.39504   0.68188   0.00000  Uiso   1.00
C551   C     0.84230   0.11571   0.75101   0.00000  Uiso   1.00
C552   C     0.84228   0.38413   0.75135   0.00000  Uiso   1.00
C553   C     0.87091   0.09598   0.71811   0.00000  Uiso   1.00
C554   C     0.87391   0.40340   0.79041   0.00000  Uiso   1.00
H555   H     0.88579   0.11653   0.69159   0.00000  Uiso   1.00
H556   H     0.89140   0.38241   0.81968   0.00000  Uiso   1.00
C557   C     0.88201   0.05016   0.72028   0.00000  Uiso   1.00
C558   C     0.88470   0.44927   0.79100   0.00000  Uiso   1.00
C559   C     0.86174   0.02421   0.75496   0.00000  Uiso   1.00
C560   C     0.86137   0.47559   0.75225   0.00000  Uiso   1.00
C561   C     0.79173   0.23118   0.54704   0.00000  Uiso   1.00
C562   C     0.85760   0.28467   0.95068   0.00000  Uiso   1.00
H563   H     0.75821   0.21692   0.52481   0.00000  Uiso   1.00
H564   H     0.87615   0.31263   0.97097   0.00000  Uiso   1.00
C565   C     0.79262   0.23137   0.59678   0.00000  Uiso   1.00
C566   C     0.85729   0.28394   0.90101   0.00000  Uiso   1.00
H567   H     0.76051   0.21668   0.61184   0.00000  Uiso   1.00
H568   H     0.87616   0.31072   0.88419   0.00000  Uiso   1.00
N569   N     0.83333   0.24999   0.62624   0.00000  Uiso   1.00
N570   N     0.83333   0.25001   0.87377   0.00000  Uiso   1.00
C571   C     0.87407   0.26857   0.60769   0.00000  Uiso   1.00
C572   C     0.80932   0.21611   0.89446   0.00000  Uiso   1.00
H573   H     0.90623   0.28325   0.63134   0.00000  Uiso   1.00
H574   H     0.79043   0.18934   0.87250   0.00000  Uiso   1.00
C575   C     0.87496   0.26875   0.55818   0.00000  Uiso   1.00
C576   C     0.80900   0.21537   0.94404   0.00000  Uiso   1.00
H577   H     0.90849   0.28300   0.54493   0.00000  Uiso   1.00
H578   H     0.79044   0.18741   0.95925   0.00000  Uiso   1.00
C579   C     0.83334   0.24998   0.52667   0.00000  Uiso   1.00
C580   C     0.83331   0.25001   0.97330   0.00000  Uiso   1.00
N581   N     0.99069   0.21214   0.69542   0.00000  Uiso   1.00
O582   O     0.99752   0.21872   0.65137   0.00000  Uiso   1.00
O583   O     0.97011   0.17449   0.70682   0.00000  Uiso   1.00
N584   N     0.67594   0.28850   0.80448   0.00000  Uiso   1.00
O585   O     0.66789   0.28266   0.84832   0.00000  Uiso   1.00
O586   O     0.69782   0.32558   0.79316   0.00000  Uiso   1.00
F587   F     0.81309   0.01925   0.82091   0.00000  Uiso   1.00
F588   F     0.80679   0.48125   0.67615   0.00000  Uiso   1.00
N589   N     0.91315   0.03056   0.68728   0.00000  Uiso   1.00
O590   O     0.94194   0.49528   0.69908   0.00000  Uiso   1.00
O591   O     0.91682   0.05042   0.64702   0.00000  Uiso   1.00
N592   N     0.91876   0.46849   0.83070   0.00000  Uiso   1.00
O593   O     0.94674   0.00386   0.82497   0.00000  Uiso   1.00
O594   O     0.92578   0.44820   0.87180   0.00000  Uiso   1.00
O595   O     0.16667   0.68454   0.78974   0.00000  Uiso   1.00
O596   O     0.16666   0.81547   0.71026   0.00000  Uiso   1.00
O597   O     0.16667   0.68453   0.71026   0.00000  Uiso   1.00
O598   O     0.16666   0.81547   0.78974   0.00000  Uiso   1.00
C599   C     0.16767   0.66367   0.75007   0.00000  Uiso   1.00
C600   C     0.16766   0.83628   0.75020   0.00000  Uiso   1.00
O601   O     0.09058   0.75000   0.78045   0.00000  Uiso   1.00
O602   O     0.24275   0.75000   0.71956   0.00000  Uiso   1.00
O603   O     0.09058   0.75000   0.70097   0.00000  Uiso   1.00
O604   O     0.24275   0.75000   0.79904   0.00000  Uiso   1.00
C605   C     0.06715   0.74996   0.73772   0.00000  Uiso   1.00
C606   C     0.26620   0.75025   0.76227   0.00000  Uiso   1.00
Zn607  Zn    0.16667   0.75001   0.80307   0.00000  Uiso   1.00
Zn608  Zn    0.16667   0.75000   0.69693   0.00000  Uiso   1.00
C609   C     0.01293   0.74295   0.73233   0.00000  Uiso   1.00
C610   C     0.32040   0.75762   0.76758   0.00000  Uiso   1.00
C611   C     0.16706   0.54434   0.78826   0.00000  Uiso   1.00
C612   C     0.16367   0.95583   0.71293   0.00000  Uiso   1.00
C613   C     0.15804   0.59012   0.78663   0.00000  Uiso   1.00
C614   C     0.15480   0.91006   0.71227   0.00000  Uiso   1.00
H615   H     0.13619   0.60540   0.81235   0.00000  Uiso   1.00
H616   H     0.13064   0.89504   0.68188   0.00000  Uiso   1.00
C617   C     0.17563   0.61571   0.75101   0.00000  Uiso   1.00
C618   C     0.17561   0.88413   0.75135   0.00000  Uiso   1.00
C619   C     0.20424   0.59598   0.71811   0.00000  Uiso   1.00
C620   C     0.20724   0.90340   0.79041   0.00000  Uiso   1.00
H621   H     0.21912   0.61653   0.69159   0.00000  Uiso   1.00
H622   H     0.22473   0.88241   0.81968   0.00000  Uiso   1.00
C623   C     0.21534   0.55016   0.72028   0.00000  Uiso   1.00
C624   C     0.21803   0.94927   0.79100   0.00000  Uiso   1.00
C625   C     0.19507   0.52421   0.75496   0.00000  Uiso   1.00
C626   C     0.19470   0.97559   0.75225   0.00000  Uiso   1.00
C627   C     0.12507   0.73118   0.54704   0.00000  Uiso   1.00
C628   C     0.19093   0.78467   0.95068   0.00000  Uiso   1.00
H629   H     0.09155   0.71692   0.52481   0.00000  Uiso   1.00
H630   H     0.20948   0.81263   0.97097   0.00000  Uiso   1.00
C631   C     0.12596   0.73137   0.59678   0.00000  Uiso   1.00
C632   C     0.19062   0.78394   0.90101   0.00000  Uiso   1.00
H633   H     0.09384   0.71668   0.61184   0.00000  Uiso   1.00
H634   H     0.20950   0.81072   0.88419   0.00000  Uiso   1.00
N635   N     0.16667   0.74999   0.62624   0.00000  Uiso   1.00
N636   N     0.16667   0.75001   0.87377   0.00000  Uiso   1.00
C637   C     0.20740   0.76857   0.60769   0.00000  Uiso   1.00
C638   C     0.14265   0.71611   0.89446   0.00000  Uiso   1.00
H639   H     0.23956   0.78325   0.63134   0.00000  Uiso   1.00
H640   H     0.12376   0.68934   0.87250   0.00000  Uiso   1.00
C641   C     0.20830   0.76875   0.55818   0.00000  Uiso   1.00
C642   C     0.14234   0.71537   0.94404   0.00000  Uiso   1.00
H643   H     0.24182   0.78300   0.54493   0.00000  Uiso   1.00
H644   H     0.12378   0.68741   0.95925   0.00000  Uiso   1.00
C645   C     0.16667   0.74998   0.52667   0.00000  Uiso   1.00
C646   C     0.16665   0.75001   0.97330   0.00000  Uiso   1.00
N647   N     0.32402   0.71214   0.69542   0.00000  Uiso   1.00
O648   O     0.33086   0.71872   0.65137   0.00000  Uiso   1.00
O649   O     0.30344   0.67449   0.70682   0.00000  Uiso   1.00
N650   N     0.00927   0.78850   0.80448   0.00000  Uiso   1.00
O651   O     0.00123   0.78266   0.84832   0.00000  Uiso   1.00
O652   O     0.03115   0.82558   0.79316   0.00000  Uiso   1.00
F653   F     0.14642   0.51925   0.82091   0.00000  Uiso   1.00
F654   F     0.14012   0.98125   0.67615   0.00000  Uiso   1.00
N655   N     0.24648   0.53056   0.68728   0.00000  Uiso   1.00
O656   O     0.27528   0.99528   0.69908   0.00000  Uiso   1.00
O657   O     0.25015   0.55042   0.64702   0.00000  Uiso   1.00
N658   N     0.25209   0.96849   0.83070   0.00000  Uiso   1.00
O659   O     0.28007   0.50386   0.82497   0.00000  Uiso   1.00
O660   O     0.25911   0.94820   0.87180   0.00000  Uiso   1.00
O661   O     0.50000   0.68454   0.78974   0.00000  Uiso   1.00
O662   O     0.50000   0.81547   0.71026   0.00000  Uiso   1.00
O663   O     0.50000   0.68453   0.71026   0.00000  Uiso   1.00
O664   O     0.50000   0.81547   0.78974   0.00000  Uiso   1.00
C665   C     0.50100   0.66367   0.75007   0.00000  Uiso   1.00
C666   C     0.50099   0.83628   0.75020   0.00000  Uiso   1.00
O667   O     0.42392   0.75000   0.78045   0.00000  Uiso   1.00
O668   O     0.57608   0.75000   0.71956   0.00000  Uiso   1.00
O669   O     0.42392   0.75000   0.70097   0.00000  Uiso   1.00
O670   O     0.57608   0.75000   0.79904   0.00000  Uiso   1.00
C671   C     0.40048   0.74996   0.73772   0.00000  Uiso   1.00
C672   C     0.59953   0.75025   0.76227   0.00000  Uiso   1.00
Zn673  Zn    0.50000   0.75001   0.80307   0.00000  Uiso   1.00
Zn674  Zn    0.50000   0.75000   0.69693   0.00000  Uiso   1.00
C675   C     0.34626   0.74295   0.73233   0.00000  Uiso   1.00
C676   C     0.65373   0.75762   0.76758   0.00000  Uiso   1.00
C677   C     0.50040   0.54434   0.78826   0.00000  Uiso   1.00
C678   C     0.49700   0.95583   0.71293   0.00000  Uiso   1.00
C679   C     0.49138   0.59012   0.78663   0.00000  Uiso   1.00
C680   C     0.48814   0.91006   0.71227   0.00000  Uiso   1.00
H681   H     0.46952   0.60540   0.81235   0.00000  Uiso   1.00
H682   H     0.46397   0.89504   0.68188   0.00000  Uiso   1.00
C683   C     0.50897   0.61571   0.75101   0.00000  Uiso   1.00
C684   C     0.50895   0.88413   0.75135   0.00000  Uiso   1.00
C685   C     0.53757   0.59598   0.71811   0.00000  Uiso   1.00
C686   C     0.54057   0.90340   0.79041   0.00000  Uiso   1.00
H687   H     0.55245   0.61653   0.69159   0.00000  Uiso   1.00
H688   H     0.55807   0.88241   0.81968   0.00000  Uiso   1.00
C689   C     0.54867   0.55016   0.72028   0.00000  Uiso   1.00
C690   C     0.55137   0.94927   0.79100   0.00000  Uiso   1.00
C691   C     0.52840   0.52421   0.75496   0.00000  Uiso   1.00
C692   C     0.52803   0.97559   0.75225   0.00000  Uiso   1.00
C693   C     0.45840   0.73118   0.54704   0.00000  Uiso   1.00
C694   C     0.52426   0.78467   0.95068   0.00000  Uiso   1.00
H695   H     0.42488   0.71692   0.52481   0.00000  Uiso   1.00
H696   H     0.54281   0.81263   0.97097   0.00000  Uiso   1.00
C697   C     0.45929   0.73137   0.59678   0.00000  Uiso   1.00
C698   C     0.52396   0.78394   0.90101   0.00000  Uiso   1.00
H699   H     0.42717   0.71668   0.61184   0.00000  Uiso   1.00
H700   H     0.54283   0.81072   0.88419   0.00000  Uiso   1.00
N701   N     0.50000   0.74999   0.62624   0.00000  Uiso   1.00
N702   N     0.50000   0.75001   0.87377   0.00000  Uiso   1.00
C703   C     0.54074   0.76857   0.60769   0.00000  Uiso   1.00
C704   C     0.47598   0.71611   0.89446   0.00000  Uiso   1.00
H705   H     0.57289   0.78325   0.63134   0.00000  Uiso   1.00
H706   H     0.45709   0.68934   0.87250   0.00000  Uiso   1.00
C707   C     0.54163   0.76875   0.55818   0.00000  Uiso   1.00
C708   C     0.47567   0.71537   0.94404   0.00000  Uiso   1.00
H709   H     0.57516   0.78300   0.54493   0.00000  Uiso   1.00
H710   H     0.45711   0.68741   0.95925   0.00000  Uiso   1.00
C711   C     0.50000   0.74998   0.52667   0.00000  Uiso   1.00
C712   C     0.49998   0.75001   0.97330   0.00000  Uiso   1.00
N713   N     0.65736   0.71214   0.69542   0.00000  Uiso   1.00
O714   O     0.66419   0.71872   0.65137   0.00000  Uiso   1.00
O715   O     0.63678   0.67449   0.70682   0.00000  Uiso   1.00
N716   N     0.34260   0.78850   0.80448   0.00000  Uiso   1.00
O717   O     0.33456   0.78266   0.84832   0.00000  Uiso   1.00
O718   O     0.36448   0.82558   0.79316   0.00000  Uiso   1.00
F719   F     0.47976   0.51925   0.82091   0.00000  Uiso   1.00
F720   F     0.47345   0.98125   0.67615   0.00000  Uiso   1.00
N721   N     0.57981   0.53056   0.68728   0.00000  Uiso   1.00
O722   O     0.60861   0.99528   0.69908   0.00000  Uiso   1.00
O723   O     0.58349   0.55042   0.64702   0.00000  Uiso   1.00
N724   N     0.58543   0.96849   0.83070   0.00000  Uiso   1.00
O725   O     0.61341   0.50386   0.82497   0.00000  Uiso   1.00
O726   O     0.59245   0.94820   0.87180   0.00000  Uiso   1.00
O727   O     0.83334   0.68454   0.78974   0.00000  Uiso   1.00
O728   O     0.83333   0.81547   0.71026   0.00000  Uiso   1.00
O729   O     0.83334   0.68453   0.71026   0.00000  Uiso   1.00
O730   O     0.83333   0.81547   0.78974   0.00000  Uiso   1.00
C731   C     0.83434   0.66367   0.75007   0.00000  Uiso   1.00
C732   C     0.83432   0.83628   0.75020   0.00000  Uiso   1.00
O733   O     0.75725   0.75000   0.78045   0.00000  Uiso   1.00
O734   O     0.90942   0.75000   0.71956   0.00000  Uiso   1.00
O735   O     0.75725   0.75000   0.70097   0.00000  Uiso   1.00
O736   O     0.90942   0.75000   0.79904   0.00000  Uiso   1.00
C737   C     0.73381   0.74996   0.73772   0.00000  Uiso   1.00
C738   C     0.93287   0.75025   0.76227   0.00000  Uiso   1.00
Zn739  Zn    0.83333   0.75001   0.80307   0.00000  Uiso   1.00
Zn740  Zn    0.83333   0.75000   0.69693   0.00000  Uiso   1.00
C741   C     0.67959   0.74295   0.73233   0.00000  Uiso   1.00
C742   C     0.98707   0.75762   0.76758   0.00000  Uiso   1.00
C743   C     0.83373   0.54434   0.78826   0.00000  Uiso   1.00
C744   C     0.83033   0.95583   0.71293   0.00000  Uiso   1.00
C745   C     0.82471   0.59012   0.78663   0.00000  Uiso   1.00
C746   C     0.82147   0.91006   0.71227   0.00000  Uiso   1.00
H747   H     0.80286   0.60540   0.81235   0.00000  Uiso   1.00
H748   H     0.79731   0.89504   0.68188   0.00000  Uiso   1.00
C749   C     0.84230   0.61571   0.75101   0.00000  Uiso   1.00
C750   C     0.84228   0.88413   0.75135   0.00000  Uiso   1.00
C751   C     0.87091   0.59598   0.71811   0.00000  Uiso   1.00
C752   C     0.87391   0.90340   0.79041   0.00000  Uiso   1.00
H753   H     0.88579   0.61653   0.69159   0.00000  Uiso   1.00
H754   H     0.89140   0.88241   0.81968   0.00000  Uiso   1.00
C755   C     0.88201   0.55016   0.72028   0.00000  Uiso   1.00
C756   C     0.88470   0.94927   0.79100   0.00000  Uiso   1.00
C757   C     0.86174   0.52421   0.75496   0.00000  Uiso   1.00
C758   C     0.86137   0.97559   0.75225   0.00000  Uiso   1.00
C759   C     0.79173   0.73118   0.54704   0.00000  Uiso   1.00
C760   C     0.85760   0.78467   0.95068   0.00000  Uiso   1.00
H761   H     0.75821   0.71692   0.52481   0.00000  Uiso   1.00
H762   H     0.87615   0.81263   0.97097   0.00000  Uiso   1.00
C763   C     0.79262   0.73137   0.59678   0.00000  Uiso   1.00
C764   C     0.85729   0.78394   0.90101   0.00000  Uiso   1.00
H765   H     0.76051   0.71668   0.61184   0.00000  Uiso   1.00
H766   H     0.87616   0.81072   0.88419   0.00000  Uiso   1.00
N767   N     0.83333   0.74999   0.62624   0.00000  Uiso   1.00
N768   N     0.83333   0.75001   0.87377   0.00000  Uiso   1.00
C769   C     0.87407   0.76857   0.60769   0.00000  Uiso   1.00
C770   C     0.80932   0.71611   0.89446   0.00000  Uiso   1.00
H771   H     0.90623   0.78325   0.63134   0.00000  Uiso   1.00
H772   H     0.79043   0.68934   0.87250   0.00000  Uiso   1.00
C773   C     0.87496   0.76875   0.55818   0.00000  Uiso   1.00
C774   C     0.80900   0.71537   0.94404   0.00000  Uiso   1.00
H775   H     0.90849   0.78300   0.54493   0.00000  Uiso   1.00
H776   H     0.79044   0.68741   0.95925   0.00000  Uiso   1.00
C777   C     0.83334   0.74998   0.52667   0.00000  Uiso   1.00
C778   C     0.83331   0.75001   0.97330   0.00000  Uiso   1.00
N779   N     0.99069   0.71214   0.69542   0.00000  Uiso   1.00
O780   O     0.99752   0.71872   0.65137   0.00000  Uiso   1.00
O781   O     0.97011   0.67449   0.70682   0.00000  Uiso   1.00
N782   N     0.67594   0.78850   0.80448   0.00000  Uiso   1.00
O783   O     0.66789   0.78266   0.84832   0.00000  Uiso   1.00
O784   O     0.69782   0.82558   0.79316   0.00000  Uiso   1.00
F785   F     0.81309   0.51925   0.82091   0.00000  Uiso   1.00
F786   F     0.80679   0.98125   0.67615   0.00000  Uiso   1.00
N787   N     0.91315   0.53056   0.68728   0.00000  Uiso   1.00
O788   O     0.94194   0.99528   0.69908   0.00000  Uiso   1.00
O789   O     0.91682   0.55042   0.64702   0.00000  Uiso   1.00
N790   N     0.91876   0.96849   0.83070   0.00000  Uiso   1.00
O791   O     0.94674   0.50386   0.82497   0.00000  Uiso   1.00
O792   O     0.92578   0.94820   0.87180   0.00000  Uiso   1.00
loop_
_geom_bond_atom_site_label_1
_geom_bond_atom_site_label_2
_geom_bond_distance
_geom_bond_site_symmetry_2
_ccdc_geom_bond_type
O1     C5      1.286   .     A
O1     Zn13    1.982   .     S
O2     C6      1.286   .     A
O2     Zn14    1.982   .     S
O3     Zn14    1.983   .     S
O3     C5      1.285   .     A
O4     C6      1.285   .     A
O4     Zn13    1.983   .     S
C5     C23     1.440   .     S
C6     C24     1.437   .     S
O7     C11     1.273   .     A
O7     Zn13    1.981   .     S
O8     C12     1.273   .     A
O8     Zn14    1.981   .     S
O9     Zn14    1.989   .     S
O9     C11     1.279   .     A
O10    C12     1.280   .     A
O10    Zn13    1.989   .     S
C11    C15     1.405   .     S
C12    C16     1.407   .     S
Zn13   N42     2.003   .     S
Zn14   N41     2.003   .     S
C15    C148    1.352   1_455 S
C15    N185    1.444   1_455 S
C16    C81     1.352   .     S
C16    N122    1.445   .     S
C17    F59     1.359   .     S
C17    C31     1.403   .     A
C17    C19     1.380   .     A
C18    F60     1.359   .     S
C18    C32     1.404   .     A
C18    C20     1.380   .     A
C19    H21     1.084   .     S
C19    C23     1.394   .     A
C20    H22     1.084   .     S
C20    C24     1.393   .     A
C23    C25     1.400   .     A
C24    C26     1.399   .     A
C25    C29     1.391   .     A
C25    H27     1.083   .     S
C26    C30     1.392   .     A
C26    H28     1.084   .     S
C29    C31     1.411   .     A
C29    N61     1.442   .     S
C30    N64     1.442   .     S
C30    C32     1.411   .     A
C31    C230    1.447   1_545 S
C32    C229    1.447   .     S
C33    C37     1.406   .     A
C33    H35     1.082   .     S
C33    C51     1.410   .     A
C34    H36     1.082   .     S
C34    C38     1.406   .     A
C34    C52     1.411   .     A
C37    H39     1.081   .     S
C37    N41     1.363   .     A
C38    H40     1.082   .     S
C38    N42     1.363   .     A
N41    C43     1.363   .     A
N42    C44     1.363   .     A
C43    H45     1.081   .     S
C43    C47     1.406   .     A
C44    C48     1.406   .     A
C44    H46     1.082   .     S
C47    H49     1.082   .     S
C47    C51     1.410   .     A
C48    C52     1.410   .     A
C48    H50     1.082   .     S
C51    C448    1.512   1_554 S
C52    C447    1.512   .     S
N53    O54     1.301   .     A
N53    O55     1.302   .     A
N53    C81     1.444   .     S
N56    O58     1.302   .     A
N56    O57     1.301   .     A
N56    C148    1.445   1_455 S
N61    O63     1.302   .     A
N61    O260    1.301   1_545 S
O62    N259    1.301   .     S
N64    O66     1.302   .     A
N64    O263    1.301   .     S
O65    N262    1.301   1_545 S
O67    C71     1.286   .     A
O67    Zn79    1.982   .     S
O68    C72     1.286   .     A
O68    Zn80    1.982   .     S
O69    Zn80    1.983   .     S
O69    C71     1.285   .     A
O70    C72     1.285   .     A
O70    Zn79    1.983   .     S
C71    C89     1.440   .     S
C72    C90     1.437   .     S
O73    C77     1.273   .     A
O73    Zn79    1.981   .     S
O74    C78     1.273   .     A
O74    Zn80    1.981   .     S
O75    Zn80    1.989   .     S
O75    C77     1.279   .     A
O76    C78     1.280   .     A
O76    Zn79    1.989   .     S
C77    C81     1.405   .     S
C78    C82     1.407   .     S
Zn79   N108    2.003   .     S
Zn80   N107    2.003   .     S
C82    C147    1.352   .     S
C82    N188    1.445   .     S
C83    F125    1.359   .     S
C83    C97     1.403   .     A
C83    C85     1.380   .     A
C84    F126    1.359   .     S
C84    C98     1.404   .     A
C84    C86     1.380   .     A
C85    H87     1.084   .     S
C85    C89     1.394   .     A
C86    H88     1.084   .     S
C86    C90     1.393   .     A
C89    C91     1.400   .     A
C90    C92     1.399   .     A
C91    C95     1.391   .     A
C91    H93     1.083   .     S
C92    C96     1.392   .     A
C92    H94     1.084   .     S
C95    C97     1.411   .     A
C95    N127    1.442   .     S
C96    N130    1.442   .     S
C96    C98     1.411   .     A
C97    C296    1.447   1_545 S
C98    C295    1.447   .     S
C99    C103    1.406   .     A
C99    H101    1.082   .     S
C99    C117    1.410   .     A
C100   H102    1.082   .     S
C100   C104    1.406   .     A
C100   C118    1.411   .     A
C103   H105    1.081   .     S
C103   N107    1.363   .     A
C104   H106    1.082   .     S
C104   N108    1.363   .     A
N107   C109    1.363   .     A
N108   C110    1.363   .     A
C109   H111    1.081   .     S
C109   C113    1.406   .     A
C110   C114    1.406   .     A
C110   H112    1.082   .     S
C113   H115    1.082   .     S
C113   C117    1.410   .     A
C114   C118    1.410   .     A
C114   H116    1.082   .     S
C117   C514    1.512   1_554 S
C118   C513    1.512   .     S
N119   O120    1.301   .     A
N119   O121    1.302   .     A
N119   C147    1.444   .     S
N122   O124    1.302   .     A
N122   O123    1.301   .     A
N127   O129    1.302   .     A
N127   O326    1.301   1_545 S
O128   N325    1.301   .     S
N130   O132    1.302   .     A
N130   O329    1.301   .     S
O131   N328    1.301   1_545 S
O133   C137    1.286   .     A
O133   Zn145   1.982   .     S
O134   C138    1.286   .     A
O134   Zn146   1.982   .     S
O135   Zn146   1.983   .     S
O135   C137    1.285   .     A
O136   C138    1.285   .     A
O136   Zn145   1.983   .     S
C137   C155    1.440   .     S
C138   C156    1.437   .     S
O139   C143    1.273   .     A
O139   Zn145   1.981   .     S
O140   C144    1.273   .     A
O140   Zn146   1.981   .     S
O141   Zn146   1.989   .     S
O141   C143    1.279   .     A
O142   C144    1.280   .     A
O142   Zn145   1.989   .     S
C143   C147    1.405   .     S
C144   C148    1.407   .     S
Zn145  N174    2.003   .     S
Zn146  N173    2.003   .     S
C148   C15     1.352   1_655 S
C148   N56     1.445   1_655 S
C149   F191    1.359   .     S
C149   C163    1.403   .     A
C149   C151    1.380   .     A
C150   F192    1.359   .     S
C150   C164    1.404   .     A
C150   C152    1.380   .     A
C151   H153    1.084   .     S
C151   C155    1.394   .     A
C152   H154    1.084   .     S
C152   C156    1.393   .     A
C155   C157    1.400   .     A
C156   C158    1.399   .     A
C157   C161    1.391   .     A
C157   H159    1.083   .     S
C158   C162    1.392   .     A
C158   H160    1.084   .     S
C161   C163    1.411   .     A
C161   N193    1.442   .     S
C162   N196    1.442   .     S
C162   C164    1.411   .     A
C163   C362    1.447   1_545 S
C164   C361    1.447   .     S
C165   C169    1.406   .     A
C165   H167    1.082   .     S
C165   C183    1.410   .     A
C166   H168    1.082   .     S
C166   C170    1.406   .     A
C166   C184    1.411   .     A
C169   H171    1.081   .     S
C169   N173    1.363   .     A
C170   H172    1.082   .     S
C170   N174    1.363   .     A
N173   C175    1.363   .     A
N174   C176    1.363   .     A
C175   H177    1.081   .     S
C175   C179    1.406   .     A
C176   C180    1.406   .     A
C176   H178    1.082   .     S
C179   H181    1.082   .     S
C179   C183    1.410   .     A
C180   C184    1.410   .     A
C180   H182    1.082   .     S
C183   C580    1.512   1_554 S
C184   C579    1.512   .     S
N185   O186    1.301   .     A
N185   O187    1.302   .     A
N185   C15     1.444   1_655 S
N188   O190    1.302   .     A
N188   O189    1.301   .     A
N193   O195    1.302   .     A
N193   O392    1.301   1_545 S
O194   N391    1.301   .     S
N196   O198    1.302   .     A
N196   O395    1.301   .     S
O197   N394    1.301   1_545 S
O199   C203    1.286   .     A
O199   Zn211   1.982   .     S
O200   C204    1.286   .     A
O200   Zn212   1.982   .     S
O201   Zn212   1.983   .     S
O201   C203    1.285   .     A
O202   C204    1.285   .     A
O202   Zn211   1.983   .     S
C203   C221    1.440   .     S
C204   C222    1.437   .     S
O205   C209    1.273   .     A
O205   Zn211   1.981   .     S
O206   C210    1.273   .     A
O206   Zn212   1.981   .     S
O207   Zn212   1.989   .     S
O207   C209    1.279   .     A
O208   C210    1.280   .     A
O208   Zn211   1.989   .     S
C209   C213    1.405   .     S
C210   C214    1.407   .     S
Zn211  N240    2.003   .     S
Zn212  N239    2.003   .     S
C213   C346    1.352   1_455 S
C213   N383    1.444   1_455 S
C214   C279    1.352   .     S
C214   N320    1.445   .     S
C215   F257    1.359   .     S
C215   C229    1.403   .     A
C215   C217    1.380   .     A
C216   F258    1.359   .     S
C216   C230    1.404   .     A
C216   C218    1.380   .     A
C217   H219    1.084   .     S
C217   C221    1.394   .     A
C218   H220    1.084   .     S
C218   C222    1.393   .     A
C221   C223    1.400   .     A
C222   C224    1.399   .     A
C223   C227    1.391   .     A
C223   H225    1.083   .     S
C224   C228    1.392   .     A
C224   H226    1.084   .     S
C227   C229    1.411   .     A
C227   N259    1.442   .     S
C228   N262    1.442   .     S
C228   C230    1.411   .     A
C230   C31     1.447   1_565 S
C231   C235    1.406   .     A
C231   H233    1.082   .     S
C231   C249    1.410   .     A
C232   H234    1.082   .     S
C232   C236    1.406   .     A
C232   C250    1.411   .     A
C235   H237    1.081   .     S
C235   N239    1.363   .     A
C236   H238    1.082   .     S
C236   N240    1.363   .     A
N239   C241    1.363   .     A
N240   C242    1.363   .     A
C241   H243    1.081   .     S
C241   C245    1.406   .     A
C242   C246    1.406   .     A
C242   H244    1.082   .     S
C245   H247    1.082   .     S
C245   C249    1.410   .     A
C246   C250    1.410   .     A
C246   H248    1.082   .     S
C249   C646    1.512   1_554 S
C250   C645    1.512   .     S
N251   O252    1.301   .     A
N251   O253    1.302   .     A
N251   C279    1.444   .     S
N254   O256    1.302   .     A
N254   O255    1.301   .     A
N254   C346    1.445   1_455 S
N259   O261    1.302   .     A
O260   N61     1.301   1_565 S
N262   O264    1.302   .     A
N262   O65     1.301   1_565 S
O265   C269    1.286   .     A
O265   Zn277   1.982   .     S
O266   C270    1.286   .     A
O266   Zn278   1.982   .     S
O267   Zn278   1.983   .     S
O267   C269    1.285   .     A
O268   C270    1.285   .     A
O268   Zn277   1.983   .     S
C269   C287    1.440   .     S
C270   C288    1.437   .     S
O271   C275    1.273   .     A
O271   Zn277   1.981   .     S
O272   C276    1.273   .     A
O272   Zn278   1.981   .     S
O273   Zn278   1.989   .     S
O273   C275    1.279   .     A
O274   C276    1.280   .     A
O274   Zn277   1.989   .     S
C275   C279    1.405   .     S
C276   C280    1.407   .     S
Zn277  N306    2.003   .     S
Zn278  N305    2.003   .     S
C280   C345    1.352   .     S
C280   N386    1.445   .     S
C281   F323    1.359   .     S
C281   C295    1.403   .     A
C281   C283    1.380   .     A
C282   F324    1.359   .     S
C282   C296    1.404   .     A
C282   C284    1.380   .     A
C283   H285    1.084   .     S
C283   C287    1.394   .     A
C284   H286    1.084   .     S
C284   C288    1.393   .     A
C287   C289    1.400   .     A
C288   C290    1.399   .     A
C289   C293    1.391   .     A
C289   H291    1.083   .     S
C290   C294    1.392   .     A
C290   H292    1.084   .     S
C293   C295    1.411   .     A
C293   N325    1.442   .     S
C294   N328    1.442   .     S
C294   C296    1.411   .     A
C296   C97     1.447   1_565 S
C297   C301    1.406   .     A
C297   H299    1.082   .     S
C297   C315    1.410   .     A
C298   H300    1.082   .     S
C298   C302    1.406   .     A
C298   C316    1.411   .     A
C301   H303    1.081   .     S
C301   N305    1.363   .     A
C302   H304    1.082   .     S
C302   N306    1.363   .     A
N305   C307    1.363   .     A
N306   C308    1.363   .     A
C307   H309    1.081   .     S
C307   C311    1.406   .     A
C308   C312    1.406   .     A
C308   H310    1.082   .     S
C311   H313    1.082   .     S
C311   C315    1.410   .     A
C312   C316    1.410   .     A
C312   H314    1.082   .     S
C315   C712    1.512   1_554 S
C316   C711    1.512   .     S
N317   O318    1.301   .     A
N317   O319    1.302   .     A
N317   C345    1.444   .     S
N320   O322    1.302   .     A
N320   O321    1.301   .     A
N325   O327    1.302   .     A
O326   N127    1.301   1_565 S
N328   O330    1.302   .     A
N328   O131    1.301   1_565 S
O331   C335    1.286   .     A
O331   Zn343   1.982   .     S
O332   C336    1.286   .     A
O332   Zn344   1.982   .     S
O333   Zn344   1.983   .     S
O333   C335    1.285   .     A
O334   C336    1.285   .     A
O334   Zn343   1.983   .     S
C335   C353    1.440   .     S
C336   C354    1.437   .     S
O337   C341    1.273   .     A
O337   Zn343   1.981   .     S
O338   C342    1.273   .     A
O338   Zn344   1.981   .     S
O339   Zn344   1.989   .     S
O339   C341    1.279   .     A
O340   C342    1.280   .     A
O340   Zn343   1.989   .     S
C341   C345    1.405   .     S
C342   C346    1.407   .     S
Zn343  N372    2.003   .     S
Zn344  N371    2.003   .     S
C346   C213    1.352   1_655 S
C346   N254    1.445   1_655 S
C347   F389    1.359   .     S
C347   C361    1.403   .     A
C347   C349    1.380   .     A
C348   F390    1.359   .     S
C348   C362    1.404   .     A
C348   C350    1.380   .     A
C349   H351    1.084   .     S
C349   C353    1.394   .     A
C350   H352    1.084   .     S
C350   C354    1.393   .     A
C353   C355    1.400   .     A
C354   C356    1.399   .     A
C355   C359    1.391   .     A
C355   H357    1.083   .     S
C356   C360    1.392   .     A
C356   H358    1.084   .     S
C359   C361    1.411   .     A
C359   N391    1.442   .     S
C360   N394    1.442   .     S
C360   C362    1.411   .     A
C362   C163    1.447   1_565 S
C363   C367    1.406   .     A
C363   H365    1.082   .     S
C363   C381    1.410   .     A
C364   H366    1.082   .     S
C364   C368    1.406   .     A
C364   C382    1.411   .     A
C367   H369    1.081   .     S
C367   N371    1.363   .     A
C368   H370    1.082   .     S
C368   N372    1.363   .     A
N371   C373    1.363   .     A
N372   C374    1.363   .     A
C373   H375    1.081   .     S
C373   C377    1.406   .     A
C374   C378    1.406   .     A
C374   H376    1.082   .     S
C377   H379    1.082   .     S
C377   C381    1.410   .     A
C378   C382    1.410   .     A
C378   H380    1.082   .     S
C381   C778    1.512   1_554 S
C382   C777    1.512   .     S
N383   O384    1.301   .     A
N383   O385    1.302   .     A
N383   C213    1.444   1_655 S
N386   O388    1.302   .     A
N386   O387    1.301   .     A
N391   O393    1.302   .     A
O392   N193    1.301   1_565 S
N394   O396    1.302   .     A
N394   O197    1.301   1_565 S
O397   C401    1.286   .     A
O397   Zn409   1.982   .     S
O398   C402    1.286   .     A
O398   Zn410   1.982   .     S
O399   Zn410   1.983   .     S
O399   C401    1.285   .     A
O400   C402    1.285   .     A
O400   Zn409   1.983   .     S
C401   C419    1.440   .     S
C402   C420    1.437   .     S
O403   C407    1.273   .     A
O403   Zn409   1.981   .     S
O404   C408    1.273   .     A
O404   Zn410   1.981   .     S
O405   Zn410   1.989   .     S
O405   C407    1.279   .     A
O406   C408    1.280   .     A
O406   Zn409   1.989   .     S
C407   C411    1.405   .     S
C408   C412    1.407   .     S
Zn409  N438    2.003   .     S
Zn410  N437    2.003   .     S
C411   C544    1.352   1_455 S
C411   N581    1.444   1_455 S
C412   C477    1.352   .     S
C412   N518    1.445   .     S
C413   F455    1.359   .     S
C413   C427    1.403   .     A
C413   C415    1.380   .     A
C414   F456    1.359   .     S
C414   C428    1.404   .     A
C414   C416    1.380   .     A
C415   H417    1.084   .     S
C415   C419    1.394   .     A
C416   H418    1.084   .     S
C416   C420    1.393   .     A
C419   C421    1.400   .     A
C420   C422    1.399   .     A
C421   C425    1.391   .     A
C421   H423    1.083   .     S
C422   C426    1.392   .     A
C422   H424    1.084   .     S
C425   C427    1.411   .     A
C425   N457    1.442   .     S
C426   N460    1.442   .     S
C426   C428    1.411   .     A
C427   C626    1.447   1_545 S
C428   C625    1.447   .     S
C429   C433    1.406   .     A
C429   H431    1.082   .     S
C429   C447    1.410   .     A
C430   H432    1.082   .     S
C430   C434    1.406   .     A
C430   C448    1.411   .     A
C433   H435    1.081   .     S
C433   N437    1.363   .     A
C434   H436    1.082   .     S
C434   N438    1.363   .     A
N437   C439    1.363   .     A
N438   C440    1.363   .     A
C439   H441    1.081   .     S
C439   C443    1.406   .     A
C440   C444    1.406   .     A
C440   H442    1.082   .     S
C443   H445    1.082   .     S
C443   C447    1.410   .     A
C444   C448    1.410   .     A
C444   H446    1.082   .     S
C448   C51     1.512   1_556 S
N449   O450    1.301   .     A
N449   O451    1.302   .     A
N449   C477    1.444   .     S
N452   O454    1.302   .     A
N452   O453    1.301   .     A
N452   C544    1.445   1_455 S
N457   O459    1.302   .     A
N457   O656    1.301   1_545 S
O458   N655    1.301   .     S
N460   O462    1.302   .     A
N460   O659    1.301   .     S
O461   N658    1.301   1_545 S
O463   C467    1.286   .     A
O463   Zn475   1.982   .     S
O464   C468    1.286   .     A
O464   Zn476   1.982   .     S
O465   Zn476   1.983   .     S
O465   C467    1.285   .     A
O466   C468    1.285   .     A
O466   Zn475   1.983   .     S
C467   C485    1.440   .     S
C468   C486    1.437   .     S
O469   C473    1.273   .     A
O469   Zn475   1.981   .     S
O470   C474    1.273   .     A
O470   Zn476   1.981   .     S
O471   Zn476   1.989   .     S
O471   C473    1.279   .     A
O472   C474    1.280   .     A
O472   Zn475   1.989   .     S
C473   C477    1.405   .     S
C474   C478    1.407   .     S
Zn475  N504    2.003   .     S
Zn476  N503    2.003   .     S
C478   C543    1.352   .     S
C478   N584    1.445   .     S
C479   F521    1.359   .     S
C479   C493    1.403   .     A
C479   C481    1.380   .     A
C480   F522    1.359   .     S
C480   C494    1.404   .     A
C480   C482    1.380   .     A
C481   H483    1.084   .     S
C481   C485    1.394   .     A
C482   H484    1.084   .     S
C482   C486    1.393   .     A
C485   C487    1.400   .     A
C486   C488    1.399   .     A
C487   C491    1.391   .     A
C487   H489    1.083   .     S
C488   C492    1.392   .     A
C488   H490    1.084   .     S
C491   C493    1.411   .     A
C491   N523    1.442   .     S
C492   N526    1.442   .     S
C492   C494    1.411   .     A
C493   C692    1.447   1_545 S
C494   C691    1.447   .     S
C495   C499    1.406   .     A
C495   H497    1.082   .     S
C495   C513    1.410   .     A
C496   H498    1.082   .     S
C496   C500    1.406   .     A
C496   C514    1.411   .     A
C499   H501    1.081   .     S
C499   N503    1.363   .     A
C500   H502    1.082   .     S
C500   N504    1.363   .     A
N503   C505    1.363   .     A
N504   C506    1.363   .     A
C505   H507    1.081   .     S
C505   C509    1.406   .     A
C506   C510    1.406   .     A
C506   H508    1.082   .     S
C509   H511    1.082   .     S
C509   C513    1.410   .     A
C510   C514    1.410   .     A
C510   H512    1.082   .     S
C514   C117    1.512   1_556 S
N515   O516    1.301   .     A
N515   O517    1.302   .     A
N515   C543    1.444   .     S
N518   O520    1.302   .     A
N518   O519    1.301   .     A
N523   O525    1.302   .     A
N523   O722    1.301   1_545 S
O524   N721    1.301   .     S
N526   O528    1.302   .     A
N526   O725    1.301   .     S
O527   N724    1.301   1_545 S
O529   C533    1.286   .     A
O529   Zn541   1.982   .     S
O530   C534    1.286   .     A
O530   Zn542   1.982   .     S
O531   Zn542   1.983   .     S
O531   C533    1.285   .     A
O532   C534    1.285   .     A
O532   Zn541   1.983   .     S
C533   C551    1.440   .     S
C534   C552    1.437   .     S
O535   C539    1.273   .     A
O535   Zn541   1.981   .     S
O536   C540    1.273   .     A
O536   Zn542   1.981   .     S
O537   Zn542   1.989   .     S
O537   C539    1.279   .     A
O538   C540    1.280   .     A
O538   Zn541   1.989   .     S
C539   C543    1.405   .     S
C540   C544    1.407   .     S
Zn541  N570    2.003   .     S
Zn542  N569    2.003   .     S
C544   C411    1.352   1_655 S
C544   N452    1.445   1_655 S
C545   F587    1.359   .     S
C545   C559    1.403   .     A
C545   C547    1.380   .     A
C546   F588    1.359   .     S
C546   C560    1.404   .     A
C546   C548    1.380   .     A
C547   H549    1.084   .     S
C547   C551    1.394   .     A
C548   H550    1.084   .     S
C548   C552    1.393   .     A
C551   C553    1.400   .     A
C552   C554    1.399   .     A
C553   C557    1.391   .     A
C553   H555    1.083   .     S
C554   C558    1.392   .     A
C554   H556    1.084   .     S
C557   C559    1.411   .     A
C557   N589    1.442   .     S
C558   N592    1.442   .     S
C558   C560    1.411   .     A
C559   C758    1.447   1_545 S
C560   C757    1.447   .     S
C561   C565    1.406   .     A
C561   H563    1.082   .     S
C561   C579    1.410   .     A
C562   H564    1.082   .     S
C562   C566    1.406   .     A
C562   C580    1.411   .     A
C565   H567    1.081   .     S
C565   N569    1.363   .     A
C566   H568    1.082   .     S
C566   N570    1.363   .     A
N569   C571    1.363   .     A
N570   C572    1.363   .     A
C571   H573    1.081   .     S
C571   C575    1.406   .     A
C572   C576    1.406   .     A
C572   H574    1.082   .     S
C575   H577    1.082   .     S
C575   C579    1.410   .     A
C576   C580    1.410   .     A
C576   H578    1.082   .     S
C580   C183    1.512   1_556 S
N581   O582    1.301   .     A
N581   O583    1.302   .     A
N581   C411    1.444   1_655 S
N584   O586    1.302   .     A
N584   O585    1.301   .     A
N589   O591    1.302   .     A
N589   O788    1.301   1_545 S
O590   N787    1.301   .     S
N592   O594    1.302   .     A
N592   O791    1.301   .     S
O593   N790    1.301   1_545 S
O595   C599    1.286   .     A
O595   Zn607   1.982   .     S
O596   C600    1.286   .     A
O596   Zn608   1.982   .     S
O597   Zn608   1.983   .     S
O597   C599    1.285   .     A
O598   C600    1.285   .     A
O598   Zn607   1.983   .     S
C599   C617    1.440   .     S
C600   C618    1.437   .     S
O601   C605    1.273   .     A
O601   Zn607   1.981   .     S
O602   C606    1.273   .     A
O602   Zn608   1.981   .     S
O603   Zn608   1.989   .     S
O603   C605    1.279   .     A
O604   C606    1.280   .     A
O604   Zn607   1.989   .     S
C605   C609    1.405   .     S
C606   C610    1.407   .     S
Zn607  N636    2.003   .     S
Zn608  N635    2.003   .     S
C609   C742    1.352   1_455 S
C609   N779    1.444   1_455 S
C610   C675    1.352   .     S
C610   N716    1.445   .     S
C611   F653    1.359   .     S
C611   C625    1.403   .     A
C611   C613    1.380   .     A
C612   F654    1.359   .     S
C612   C626    1.404   .     A
C612   C614    1.380   .     A
C613   H615    1.084   .     S
C613   C617    1.394   .     A
C614   H616    1.084   .     S
C614   C618    1.393   .     A
C617   C619    1.400   .     A
C618   C620    1.399   .     A
C619   C623    1.391   .     A
C619   H621    1.083   .     S
C620   C624    1.392   .     A
C620   H622    1.084   .     S
C623   C625    1.411   .     A
C623   N655    1.442   .     S
C624   N658    1.442   .     S
C624   C626    1.411   .     A
C626   C427    1.447   1_565 S
C627   C631    1.406   .     A
C627   H629    1.082   .     S
C627   C645    1.410   .     A
C628   H630    1.082   .     S
C628   C632    1.406   .     A
C628   C646    1.411   .     A
C631   H633    1.081   .     S
C631   N635    1.363   .     A
C632   H634    1.082   .     S
C632   N636    1.363   .     A
N635   C637    1.363   .     A
N636   C638    1.363   .     A
C637   H639    1.081   .     S
C637   C641    1.406   .     A
C638   C642    1.406   .     A
C638   H640    1.082   .     S
C641   H643    1.082   .     S
C641   C645    1.410   .     A
C642   C646    1.410   .     A
C642   H644    1.082   .     S
C646   C249    1.512   1_556 S
N647   O648    1.301   .     A
N647   O649    1.302   .     A
N647   C675    1.444   .     S
N650   O652    1.302   .     A
N650   O651    1.301   .     A
N650   C742    1.445   1_455 S
N655   O657    1.302   .     A
O656   N457    1.301   1_565 S
N658   O660    1.302   .     A
N658   O461    1.301   1_565 S
O661   C665    1.286   .     A
O661   Zn673   1.982   .     S
O662   C666    1.286   .     A
O662   Zn674   1.982   .     S
O663   Zn674   1.983   .     S
O663   C665    1.285   .     A
O664   C666    1.285   .     A
O664   Zn673   1.983   .     S
C665   C683    1.440   .     S
C666   C684    1.437   .     S
O667   C671    1.273   .     A
O667   Zn673   1.981   .     S
O668   C672    1.273   .     A
O668   Zn674   1.981   .     S
O669   Zn674   1.989   .     S
O669   C671    1.279   .     A
O670   C672    1.280   .     A
O670   Zn673   1.989   .     S
C671   C675    1.405   .     S
C672   C676    1.407   .     S
Zn673  N702    2.003   .     S
Zn674  N701    2.003   .     S
C676   C741    1.352   .     S
C676   N782    1.445   .     S
C677   F719    1.359   .     S
C677   C691    1.403   .     A
C677   C679    1.380   .     A
C678   F720    1.359   .     S
C678   C692    1.404   .     A
C678   C680    1.380   .     A
C679   H681    1.084   .     S
C679   C683    1.394   .     A
C680   H682    1.084   .     S
C680   C684    1.393   .     A
C683   C685    1.400   .     A
C684   C686    1.399   .     A
C685   C689    1.391   .     A
C685   H687    1.083   .     S
C686   C690    1.392   .     A
C686   H688    1.084   .     S
C689   C691    1.411   .     A
C689   N721    1.442   .     S
C690   N724    1.442   .     S
C690   C692    1.411   .     A
C692   C493    1.447   1_565 S
C693   C697    1.406   .     A
C693   H695    1.082   .     S
C693   C711    1.410   .     A
C694   H696    1.082   .     S
C694   C698    1.406   .     A
C694   C712    1.411   .     A
C697   H699    1.081   .     S
C697   N701    1.363   .     A
C698   H700    1.082   .     S
C698   N702    1.363   .     A
N701   C703    1.363   .     A
N702   C704    1.363   .     A
C703   H705    1.081   .     S
C703   C707    1.406   .     A
C704   C708    1.406   .     A
C704   H706    1.082   .     S
C707   H709    1.082   .     S
C707   C711    1.410   .     A
C708   C712    1.410   .     A
C708   H710    1.082   .     S
C712   C315    1.512   1_556 S
N713   O714    1.301   .     A
N713   O715    1.302   .     A
N713   C741    1.444   .     S
N716   O718    1.302   .     A
N716   O717    1.301   .     A
N721   O723    1.302   .     A
O722   N523    1.301   1_565 S
N724   O726    1.302   .     A
N724   O527    1.301   1_565 S
O727   C731    1.286   .     A
O727   Zn739   1.982   .     S
O728   C732    1.286   .     A
O728   Zn740   1.982   .     S
O729   Zn740   1.983   .     S
O729   C731    1.285   .     A
O730   C732    1.285   .     A
O730   Zn739   1.983   .     S
C731   C749    1.440   .     S
C732   C750    1.437   .     S
O733   C737    1.273   .     A
O733   Zn739   1.981   .     S
O734   C738    1.273   .     A
O734   Zn740   1.981   .     S
O735   Zn740   1.989   .     S
O735   C737    1.279   .     A
O736   C738    1.280   .     A
O736   Zn739   1.989   .     S
C737   C741    1.405   .     S
C738   C742    1.407   .     S
Zn739  N768    2.003   .     S
Zn740  N767    2.003   .     S
C742   C609    1.352   1_655 S
C742   N650    1.445   1_655 S
C743   F785    1.359   .     S
C743   C757    1.403   .     A
C743   C745    1.380   .     A
C744   F786    1.359   .     S
C744   C758    1.404   .     A
C744   C746    1.380   .     A
C745   H747    1.084   .     S
C745   C749    1.394   .     A
C746   H748    1.084   .     S
C746   C750    1.393   .     A
C749   C751    1.400   .     A
C750   C752    1.399   .     A
C751   C755    1.391   .     A
C751   H753    1.083   .     S
C752   C756    1.392   .     A
C752   H754    1.084   .     S
C755   C757    1.411   .     A
C755   N787    1.442   .     S
C756   N790    1.442   .     S
C756   C758    1.411   .     A
C758   C559    1.447   1_565 S
C759   C763    1.406   .     A
C759   H761    1.082   .     S
C759   C777    1.410   .     A
C760   H762    1.082   .     S
C760   C764    1.406   .     A
C760   C778    1.411   .     A
C763   H765    1.081   .     S
C763   N767    1.363   .     A
C764   H766    1.082   .     S
C764   N768    1.363   .     A
N767   C769    1.363   .     A
N768   C770    1.363   .     A
C769   H771    1.081   .     S
C769   C773    1.406   .     A
C770   C774    1.406   .     A
C770   H772    1.082   .     S
C773   H775    1.082   .     S
C773   C777    1.410   .     A
C774   C778    1.410   .     A
C774   H776    1.082   .     S
C778   C381    1.512   1_556 S
N779   O780    1.301   .     A
N779   O781    1.302   .     A
N779   C609    1.444   1_655 S
N782   O784    1.302   .     A
N782   O783    1.301   .     A
N787   O789    1.302   .     A
O788   N589    1.301   1_565 S
N790   O792    1.302   .     A
N790   O593    1.301   1_565 S
