data_str_m3_o10_o16_pcu_sym.99
_audit_creation_date              2020-01-03
_audit_creation_method            'Materials Studio'
_symmetry_space_group_name_H-M    'P1'
_symmetry_Int_Tables_number       1
_symmetry_cell_setting            triclinic
loop_
_symmetry_equiv_pos_as_xyz
  x,y,z
_cell_length_a                    23.4569
_cell_length_b                    25.7858
_cell_length_c                    24.1457
_cell_angle_alpha                 92.3500
_cell_angle_beta                  101.0053
_cell_angle_gamma                 94.2072
loop_
_atom_site_label
_atom_site_type_symbol
_atom_site_fract_x
_atom_site_fract_y
_atom_site_fract_z
_atom_site_U_iso_or_equiv
_atom_site_adp_type
_atom_site_occupancy
Br1    Br    0.03635   0.07888   0.08233   0.00000  Uiso   1.00
C2     C     0.01409   0.26463   0.24570   0.00000  Uiso   1.00
C3     C     0.05290   0.16851   0.41632   0.00000  Uiso   1.00
C4     C     0.01931   0.31837   0.23579   0.00000  Uiso   1.00
C5     C     0.03528   0.16812   0.35526   0.00000  Uiso   1.00
C6     C     0.31113   0.01371   0.24973   0.00000  Uiso   1.00
C7     C     0.31806   0.06835   0.24949   0.00000  Uiso   1.00
C8     C     0.29739   0.16150   0.14472   0.00000  Uiso   1.00
C9     C     0.26723   0.09173   0.00130   0.00000  Uiso   1.00
C10    C     0.27665   0.14935   0.08473   0.00000  Uiso   1.00
C11    C     0.02511   0.19960   0.45029   0.00000  Uiso   1.00
C12    C     0.04958   0.21010   0.00700   0.00000  Uiso   1.00
C13    C     0.13229   0.16143   0.49494   0.00000  Uiso   1.00
C14    C     0.10351   0.19251   0.02907   0.00000  Uiso   1.00
C15    C     0.10283   0.14434   0.44025   0.00000  Uiso   1.00
C16    C     0.18928   0.14664   0.01318   0.00000  Uiso   1.00
C17    C     0.21190   0.10842   0.48137   0.00000  Uiso   1.00
C18    C     0.17843   0.08660   0.43081   0.00000  Uiso   1.00
C19    C     0.12454   0.10445   0.41027   0.00000  Uiso   1.00
C20    C     0.22474   0.16960   0.06192   0.00000  Uiso   1.00
C21    C     0.29916   0.11069   0.05387   0.00000  Uiso   1.00
H22    H     0.27387   0.33071   0.26587   0.00000  Uiso   1.00
H23    H     0.09969   0.08633   0.37096   0.00000  Uiso   1.00
H24    H     0.08682   0.31118   0.19964   0.00000  Uiso   1.00
H25    H     0.15663   0.12503   0.20817   0.00000  Uiso   1.00
H26    H     0.17668   0.20830   0.29182   0.00000  Uiso   1.00
H27    H     0.19430   0.05635   0.40665   0.00000  Uiso   1.00
H28    H     0.28433   0.06211   0.47738   0.00000  Uiso   1.00
H29    H     0.21145   0.20198   0.08483   0.00000  Uiso   1.00
H30    H     0.31904   0.21733   0.43253   0.00000  Uiso   1.00
H31    H     0.12074   0.20237   0.07326   0.00000  Uiso   1.00
H32    H     0.02791   0.23370   0.03341   0.00000  Uiso   1.00
N33    N     0.14493   0.15223   0.23543   0.00000  Uiso   1.00
N34    N     0.18840   0.18110   0.26458   0.00000  Uiso   1.00
O35    O     0.29769   0.24629   0.25357   0.00000  Uiso   1.00
O36    O     0.05742   0.23704   0.24424   0.00000  Uiso   1.00
O37    O     0.31490   0.17358   0.33380   0.00000  Uiso   1.00
O38    O     0.07463   0.16433   0.32446   0.00000  Uiso   1.00
O39    O     0.27592   0.09629   0.25576   0.00000  Uiso   1.00
O40    O     0.03565   0.08704   0.24643   0.00000  Uiso   1.00
O41    O     0.25870   0.16901   0.17554   0.00000  Uiso   1.00
O42    O     0.01843   0.15976   0.16620   0.00000  Uiso   1.00
O43    O     0.06375   0.00588   0.21056   0.00000  Uiso   1.00
Zn44   Zn    0.27119   0.17284   0.25623   0.00000  Uiso   1.00
Zn45   Zn    0.06214   0.16049   0.24377   0.00000  Uiso   1.00
Br46   Br    0.36968   0.07888   0.08233   0.00000  Uiso   1.00
C47    C     0.34742   0.26463   0.24570   0.00000  Uiso   1.00
C48    C     0.38623   0.16851   0.41632   0.00000  Uiso   1.00
C49    C     0.35265   0.31837   0.23579   0.00000  Uiso   1.00
C50    C     0.36861   0.16812   0.35526   0.00000  Uiso   1.00
C51    C     0.64447   0.01371   0.24973   0.00000  Uiso   1.00
C52    C     0.65140   0.06835   0.24949   0.00000  Uiso   1.00
C53    C     0.63072   0.16150   0.14472   0.00000  Uiso   1.00
C54    C     0.60056   0.09173   0.00130   0.00000  Uiso   1.00
C55    C     0.60999   0.14935   0.08473   0.00000  Uiso   1.00
C56    C     0.35844   0.19960   0.45029   0.00000  Uiso   1.00
C57    C     0.38292   0.21010   0.00700   0.00000  Uiso   1.00
C58    C     0.46563   0.16143   0.49494   0.00000  Uiso   1.00
C59    C     0.43684   0.19251   0.02907   0.00000  Uiso   1.00
C60    C     0.43616   0.14434   0.44025   0.00000  Uiso   1.00
C61    C     0.52262   0.14664   0.01318   0.00000  Uiso   1.00
C62    C     0.54523   0.10842   0.48137   0.00000  Uiso   1.00
C63    C     0.51177   0.08660   0.43081   0.00000  Uiso   1.00
C64    C     0.45787   0.10445   0.41027   0.00000  Uiso   1.00
C65    C     0.55807   0.16960   0.06192   0.00000  Uiso   1.00
C66    C     0.63250   0.11069   0.05387   0.00000  Uiso   1.00
H67    H     0.60720   0.33071   0.26587   0.00000  Uiso   1.00
H68    H     0.43302   0.08633   0.37096   0.00000  Uiso   1.00
H69    H     0.42015   0.31118   0.19964   0.00000  Uiso   1.00
H70    H     0.48997   0.12503   0.20817   0.00000  Uiso   1.00
H71    H     0.51001   0.20830   0.29182   0.00000  Uiso   1.00
H72    H     0.52764   0.05635   0.40665   0.00000  Uiso   1.00
H73    H     0.61767   0.06211   0.47738   0.00000  Uiso   1.00
H74    H     0.54478   0.20198   0.08483   0.00000  Uiso   1.00
H75    H     0.65237   0.21733   0.43253   0.00000  Uiso   1.00
H76    H     0.45408   0.20237   0.07326   0.00000  Uiso   1.00
H77    H     0.36124   0.23370   0.03341   0.00000  Uiso   1.00
N78    N     0.47827   0.15223   0.23543   0.00000  Uiso   1.00
N79    N     0.52173   0.18110   0.26458   0.00000  Uiso   1.00
O80    O     0.63102   0.24629   0.25357   0.00000  Uiso   1.00
O81    O     0.39075   0.23704   0.24424   0.00000  Uiso   1.00
O82    O     0.64823   0.17358   0.33380   0.00000  Uiso   1.00
O83    O     0.40796   0.16433   0.32446   0.00000  Uiso   1.00
O84    O     0.60925   0.09629   0.25576   0.00000  Uiso   1.00
O85    O     0.36898   0.08704   0.24643   0.00000  Uiso   1.00
O86    O     0.59204   0.16901   0.17554   0.00000  Uiso   1.00
O87    O     0.35177   0.15976   0.16620   0.00000  Uiso   1.00
O88    O     0.39708   0.00588   0.21056   0.00000  Uiso   1.00
Zn89   Zn    0.60453   0.17284   0.25623   0.00000  Uiso   1.00
Zn90   Zn    0.39547   0.16049   0.24377   0.00000  Uiso   1.00
Br91   Br    0.70301   0.07888   0.08233   0.00000  Uiso   1.00
C92    C     0.68076   0.26463   0.24570   0.00000  Uiso   1.00
C93    C     0.71956   0.16851   0.41632   0.00000  Uiso   1.00
C94    C     0.68598   0.31837   0.23579   0.00000  Uiso   1.00
C95    C     0.70195   0.16812   0.35526   0.00000  Uiso   1.00
C96    C     0.97780   0.01371   0.24973   0.00000  Uiso   1.00
C97    C     0.98473   0.06835   0.24949   0.00000  Uiso   1.00
C98    C     0.96405   0.16150   0.14472   0.00000  Uiso   1.00
C99    C     0.93389   0.09173   0.00130   0.00000  Uiso   1.00
C100   C     0.94332   0.14935   0.08473   0.00000  Uiso   1.00
C101   C     0.69177   0.19960   0.45029   0.00000  Uiso   1.00
C102   C     0.71625   0.21010   0.00700   0.00000  Uiso   1.00
C103   C     0.79896   0.16143   0.49494   0.00000  Uiso   1.00
C104   C     0.77017   0.19251   0.02907   0.00000  Uiso   1.00
C105   C     0.76949   0.14434   0.44025   0.00000  Uiso   1.00
C106   C     0.85595   0.14664   0.01318   0.00000  Uiso   1.00
C107   C     0.87857   0.10842   0.48137   0.00000  Uiso   1.00
C108   C     0.84510   0.08660   0.43081   0.00000  Uiso   1.00
C109   C     0.79120   0.10445   0.41027   0.00000  Uiso   1.00
C110   C     0.89141   0.16960   0.06192   0.00000  Uiso   1.00
C111   C     0.96583   0.11069   0.05387   0.00000  Uiso   1.00
H112   H     0.94053   0.33071   0.26587   0.00000  Uiso   1.00
H113   H     0.76636   0.08633   0.37096   0.00000  Uiso   1.00
H114   H     0.75349   0.31118   0.19964   0.00000  Uiso   1.00
H115   H     0.82330   0.12503   0.20817   0.00000  Uiso   1.00
H116   H     0.84335   0.20830   0.29182   0.00000  Uiso   1.00
H117   H     0.86097   0.05635   0.40665   0.00000  Uiso   1.00
H118   H     0.95100   0.06211   0.47738   0.00000  Uiso   1.00
H119   H     0.87812   0.20198   0.08483   0.00000  Uiso   1.00
H120   H     0.98571   0.21733   0.43253   0.00000  Uiso   1.00
H121   H     0.78741   0.20237   0.07326   0.00000  Uiso   1.00
H122   H     0.69458   0.23370   0.03341   0.00000  Uiso   1.00
N123   N     0.81160   0.15223   0.23543   0.00000  Uiso   1.00
N124   N     0.85507   0.18110   0.26458   0.00000  Uiso   1.00
O125   O     0.96435   0.24629   0.25357   0.00000  Uiso   1.00
O126   O     0.72408   0.23704   0.24424   0.00000  Uiso   1.00
O127   O     0.98157   0.17358   0.33380   0.00000  Uiso   1.00
O128   O     0.74130   0.16433   0.32446   0.00000  Uiso   1.00
O129   O     0.94258   0.09629   0.25576   0.00000  Uiso   1.00
O130   O     0.70231   0.08704   0.24643   0.00000  Uiso   1.00
O131   O     0.92537   0.16901   0.17554   0.00000  Uiso   1.00
O132   O     0.68510   0.15976   0.16620   0.00000  Uiso   1.00
O133   O     0.73041   0.00588   0.21056   0.00000  Uiso   1.00
Zn134  Zn    0.93786   0.17284   0.25623   0.00000  Uiso   1.00
Zn135  Zn    0.72881   0.16049   0.24377   0.00000  Uiso   1.00
Br136  Br    0.03635   0.41221   0.08233   0.00000  Uiso   1.00
C137   C     0.01409   0.59796   0.24570   0.00000  Uiso   1.00
C138   C     0.05290   0.50184   0.41632   0.00000  Uiso   1.00
C139   C     0.01931   0.65170   0.23579   0.00000  Uiso   1.00
C140   C     0.03528   0.50146   0.35526   0.00000  Uiso   1.00
C141   C     0.31113   0.34704   0.24973   0.00000  Uiso   1.00
C142   C     0.31806   0.40168   0.24949   0.00000  Uiso   1.00
C143   C     0.29739   0.49484   0.14472   0.00000  Uiso   1.00
C144   C     0.26723   0.42506   0.00130   0.00000  Uiso   1.00
C145   C     0.27665   0.48269   0.08473   0.00000  Uiso   1.00
C146   C     0.02511   0.53293   0.45029   0.00000  Uiso   1.00
C147   C     0.04958   0.54343   0.00700   0.00000  Uiso   1.00
C148   C     0.13229   0.49477   0.49494   0.00000  Uiso   1.00
C149   C     0.10351   0.52584   0.02907   0.00000  Uiso   1.00
C150   C     0.10283   0.47767   0.44025   0.00000  Uiso   1.00
C151   C     0.18928   0.47997   0.01318   0.00000  Uiso   1.00
C152   C     0.21190   0.44175   0.48137   0.00000  Uiso   1.00
C153   C     0.17843   0.41993   0.43081   0.00000  Uiso   1.00
C154   C     0.12454   0.43778   0.41027   0.00000  Uiso   1.00
C155   C     0.22474   0.50293   0.06192   0.00000  Uiso   1.00
C156   C     0.29916   0.44403   0.05387   0.00000  Uiso   1.00
H157   H     0.27387   0.66405   0.26587   0.00000  Uiso   1.00
H158   H     0.09969   0.41966   0.37096   0.00000  Uiso   1.00
H159   H     0.08682   0.64452   0.19964   0.00000  Uiso   1.00
H160   H     0.15663   0.45836   0.20817   0.00000  Uiso   1.00
H161   H     0.17668   0.54163   0.29182   0.00000  Uiso   1.00
H162   H     0.19430   0.38969   0.40665   0.00000  Uiso   1.00
H163   H     0.28433   0.39544   0.47738   0.00000  Uiso   1.00
H164   H     0.21145   0.53531   0.08483   0.00000  Uiso   1.00
H165   H     0.31904   0.55066   0.43253   0.00000  Uiso   1.00
H166   H     0.12074   0.53571   0.07326   0.00000  Uiso   1.00
H167   H     0.02791   0.56703   0.03341   0.00000  Uiso   1.00
N168   N     0.14493   0.48556   0.23543   0.00000  Uiso   1.00
N169   N     0.18840   0.51444   0.26458   0.00000  Uiso   1.00
O170   O     0.29769   0.57963   0.25357   0.00000  Uiso   1.00
O171   O     0.05742   0.57038   0.24424   0.00000  Uiso   1.00
O172   O     0.31490   0.50691   0.33380   0.00000  Uiso   1.00
O173   O     0.07463   0.49766   0.32446   0.00000  Uiso   1.00
O174   O     0.27592   0.42962   0.25576   0.00000  Uiso   1.00
O175   O     0.03565   0.42037   0.24643   0.00000  Uiso   1.00
O176   O     0.25870   0.50234   0.17554   0.00000  Uiso   1.00
O177   O     0.01843   0.49309   0.16620   0.00000  Uiso   1.00
O178   O     0.06375   0.33921   0.21056   0.00000  Uiso   1.00
Zn179  Zn    0.27119   0.50618   0.25623   0.00000  Uiso   1.00
Zn180  Zn    0.06214   0.49382   0.24377   0.00000  Uiso   1.00
Br181  Br    0.36968   0.41221   0.08233   0.00000  Uiso   1.00
C182   C     0.34742   0.59796   0.24570   0.00000  Uiso   1.00
C183   C     0.38623   0.50184   0.41632   0.00000  Uiso   1.00
C184   C     0.35265   0.65170   0.23579   0.00000  Uiso   1.00
C185   C     0.36861   0.50146   0.35526   0.00000  Uiso   1.00
C186   C     0.64447   0.34704   0.24973   0.00000  Uiso   1.00
C187   C     0.65140   0.40168   0.24949   0.00000  Uiso   1.00
C188   C     0.63072   0.49484   0.14472   0.00000  Uiso   1.00
C189   C     0.60056   0.42506   0.00130   0.00000  Uiso   1.00
C190   C     0.60999   0.48269   0.08473   0.00000  Uiso   1.00
C191   C     0.35844   0.53293   0.45029   0.00000  Uiso   1.00
C192   C     0.38292   0.54343   0.00700   0.00000  Uiso   1.00
C193   C     0.46563   0.49477   0.49494   0.00000  Uiso   1.00
C194   C     0.43684   0.52584   0.02907   0.00000  Uiso   1.00
C195   C     0.43616   0.47767   0.44025   0.00000  Uiso   1.00
C196   C     0.52262   0.47997   0.01318   0.00000  Uiso   1.00
C197   C     0.54523   0.44175   0.48137   0.00000  Uiso   1.00
C198   C     0.51177   0.41993   0.43081   0.00000  Uiso   1.00
C199   C     0.45787   0.43778   0.41027   0.00000  Uiso   1.00
C200   C     0.55807   0.50293   0.06192   0.00000  Uiso   1.00
C201   C     0.63250   0.44403   0.05387   0.00000  Uiso   1.00
H202   H     0.60720   0.66405   0.26587   0.00000  Uiso   1.00
H203   H     0.43302   0.41966   0.37096   0.00000  Uiso   1.00
H204   H     0.42015   0.64452   0.19964   0.00000  Uiso   1.00
H205   H     0.48997   0.45836   0.20817   0.00000  Uiso   1.00
H206   H     0.51001   0.54163   0.29182   0.00000  Uiso   1.00
H207   H     0.52764   0.38969   0.40665   0.00000  Uiso   1.00
H208   H     0.61767   0.39544   0.47738   0.00000  Uiso   1.00
H209   H     0.54478   0.53531   0.08483   0.00000  Uiso   1.00
H210   H     0.65237   0.55066   0.43253   0.00000  Uiso   1.00
H211   H     0.45408   0.53571   0.07326   0.00000  Uiso   1.00
H212   H     0.36124   0.56703   0.03341   0.00000  Uiso   1.00
N213   N     0.47827   0.48556   0.23543   0.00000  Uiso   1.00
N214   N     0.52173   0.51444   0.26458   0.00000  Uiso   1.00
O215   O     0.63102   0.57963   0.25357   0.00000  Uiso   1.00
O216   O     0.39075   0.57038   0.24424   0.00000  Uiso   1.00
O217   O     0.64823   0.50691   0.33380   0.00000  Uiso   1.00
O218   O     0.40796   0.49766   0.32446   0.00000  Uiso   1.00
O219   O     0.60925   0.42962   0.25576   0.00000  Uiso   1.00
O220   O     0.36898   0.42037   0.24643   0.00000  Uiso   1.00
O221   O     0.59204   0.50234   0.17554   0.00000  Uiso   1.00
O222   O     0.35177   0.49309   0.16620   0.00000  Uiso   1.00
O223   O     0.39708   0.33921   0.21056   0.00000  Uiso   1.00
Zn224  Zn    0.60453   0.50618   0.25623   0.00000  Uiso   1.00
Zn225  Zn    0.39547   0.49382   0.24377   0.00000  Uiso   1.00
Br226  Br    0.70301   0.41221   0.08233   0.00000  Uiso   1.00
C227   C     0.68076   0.59796   0.24570   0.00000  Uiso   1.00
C228   C     0.71956   0.50184   0.41632   0.00000  Uiso   1.00
C229   C     0.68598   0.65170   0.23579   0.00000  Uiso   1.00
C230   C     0.70195   0.50146   0.35526   0.00000  Uiso   1.00
C231   C     0.97780   0.34704   0.24973   0.00000  Uiso   1.00
C232   C     0.98473   0.40168   0.24949   0.00000  Uiso   1.00
C233   C     0.96405   0.49484   0.14472   0.00000  Uiso   1.00
C234   C     0.93389   0.42506   0.00130   0.00000  Uiso   1.00
C235   C     0.94332   0.48269   0.08473   0.00000  Uiso   1.00
C236   C     0.69177   0.53293   0.45029   0.00000  Uiso   1.00
C237   C     0.71625   0.54343   0.00700   0.00000  Uiso   1.00
C238   C     0.79896   0.49477   0.49494   0.00000  Uiso   1.00
C239   C     0.77017   0.52584   0.02907   0.00000  Uiso   1.00
C240   C     0.76949   0.47767   0.44025   0.00000  Uiso   1.00
C241   C     0.85595   0.47997   0.01318   0.00000  Uiso   1.00
C242   C     0.87857   0.44175   0.48137   0.00000  Uiso   1.00
C243   C     0.84510   0.41993   0.43081   0.00000  Uiso   1.00
C244   C     0.79120   0.43778   0.41027   0.00000  Uiso   1.00
C245   C     0.89141   0.50293   0.06192   0.00000  Uiso   1.00
C246   C     0.96583   0.44403   0.05387   0.00000  Uiso   1.00
H247   H     0.94053   0.66405   0.26587   0.00000  Uiso   1.00
H248   H     0.76636   0.41966   0.37096   0.00000  Uiso   1.00
H249   H     0.75349   0.64452   0.19964   0.00000  Uiso   1.00
H250   H     0.82330   0.45836   0.20817   0.00000  Uiso   1.00
H251   H     0.84335   0.54163   0.29182   0.00000  Uiso   1.00
H252   H     0.86097   0.38969   0.40665   0.00000  Uiso   1.00
H253   H     0.95100   0.39544   0.47738   0.00000  Uiso   1.00
H254   H     0.87812   0.53531   0.08483   0.00000  Uiso   1.00
H255   H     0.98571   0.55066   0.43253   0.00000  Uiso   1.00
H256   H     0.78741   0.53571   0.07326   0.00000  Uiso   1.00
H257   H     0.69458   0.56703   0.03341   0.00000  Uiso   1.00
N258   N     0.81160   0.48556   0.23543   0.00000  Uiso   1.00
N259   N     0.85507   0.51444   0.26458   0.00000  Uiso   1.00
O260   O     0.96435   0.57963   0.25357   0.00000  Uiso   1.00
O261   O     0.72408   0.57038   0.24424   0.00000  Uiso   1.00
O262   O     0.98157   0.50691   0.33380   0.00000  Uiso   1.00
O263   O     0.74130   0.49766   0.32446   0.00000  Uiso   1.00
O264   O     0.94258   0.42962   0.25576   0.00000  Uiso   1.00
O265   O     0.70231   0.42037   0.24643   0.00000  Uiso   1.00
O266   O     0.92537   0.50234   0.17554   0.00000  Uiso   1.00
O267   O     0.68510   0.49309   0.16620   0.00000  Uiso   1.00
O268   O     0.73041   0.33921   0.21056   0.00000  Uiso   1.00
Zn269  Zn    0.93786   0.50618   0.25623   0.00000  Uiso   1.00
Zn270  Zn    0.72881   0.49382   0.24377   0.00000  Uiso   1.00
Br271  Br    0.03635   0.74555   0.08233   0.00000  Uiso   1.00
C272   C     0.01409   0.93129   0.24570   0.00000  Uiso   1.00
C273   C     0.05290   0.83518   0.41632   0.00000  Uiso   1.00
C274   C     0.01931   0.98503   0.23579   0.00000  Uiso   1.00
C275   C     0.03528   0.83479   0.35526   0.00000  Uiso   1.00
C276   C     0.31113   0.68038   0.24973   0.00000  Uiso   1.00
C277   C     0.31806   0.73502   0.24949   0.00000  Uiso   1.00
C278   C     0.29739   0.82817   0.14472   0.00000  Uiso   1.00
C279   C     0.26723   0.75840   0.00130   0.00000  Uiso   1.00
C280   C     0.27665   0.81602   0.08473   0.00000  Uiso   1.00
C281   C     0.02511   0.86627   0.45029   0.00000  Uiso   1.00
C282   C     0.04958   0.87676   0.00700   0.00000  Uiso   1.00
C283   C     0.13229   0.82810   0.49494   0.00000  Uiso   1.00
C284   C     0.10351   0.85918   0.02907   0.00000  Uiso   1.00
C285   C     0.10283   0.81101   0.44025   0.00000  Uiso   1.00
C286   C     0.18928   0.81331   0.01318   0.00000  Uiso   1.00
C287   C     0.21190   0.77508   0.48137   0.00000  Uiso   1.00
C288   C     0.17843   0.75326   0.43081   0.00000  Uiso   1.00
C289   C     0.12454   0.77111   0.41027   0.00000  Uiso   1.00
C290   C     0.22474   0.83626   0.06192   0.00000  Uiso   1.00
C291   C     0.29916   0.77736   0.05387   0.00000  Uiso   1.00
H292   H     0.27387   0.99738   0.26587   0.00000  Uiso   1.00
H293   H     0.09969   0.75299   0.37096   0.00000  Uiso   1.00
H294   H     0.08682   0.97785   0.19964   0.00000  Uiso   1.00
H295   H     0.15663   0.79170   0.20817   0.00000  Uiso   1.00
H296   H     0.17668   0.87496   0.29182   0.00000  Uiso   1.00
H297   H     0.19430   0.72302   0.40665   0.00000  Uiso   1.00
H298   H     0.28433   0.72878   0.47738   0.00000  Uiso   1.00
H299   H     0.21145   0.86864   0.08483   0.00000  Uiso   1.00
H300   H     0.31904   0.88399   0.43253   0.00000  Uiso   1.00
H301   H     0.12074   0.86904   0.07326   0.00000  Uiso   1.00
H302   H     0.02791   0.90036   0.03341   0.00000  Uiso   1.00
N303   N     0.14493   0.81890   0.23543   0.00000  Uiso   1.00
N304   N     0.18840   0.84777   0.26458   0.00000  Uiso   1.00
O305   O     0.29769   0.91296   0.25357   0.00000  Uiso   1.00
O306   O     0.05742   0.90371   0.24424   0.00000  Uiso   1.00
O307   O     0.31490   0.84024   0.33380   0.00000  Uiso   1.00
O308   O     0.07463   0.83099   0.32446   0.00000  Uiso   1.00
O309   O     0.27592   0.76296   0.25576   0.00000  Uiso   1.00
O310   O     0.03565   0.75371   0.24643   0.00000  Uiso   1.00
O311   O     0.25870   0.83567   0.17554   0.00000  Uiso   1.00
O312   O     0.01843   0.82642   0.16620   0.00000  Uiso   1.00
O313   O     0.06375   0.67254   0.21056   0.00000  Uiso   1.00
Zn314  Zn    0.27119   0.83951   0.25623   0.00000  Uiso   1.00
Zn315  Zn    0.06214   0.82716   0.24377   0.00000  Uiso   1.00
Br316  Br    0.36968   0.74555   0.08233   0.00000  Uiso   1.00
C317   C     0.34742   0.93129   0.24570   0.00000  Uiso   1.00
C318   C     0.38623   0.83518   0.41632   0.00000  Uiso   1.00
C319   C     0.35265   0.98503   0.23579   0.00000  Uiso   1.00
C320   C     0.36861   0.83479   0.35526   0.00000  Uiso   1.00
C321   C     0.64447   0.68038   0.24973   0.00000  Uiso   1.00
C322   C     0.65140   0.73502   0.24949   0.00000  Uiso   1.00
C323   C     0.63072   0.82817   0.14472   0.00000  Uiso   1.00
C324   C     0.60056   0.75840   0.00130   0.00000  Uiso   1.00
C325   C     0.60999   0.81602   0.08473   0.00000  Uiso   1.00
C326   C     0.35844   0.86627   0.45029   0.00000  Uiso   1.00
C327   C     0.38292   0.87676   0.00700   0.00000  Uiso   1.00
C328   C     0.46563   0.82810   0.49494   0.00000  Uiso   1.00
C329   C     0.43684   0.85918   0.02907   0.00000  Uiso   1.00
C330   C     0.43616   0.81101   0.44025   0.00000  Uiso   1.00
C331   C     0.52262   0.81331   0.01318   0.00000  Uiso   1.00
C332   C     0.54523   0.77508   0.48137   0.00000  Uiso   1.00
C333   C     0.51177   0.75326   0.43081   0.00000  Uiso   1.00
C334   C     0.45787   0.77111   0.41027   0.00000  Uiso   1.00
C335   C     0.55807   0.83626   0.06192   0.00000  Uiso   1.00
C336   C     0.63250   0.77736   0.05387   0.00000  Uiso   1.00
H337   H     0.60720   0.99738   0.26587   0.00000  Uiso   1.00
H338   H     0.43302   0.75299   0.37096   0.00000  Uiso   1.00
H339   H     0.42015   0.97785   0.19964   0.00000  Uiso   1.00
H340   H     0.48997   0.79170   0.20817   0.00000  Uiso   1.00
H341   H     0.51001   0.87496   0.29182   0.00000  Uiso   1.00
H342   H     0.52764   0.72302   0.40665   0.00000  Uiso   1.00
H343   H     0.61767   0.72878   0.47738   0.00000  Uiso   1.00
H344   H     0.54478   0.86864   0.08483   0.00000  Uiso   1.00
H345   H     0.65237   0.88399   0.43253   0.00000  Uiso   1.00
H346   H     0.45408   0.86904   0.07326   0.00000  Uiso   1.00
H347   H     0.36124   0.90036   0.03341   0.00000  Uiso   1.00
N348   N     0.47827   0.81890   0.23543   0.00000  Uiso   1.00
N349   N     0.52173   0.84777   0.26458   0.00000  Uiso   1.00
O350   O     0.63102   0.91296   0.25357   0.00000  Uiso   1.00
O351   O     0.39075   0.90371   0.24424   0.00000  Uiso   1.00
O352   O     0.64823   0.84024   0.33380   0.00000  Uiso   1.00
O353   O     0.40796   0.83099   0.32446   0.00000  Uiso   1.00
O354   O     0.60925   0.76296   0.25576   0.00000  Uiso   1.00
O355   O     0.36898   0.75371   0.24643   0.00000  Uiso   1.00
O356   O     0.59204   0.83567   0.17554   0.00000  Uiso   1.00
O357   O     0.35177   0.82642   0.16620   0.00000  Uiso   1.00
O358   O     0.39708   0.67254   0.21056   0.00000  Uiso   1.00
Zn359  Zn    0.60453   0.83951   0.25623   0.00000  Uiso   1.00
Zn360  Zn    0.39547   0.82716   0.24377   0.00000  Uiso   1.00
Br361  Br    0.70301   0.74555   0.08233   0.00000  Uiso   1.00
C362   C     0.68076   0.93129   0.24570   0.00000  Uiso   1.00
C363   C     0.71956   0.83518   0.41632   0.00000  Uiso   1.00
C364   C     0.68598   0.98503   0.23579   0.00000  Uiso   1.00
C365   C     0.70195   0.83479   0.35526   0.00000  Uiso   1.00
C366   C     0.97780   0.68038   0.24973   0.00000  Uiso   1.00
C367   C     0.98473   0.73502   0.24949   0.00000  Uiso   1.00
C368   C     0.96405   0.82817   0.14472   0.00000  Uiso   1.00
C369   C     0.93389   0.75840   0.00130   0.00000  Uiso   1.00
C370   C     0.94332   0.81602   0.08473   0.00000  Uiso   1.00
C371   C     0.69177   0.86627   0.45029   0.00000  Uiso   1.00
C372   C     0.71625   0.87676   0.00700   0.00000  Uiso   1.00
C373   C     0.79896   0.82810   0.49494   0.00000  Uiso   1.00
C374   C     0.77017   0.85918   0.02907   0.00000  Uiso   1.00
C375   C     0.76949   0.81101   0.44025   0.00000  Uiso   1.00
C376   C     0.85595   0.81331   0.01318   0.00000  Uiso   1.00
C377   C     0.87857   0.77508   0.48137   0.00000  Uiso   1.00
C378   C     0.84510   0.75326   0.43081   0.00000  Uiso   1.00
C379   C     0.79120   0.77111   0.41027   0.00000  Uiso   1.00
C380   C     0.89141   0.83626   0.06192   0.00000  Uiso   1.00
C381   C     0.96583   0.77736   0.05387   0.00000  Uiso   1.00
H382   H     0.94053   0.99738   0.26587   0.00000  Uiso   1.00
H383   H     0.76636   0.75299   0.37096   0.00000  Uiso   1.00
H384   H     0.75349   0.97785   0.19964   0.00000  Uiso   1.00
H385   H     0.82330   0.79170   0.20817   0.00000  Uiso   1.00
H386   H     0.84335   0.87496   0.29182   0.00000  Uiso   1.00
H387   H     0.86097   0.72302   0.40665   0.00000  Uiso   1.00
H388   H     0.95100   0.72878   0.47738   0.00000  Uiso   1.00
H389   H     0.87812   0.86864   0.08483   0.00000  Uiso   1.00
H390   H     0.98571   0.88399   0.43253   0.00000  Uiso   1.00
H391   H     0.78741   0.86904   0.07326   0.00000  Uiso   1.00
H392   H     0.69458   0.90036   0.03341   0.00000  Uiso   1.00
N393   N     0.81160   0.81890   0.23543   0.00000  Uiso   1.00
N394   N     0.85507   0.84777   0.26458   0.00000  Uiso   1.00
O395   O     0.96435   0.91296   0.25357   0.00000  Uiso   1.00
O396   O     0.72408   0.90371   0.24424   0.00000  Uiso   1.00
O397   O     0.98157   0.84024   0.33380   0.00000  Uiso   1.00
O398   O     0.74130   0.83099   0.32446   0.00000  Uiso   1.00
O399   O     0.94258   0.76296   0.25576   0.00000  Uiso   1.00
O400   O     0.70231   0.75371   0.24643   0.00000  Uiso   1.00
O401   O     0.92537   0.83567   0.17554   0.00000  Uiso   1.00
O402   O     0.68510   0.82642   0.16620   0.00000  Uiso   1.00
O403   O     0.73041   0.67254   0.21056   0.00000  Uiso   1.00
Zn404  Zn    0.93786   0.83951   0.25623   0.00000  Uiso   1.00
Zn405  Zn    0.72881   0.82716   0.24377   0.00000  Uiso   1.00
Br406  Br    0.03635   0.07888   0.58233   0.00000  Uiso   1.00
C407   C     0.01409   0.26463   0.74570   0.00000  Uiso   1.00
C408   C     0.05290   0.16851   0.91632   0.00000  Uiso   1.00
C409   C     0.01931   0.31837   0.73579   0.00000  Uiso   1.00
C410   C     0.03528   0.16812   0.85526   0.00000  Uiso   1.00
C411   C     0.31113   0.01371   0.74973   0.00000  Uiso   1.00
C412   C     0.31806   0.06835   0.74949   0.00000  Uiso   1.00
C413   C     0.29739   0.16150   0.64472   0.00000  Uiso   1.00
C414   C     0.26723   0.09173   0.50130   0.00000  Uiso   1.00
C415   C     0.27665   0.14935   0.58473   0.00000  Uiso   1.00
C416   C     0.02511   0.19960   0.95029   0.00000  Uiso   1.00
C417   C     0.04958   0.21010   0.50700   0.00000  Uiso   1.00
C418   C     0.13229   0.16143   0.99494   0.00000  Uiso   1.00
C419   C     0.10351   0.19251   0.52907   0.00000  Uiso   1.00
C420   C     0.10283   0.14434   0.94025   0.00000  Uiso   1.00
C421   C     0.18928   0.14664   0.51318   0.00000  Uiso   1.00
C422   C     0.21190   0.10842   0.98137   0.00000  Uiso   1.00
C423   C     0.17843   0.08660   0.93081   0.00000  Uiso   1.00
C424   C     0.12454   0.10445   0.91027   0.00000  Uiso   1.00
C425   C     0.22474   0.16960   0.56192   0.00000  Uiso   1.00
C426   C     0.29916   0.11069   0.55387   0.00000  Uiso   1.00
H427   H     0.27387   0.33071   0.76587   0.00000  Uiso   1.00
H428   H     0.09969   0.08633   0.87096   0.00000  Uiso   1.00
H429   H     0.08682   0.31118   0.69964   0.00000  Uiso   1.00
H430   H     0.15663   0.12503   0.70817   0.00000  Uiso   1.00
H431   H     0.17668   0.20830   0.79182   0.00000  Uiso   1.00
H432   H     0.19430   0.05635   0.90665   0.00000  Uiso   1.00
H433   H     0.28433   0.06211   0.97738   0.00000  Uiso   1.00
H434   H     0.21145   0.20198   0.58483   0.00000  Uiso   1.00
H435   H     0.31904   0.21733   0.93253   0.00000  Uiso   1.00
H436   H     0.12074   0.20237   0.57326   0.00000  Uiso   1.00
H437   H     0.02791   0.23370   0.53341   0.00000  Uiso   1.00
N438   N     0.14493   0.15223   0.73543   0.00000  Uiso   1.00
N439   N     0.18840   0.18110   0.76458   0.00000  Uiso   1.00
O440   O     0.29769   0.24629   0.75357   0.00000  Uiso   1.00
O441   O     0.05742   0.23704   0.74424   0.00000  Uiso   1.00
O442   O     0.31490   0.17358   0.83380   0.00000  Uiso   1.00
O443   O     0.07463   0.16433   0.82446   0.00000  Uiso   1.00
O444   O     0.27592   0.09629   0.75576   0.00000  Uiso   1.00
O445   O     0.03565   0.08704   0.74643   0.00000  Uiso   1.00
O446   O     0.25870   0.16901   0.67554   0.00000  Uiso   1.00
O447   O     0.01843   0.15976   0.66620   0.00000  Uiso   1.00
O448   O     0.06375   0.00588   0.71056   0.00000  Uiso   1.00
Zn449  Zn    0.27119   0.17284   0.75623   0.00000  Uiso   1.00
Zn450  Zn    0.06214   0.16049   0.74377   0.00000  Uiso   1.00
Br451  Br    0.36968   0.07888   0.58233   0.00000  Uiso   1.00
C452   C     0.34742   0.26463   0.74570   0.00000  Uiso   1.00
C453   C     0.38623   0.16851   0.91632   0.00000  Uiso   1.00
C454   C     0.35265   0.31837   0.73579   0.00000  Uiso   1.00
C455   C     0.36861   0.16812   0.85526   0.00000  Uiso   1.00
C456   C     0.64447   0.01371   0.74973   0.00000  Uiso   1.00
C457   C     0.65140   0.06835   0.74949   0.00000  Uiso   1.00
C458   C     0.63072   0.16150   0.64472   0.00000  Uiso   1.00
C459   C     0.60056   0.09173   0.50130   0.00000  Uiso   1.00
C460   C     0.60999   0.14935   0.58473   0.00000  Uiso   1.00
C461   C     0.35844   0.19960   0.95029   0.00000  Uiso   1.00
C462   C     0.38292   0.21010   0.50700   0.00000  Uiso   1.00
C463   C     0.46563   0.16143   0.99494   0.00000  Uiso   1.00
C464   C     0.43684   0.19251   0.52907   0.00000  Uiso   1.00
C465   C     0.43616   0.14434   0.94025   0.00000  Uiso   1.00
C466   C     0.52262   0.14664   0.51318   0.00000  Uiso   1.00
C467   C     0.54523   0.10842   0.98137   0.00000  Uiso   1.00
C468   C     0.51177   0.08660   0.93081   0.00000  Uiso   1.00
C469   C     0.45787   0.10445   0.91027   0.00000  Uiso   1.00
C470   C     0.55807   0.16960   0.56192   0.00000  Uiso   1.00
C471   C     0.63250   0.11069   0.55387   0.00000  Uiso   1.00
H472   H     0.60720   0.33071   0.76587   0.00000  Uiso   1.00
H473   H     0.43302   0.08633   0.87096   0.00000  Uiso   1.00
H474   H     0.42015   0.31118   0.69964   0.00000  Uiso   1.00
H475   H     0.48997   0.12503   0.70817   0.00000  Uiso   1.00
H476   H     0.51001   0.20830   0.79182   0.00000  Uiso   1.00
H477   H     0.52764   0.05635   0.90665   0.00000  Uiso   1.00
H478   H     0.61767   0.06211   0.97738   0.00000  Uiso   1.00
H479   H     0.54478   0.20198   0.58483   0.00000  Uiso   1.00
H480   H     0.65237   0.21733   0.93253   0.00000  Uiso   1.00
H481   H     0.45408   0.20237   0.57326   0.00000  Uiso   1.00
H482   H     0.36124   0.23370   0.53341   0.00000  Uiso   1.00
N483   N     0.47827   0.15223   0.73543   0.00000  Uiso   1.00
N484   N     0.52173   0.18110   0.76458   0.00000  Uiso   1.00
O485   O     0.63102   0.24629   0.75357   0.00000  Uiso   1.00
O486   O     0.39075   0.23704   0.74424   0.00000  Uiso   1.00
O487   O     0.64823   0.17358   0.83380   0.00000  Uiso   1.00
O488   O     0.40796   0.16433   0.82446   0.00000  Uiso   1.00
O489   O     0.60925   0.09629   0.75576   0.00000  Uiso   1.00
O490   O     0.36898   0.08704   0.74643   0.00000  Uiso   1.00
O491   O     0.59204   0.16901   0.67554   0.00000  Uiso   1.00
O492   O     0.35177   0.15976   0.66620   0.00000  Uiso   1.00
O493   O     0.39708   0.00588   0.71056   0.00000  Uiso   1.00
Zn494  Zn    0.60453   0.17284   0.75623   0.00000  Uiso   1.00
Zn495  Zn    0.39547   0.16049   0.74377   0.00000  Uiso   1.00
Br496  Br    0.70301   0.07888   0.58233   0.00000  Uiso   1.00
C497   C     0.68076   0.26463   0.74570   0.00000  Uiso   1.00
C498   C     0.71956   0.16851   0.91632   0.00000  Uiso   1.00
C499   C     0.68598   0.31837   0.73579   0.00000  Uiso   1.00
C500   C     0.70195   0.16812   0.85526   0.00000  Uiso   1.00
C501   C     0.97780   0.01371   0.74973   0.00000  Uiso   1.00
C502   C     0.98473   0.06835   0.74949   0.00000  Uiso   1.00
C503   C     0.96405   0.16150   0.64472   0.00000  Uiso   1.00
C504   C     0.93389   0.09173   0.50130   0.00000  Uiso   1.00
C505   C     0.94332   0.14935   0.58473   0.00000  Uiso   1.00
C506   C     0.69177   0.19960   0.95029   0.00000  Uiso   1.00
C507   C     0.71625   0.21010   0.50700   0.00000  Uiso   1.00
C508   C     0.79896   0.16143   0.99494   0.00000  Uiso   1.00
C509   C     0.77017   0.19251   0.52907   0.00000  Uiso   1.00
C510   C     0.76949   0.14434   0.94025   0.00000  Uiso   1.00
C511   C     0.85595   0.14664   0.51318   0.00000  Uiso   1.00
C512   C     0.87857   0.10842   0.98137   0.00000  Uiso   1.00
C513   C     0.84510   0.08660   0.93081   0.00000  Uiso   1.00
C514   C     0.79120   0.10445   0.91027   0.00000  Uiso   1.00
C515   C     0.89141   0.16960   0.56192   0.00000  Uiso   1.00
C516   C     0.96583   0.11069   0.55387   0.00000  Uiso   1.00
H517   H     0.94053   0.33071   0.76587   0.00000  Uiso   1.00
H518   H     0.76636   0.08633   0.87096   0.00000  Uiso   1.00
H519   H     0.75349   0.31118   0.69964   0.00000  Uiso   1.00
H520   H     0.82330   0.12503   0.70817   0.00000  Uiso   1.00
H521   H     0.84335   0.20830   0.79182   0.00000  Uiso   1.00
H522   H     0.86097   0.05635   0.90665   0.00000  Uiso   1.00
H523   H     0.95100   0.06211   0.97738   0.00000  Uiso   1.00
H524   H     0.87812   0.20198   0.58483   0.00000  Uiso   1.00
H525   H     0.98571   0.21733   0.93253   0.00000  Uiso   1.00
H526   H     0.78741   0.20237   0.57326   0.00000  Uiso   1.00
H527   H     0.69458   0.23370   0.53341   0.00000  Uiso   1.00
N528   N     0.81160   0.15223   0.73543   0.00000  Uiso   1.00
N529   N     0.85507   0.18110   0.76458   0.00000  Uiso   1.00
O530   O     0.96435   0.24629   0.75357   0.00000  Uiso   1.00
O531   O     0.72408   0.23704   0.74424   0.00000  Uiso   1.00
O532   O     0.98157   0.17358   0.83380   0.00000  Uiso   1.00
O533   O     0.74130   0.16433   0.82446   0.00000  Uiso   1.00
O534   O     0.94258   0.09629   0.75576   0.00000  Uiso   1.00
O535   O     0.70231   0.08704   0.74643   0.00000  Uiso   1.00
O536   O     0.92537   0.16901   0.67554   0.00000  Uiso   1.00
O537   O     0.68510   0.15976   0.66620   0.00000  Uiso   1.00
O538   O     0.73041   0.00588   0.71056   0.00000  Uiso   1.00
Zn539  Zn    0.93786   0.17284   0.75623   0.00000  Uiso   1.00
Zn540  Zn    0.72881   0.16049   0.74377   0.00000  Uiso   1.00
Br541  Br    0.03635   0.41221   0.58233   0.00000  Uiso   1.00
C542   C     0.01409   0.59796   0.74570   0.00000  Uiso   1.00
C543   C     0.05290   0.50184   0.91632   0.00000  Uiso   1.00
C544   C     0.01931   0.65170   0.73579   0.00000  Uiso   1.00
C545   C     0.03528   0.50146   0.85526   0.00000  Uiso   1.00
C546   C     0.31113   0.34704   0.74973   0.00000  Uiso   1.00
C547   C     0.31806   0.40168   0.74949   0.00000  Uiso   1.00
C548   C     0.29739   0.49484   0.64472   0.00000  Uiso   1.00
C549   C     0.26723   0.42506   0.50130   0.00000  Uiso   1.00
C550   C     0.27665   0.48269   0.58473   0.00000  Uiso   1.00
C551   C     0.02511   0.53293   0.95029   0.00000  Uiso   1.00
C552   C     0.04958   0.54343   0.50700   0.00000  Uiso   1.00
C553   C     0.13229   0.49477   0.99494   0.00000  Uiso   1.00
C554   C     0.10351   0.52584   0.52907   0.00000  Uiso   1.00
C555   C     0.10283   0.47767   0.94025   0.00000  Uiso   1.00
C556   C     0.18928   0.47997   0.51318   0.00000  Uiso   1.00
C557   C     0.21190   0.44175   0.98137   0.00000  Uiso   1.00
C558   C     0.17843   0.41993   0.93081   0.00000  Uiso   1.00
C559   C     0.12454   0.43778   0.91027   0.00000  Uiso   1.00
C560   C     0.22474   0.50293   0.56192   0.00000  Uiso   1.00
C561   C     0.29916   0.44403   0.55387   0.00000  Uiso   1.00
H562   H     0.27387   0.66405   0.76587   0.00000  Uiso   1.00
H563   H     0.09969   0.41966   0.87096   0.00000  Uiso   1.00
H564   H     0.08682   0.64452   0.69964   0.00000  Uiso   1.00
H565   H     0.15663   0.45836   0.70817   0.00000  Uiso   1.00
H566   H     0.17668   0.54163   0.79182   0.00000  Uiso   1.00
H567   H     0.19430   0.38969   0.90665   0.00000  Uiso   1.00
H568   H     0.28433   0.39544   0.97738   0.00000  Uiso   1.00
H569   H     0.21145   0.53531   0.58483   0.00000  Uiso   1.00
H570   H     0.31904   0.55066   0.93253   0.00000  Uiso   1.00
H571   H     0.12074   0.53571   0.57326   0.00000  Uiso   1.00
H572   H     0.02791   0.56703   0.53341   0.00000  Uiso   1.00
N573   N     0.14493   0.48556   0.73543   0.00000  Uiso   1.00
N574   N     0.18840   0.51444   0.76458   0.00000  Uiso   1.00
O575   O     0.29769   0.57963   0.75357   0.00000  Uiso   1.00
O576   O     0.05742   0.57038   0.74424   0.00000  Uiso   1.00
O577   O     0.31490   0.50691   0.83380   0.00000  Uiso   1.00
O578   O     0.07463   0.49766   0.82446   0.00000  Uiso   1.00
O579   O     0.27592   0.42962   0.75576   0.00000  Uiso   1.00
O580   O     0.03565   0.42037   0.74643   0.00000  Uiso   1.00
O581   O     0.25870   0.50234   0.67554   0.00000  Uiso   1.00
O582   O     0.01843   0.49309   0.66620   0.00000  Uiso   1.00
O583   O     0.06375   0.33921   0.71056   0.00000  Uiso   1.00
Zn584  Zn    0.27119   0.50618   0.75623   0.00000  Uiso   1.00
Zn585  Zn    0.06214   0.49382   0.74377   0.00000  Uiso   1.00
Br586  Br    0.36968   0.41221   0.58233   0.00000  Uiso   1.00
C587   C     0.34742   0.59796   0.74570   0.00000  Uiso   1.00
C588   C     0.38623   0.50184   0.91632   0.00000  Uiso   1.00
C589   C     0.35265   0.65170   0.73579   0.00000  Uiso   1.00
C590   C     0.36861   0.50146   0.85526   0.00000  Uiso   1.00
C591   C     0.64447   0.34704   0.74973   0.00000  Uiso   1.00
C592   C     0.65140   0.40168   0.74949   0.00000  Uiso   1.00
C593   C     0.63072   0.49484   0.64472   0.00000  Uiso   1.00
C594   C     0.60056   0.42506   0.50130   0.00000  Uiso   1.00
C595   C     0.60999   0.48269   0.58473   0.00000  Uiso   1.00
C596   C     0.35844   0.53293   0.95029   0.00000  Uiso   1.00
C597   C     0.38292   0.54343   0.50700   0.00000  Uiso   1.00
C598   C     0.46563   0.49477   0.99494   0.00000  Uiso   1.00
C599   C     0.43684   0.52584   0.52907   0.00000  Uiso   1.00
C600   C     0.43616   0.47767   0.94025   0.00000  Uiso   1.00
C601   C     0.52262   0.47997   0.51318   0.00000  Uiso   1.00
C602   C     0.54523   0.44175   0.98137   0.00000  Uiso   1.00
C603   C     0.51177   0.41993   0.93081   0.00000  Uiso   1.00
C604   C     0.45787   0.43778   0.91027   0.00000  Uiso   1.00
C605   C     0.55807   0.50293   0.56192   0.00000  Uiso   1.00
C606   C     0.63250   0.44403   0.55387   0.00000  Uiso   1.00
H607   H     0.60720   0.66405   0.76587   0.00000  Uiso   1.00
H608   H     0.43302   0.41966   0.87096   0.00000  Uiso   1.00
H609   H     0.42015   0.64452   0.69964   0.00000  Uiso   1.00
H610   H     0.48997   0.45836   0.70817   0.00000  Uiso   1.00
H611   H     0.51001   0.54163   0.79182   0.00000  Uiso   1.00
H612   H     0.52764   0.38969   0.90665   0.00000  Uiso   1.00
H613   H     0.61767   0.39544   0.97738   0.00000  Uiso   1.00
H614   H     0.54478   0.53531   0.58483   0.00000  Uiso   1.00
H615   H     0.65237   0.55066   0.93253   0.00000  Uiso   1.00
H616   H     0.45408   0.53571   0.57326   0.00000  Uiso   1.00
H617   H     0.36124   0.56703   0.53341   0.00000  Uiso   1.00
N618   N     0.47827   0.48556   0.73543   0.00000  Uiso   1.00
N619   N     0.52173   0.51444   0.76458   0.00000  Uiso   1.00
O620   O     0.63102   0.57963   0.75357   0.00000  Uiso   1.00
O621   O     0.39075   0.57038   0.74424   0.00000  Uiso   1.00
O622   O     0.64823   0.50691   0.83380   0.00000  Uiso   1.00
O623   O     0.40796   0.49766   0.82446   0.00000  Uiso   1.00
O624   O     0.60925   0.42962   0.75576   0.00000  Uiso   1.00
O625   O     0.36898   0.42037   0.74643   0.00000  Uiso   1.00
O626   O     0.59204   0.50234   0.67554   0.00000  Uiso   1.00
O627   O     0.35177   0.49309   0.66620   0.00000  Uiso   1.00
O628   O     0.39708   0.33921   0.71056   0.00000  Uiso   1.00
Zn629  Zn    0.60453   0.50618   0.75623   0.00000  Uiso   1.00
Zn630  Zn    0.39547   0.49382   0.74377   0.00000  Uiso   1.00
Br631  Br    0.70301   0.41221   0.58233   0.00000  Uiso   1.00
C632   C     0.68076   0.59796   0.74570   0.00000  Uiso   1.00
C633   C     0.71956   0.50184   0.91632   0.00000  Uiso   1.00
C634   C     0.68598   0.65170   0.73579   0.00000  Uiso   1.00
C635   C     0.70195   0.50146   0.85526   0.00000  Uiso   1.00
C636   C     0.97780   0.34704   0.74973   0.00000  Uiso   1.00
C637   C     0.98473   0.40168   0.74949   0.00000  Uiso   1.00
C638   C     0.96405   0.49484   0.64472   0.00000  Uiso   1.00
C639   C     0.93389   0.42506   0.50130   0.00000  Uiso   1.00
C640   C     0.94332   0.48269   0.58473   0.00000  Uiso   1.00
C641   C     0.69177   0.53293   0.95029   0.00000  Uiso   1.00
C642   C     0.71625   0.54343   0.50700   0.00000  Uiso   1.00
C643   C     0.79896   0.49477   0.99494   0.00000  Uiso   1.00
C644   C     0.77017   0.52584   0.52907   0.00000  Uiso   1.00
C645   C     0.76949   0.47767   0.94025   0.00000  Uiso   1.00
C646   C     0.85595   0.47997   0.51318   0.00000  Uiso   1.00
C647   C     0.87857   0.44175   0.98137   0.00000  Uiso   1.00
C648   C     0.84510   0.41993   0.93081   0.00000  Uiso   1.00
C649   C     0.79120   0.43778   0.91027   0.00000  Uiso   1.00
C650   C     0.89141   0.50293   0.56192   0.00000  Uiso   1.00
C651   C     0.96583   0.44403   0.55387   0.00000  Uiso   1.00
H652   H     0.94053   0.66405   0.76587   0.00000  Uiso   1.00
H653   H     0.76636   0.41966   0.87096   0.00000  Uiso   1.00
H654   H     0.75349   0.64452   0.69964   0.00000  Uiso   1.00
H655   H     0.82330   0.45836   0.70817   0.00000  Uiso   1.00
H656   H     0.84335   0.54163   0.79182   0.00000  Uiso   1.00
H657   H     0.86097   0.38969   0.90665   0.00000  Uiso   1.00
H658   H     0.95100   0.39544   0.97738   0.00000  Uiso   1.00
H659   H     0.87812   0.53531   0.58483   0.00000  Uiso   1.00
H660   H     0.98571   0.55066   0.93253   0.00000  Uiso   1.00
H661   H     0.78741   0.53571   0.57326   0.00000  Uiso   1.00
H662   H     0.69458   0.56703   0.53341   0.00000  Uiso   1.00
N663   N     0.81160   0.48556   0.73543   0.00000  Uiso   1.00
N664   N     0.85507   0.51444   0.76458   0.00000  Uiso   1.00
O665   O     0.96435   0.57963   0.75357   0.00000  Uiso   1.00
O666   O     0.72408   0.57038   0.74424   0.00000  Uiso   1.00
O667   O     0.98157   0.50691   0.83380   0.00000  Uiso   1.00
O668   O     0.74130   0.49766   0.82446   0.00000  Uiso   1.00
O669   O     0.94258   0.42962   0.75576   0.00000  Uiso   1.00
O670   O     0.70231   0.42037   0.74643   0.00000  Uiso   1.00
O671   O     0.92537   0.50234   0.67554   0.00000  Uiso   1.00
O672   O     0.68510   0.49309   0.66620   0.00000  Uiso   1.00
O673   O     0.73041   0.33921   0.71056   0.00000  Uiso   1.00
Zn674  Zn    0.93786   0.50618   0.75623   0.00000  Uiso   1.00
Zn675  Zn    0.72881   0.49382   0.74377   0.00000  Uiso   1.00
Br676  Br    0.03635   0.74555   0.58233   0.00000  Uiso   1.00
C677   C     0.01409   0.93129   0.74570   0.00000  Uiso   1.00
C678   C     0.05290   0.83518   0.91632   0.00000  Uiso   1.00
C679   C     0.01931   0.98503   0.73579   0.00000  Uiso   1.00
C680   C     0.03528   0.83479   0.85526   0.00000  Uiso   1.00
C681   C     0.31113   0.68038   0.74973   0.00000  Uiso   1.00
C682   C     0.31806   0.73502   0.74949   0.00000  Uiso   1.00
C683   C     0.29739   0.82817   0.64472   0.00000  Uiso   1.00
C684   C     0.26723   0.75840   0.50130   0.00000  Uiso   1.00
C685   C     0.27665   0.81602   0.58473   0.00000  Uiso   1.00
C686   C     0.02511   0.86627   0.95029   0.00000  Uiso   1.00
C687   C     0.04958   0.87676   0.50700   0.00000  Uiso   1.00
C688   C     0.13229   0.82810   0.99494   0.00000  Uiso   1.00
C689   C     0.10351   0.85918   0.52907   0.00000  Uiso   1.00
C690   C     0.10283   0.81101   0.94025   0.00000  Uiso   1.00
C691   C     0.18928   0.81331   0.51318   0.00000  Uiso   1.00
C692   C     0.21190   0.77508   0.98137   0.00000  Uiso   1.00
C693   C     0.17843   0.75326   0.93081   0.00000  Uiso   1.00
C694   C     0.12454   0.77111   0.91027   0.00000  Uiso   1.00
C695   C     0.22474   0.83626   0.56192   0.00000  Uiso   1.00
C696   C     0.29916   0.77736   0.55387   0.00000  Uiso   1.00
H697   H     0.27387   0.99738   0.76587   0.00000  Uiso   1.00
H698   H     0.09969   0.75299   0.87096   0.00000  Uiso   1.00
H699   H     0.08682   0.97785   0.69964   0.00000  Uiso   1.00
H700   H     0.15663   0.79170   0.70817   0.00000  Uiso   1.00
H701   H     0.17668   0.87496   0.79182   0.00000  Uiso   1.00
H702   H     0.19430   0.72302   0.90665   0.00000  Uiso   1.00
H703   H     0.28433   0.72878   0.97738   0.00000  Uiso   1.00
H704   H     0.21145   0.86864   0.58483   0.00000  Uiso   1.00
H705   H     0.31904   0.88399   0.93253   0.00000  Uiso   1.00
H706   H     0.12074   0.86904   0.57326   0.00000  Uiso   1.00
H707   H     0.02791   0.90036   0.53341   0.00000  Uiso   1.00
N708   N     0.14493   0.81890   0.73543   0.00000  Uiso   1.00
N709   N     0.18840   0.84777   0.76458   0.00000  Uiso   1.00
O710   O     0.29769   0.91296   0.75357   0.00000  Uiso   1.00
O711   O     0.05742   0.90371   0.74424   0.00000  Uiso   1.00
O712   O     0.31490   0.84024   0.83380   0.00000  Uiso   1.00
O713   O     0.07463   0.83099   0.82446   0.00000  Uiso   1.00
O714   O     0.27592   0.76296   0.75576   0.00000  Uiso   1.00
O715   O     0.03565   0.75371   0.74643   0.00000  Uiso   1.00
O716   O     0.25870   0.83567   0.67554   0.00000  Uiso   1.00
O717   O     0.01843   0.82642   0.66620   0.00000  Uiso   1.00
O718   O     0.06375   0.67254   0.71056   0.00000  Uiso   1.00
Zn719  Zn    0.27119   0.83951   0.75623   0.00000  Uiso   1.00
Zn720  Zn    0.06214   0.82716   0.74377   0.00000  Uiso   1.00
Br721  Br    0.36968   0.74555   0.58233   0.00000  Uiso   1.00
C722   C     0.34742   0.93129   0.74570   0.00000  Uiso   1.00
C723   C     0.38623   0.83518   0.91632   0.00000  Uiso   1.00
C724   C     0.35265   0.98503   0.73579   0.00000  Uiso   1.00
C725   C     0.36861   0.83479   0.85526   0.00000  Uiso   1.00
C726   C     0.64447   0.68038   0.74973   0.00000  Uiso   1.00
C727   C     0.65140   0.73502   0.74949   0.00000  Uiso   1.00
C728   C     0.63072   0.82817   0.64472   0.00000  Uiso   1.00
C729   C     0.60056   0.75840   0.50130   0.00000  Uiso   1.00
C730   C     0.60999   0.81602   0.58473   0.00000  Uiso   1.00
C731   C     0.35844   0.86627   0.95029   0.00000  Uiso   1.00
C732   C     0.38292   0.87676   0.50700   0.00000  Uiso   1.00
C733   C     0.46563   0.82810   0.99494   0.00000  Uiso   1.00
C734   C     0.43684   0.85918   0.52907   0.00000  Uiso   1.00
C735   C     0.43616   0.81101   0.94025   0.00000  Uiso   1.00
C736   C     0.52262   0.81331   0.51318   0.00000  Uiso   1.00
C737   C     0.54523   0.77508   0.98137   0.00000  Uiso   1.00
C738   C     0.51177   0.75326   0.93081   0.00000  Uiso   1.00
C739   C     0.45787   0.77111   0.91027   0.00000  Uiso   1.00
C740   C     0.55807   0.83626   0.56192   0.00000  Uiso   1.00
C741   C     0.63250   0.77736   0.55387   0.00000  Uiso   1.00
H742   H     0.60720   0.99738   0.76587   0.00000  Uiso   1.00
H743   H     0.43302   0.75299   0.87096   0.00000  Uiso   1.00
H744   H     0.42015   0.97785   0.69964   0.00000  Uiso   1.00
H745   H     0.48997   0.79170   0.70817   0.00000  Uiso   1.00
H746   H     0.51001   0.87496   0.79182   0.00000  Uiso   1.00
H747   H     0.52764   0.72302   0.90665   0.00000  Uiso   1.00
H748   H     0.61767   0.72878   0.97738   0.00000  Uiso   1.00
H749   H     0.54478   0.86864   0.58483   0.00000  Uiso   1.00
H750   H     0.65237   0.88399   0.93253   0.00000  Uiso   1.00
H751   H     0.45408   0.86904   0.57326   0.00000  Uiso   1.00
H752   H     0.36124   0.90036   0.53341   0.00000  Uiso   1.00
N753   N     0.47827   0.81890   0.73543   0.00000  Uiso   1.00
N754   N     0.52173   0.84777   0.76458   0.00000  Uiso   1.00
O755   O     0.63102   0.91296   0.75357   0.00000  Uiso   1.00
O756   O     0.39075   0.90371   0.74424   0.00000  Uiso   1.00
O757   O     0.64823   0.84024   0.83380   0.00000  Uiso   1.00
O758   O     0.40796   0.83099   0.82446   0.00000  Uiso   1.00
O759   O     0.60925   0.76296   0.75576   0.00000  Uiso   1.00
O760   O     0.36898   0.75371   0.74643   0.00000  Uiso   1.00
O761   O     0.59204   0.83567   0.67554   0.00000  Uiso   1.00
O762   O     0.35177   0.82642   0.66620   0.00000  Uiso   1.00
O763   O     0.39708   0.67254   0.71056   0.00000  Uiso   1.00
Zn764  Zn    0.60453   0.83951   0.75623   0.00000  Uiso   1.00
Zn765  Zn    0.39547   0.82716   0.74377   0.00000  Uiso   1.00
Br766  Br    0.70301   0.74555   0.58233   0.00000  Uiso   1.00
C767   C     0.68076   0.93129   0.74570   0.00000  Uiso   1.00
C768   C     0.71956   0.83518   0.91632   0.00000  Uiso   1.00
C769   C     0.68598   0.98503   0.73579   0.00000  Uiso   1.00
C770   C     0.70195   0.83479   0.85526   0.00000  Uiso   1.00
C771   C     0.97780   0.68038   0.74973   0.00000  Uiso   1.00
C772   C     0.98473   0.73502   0.74949   0.00000  Uiso   1.00
C773   C     0.96405   0.82817   0.64472   0.00000  Uiso   1.00
C774   C     0.93389   0.75840   0.50130   0.00000  Uiso   1.00
C775   C     0.94332   0.81602   0.58473   0.00000  Uiso   1.00
C776   C     0.69177   0.86627   0.95029   0.00000  Uiso   1.00
C777   C     0.71625   0.87676   0.50700   0.00000  Uiso   1.00
C778   C     0.79896   0.82810   0.99494   0.00000  Uiso   1.00
C779   C     0.77017   0.85918   0.52907   0.00000  Uiso   1.00
C780   C     0.76949   0.81101   0.94025   0.00000  Uiso   1.00
C781   C     0.85595   0.81331   0.51318   0.00000  Uiso   1.00
C782   C     0.87857   0.77508   0.98137   0.00000  Uiso   1.00
C783   C     0.84510   0.75326   0.93081   0.00000  Uiso   1.00
C784   C     0.79120   0.77111   0.91027   0.00000  Uiso   1.00
C785   C     0.89141   0.83626   0.56192   0.00000  Uiso   1.00
C786   C     0.96583   0.77736   0.55387   0.00000  Uiso   1.00
H787   H     0.94053   0.99738   0.76587   0.00000  Uiso   1.00
H788   H     0.76636   0.75299   0.87096   0.00000  Uiso   1.00
H789   H     0.75349   0.97785   0.69964   0.00000  Uiso   1.00
H790   H     0.82330   0.79170   0.70817   0.00000  Uiso   1.00
H791   H     0.84335   0.87496   0.79182   0.00000  Uiso   1.00
H792   H     0.86097   0.72302   0.90665   0.00000  Uiso   1.00
H793   H     0.95100   0.72878   0.97738   0.00000  Uiso   1.00
H794   H     0.87812   0.86864   0.58483   0.00000  Uiso   1.00
H795   H     0.98571   0.88399   0.93253   0.00000  Uiso   1.00
H796   H     0.78741   0.86904   0.57326   0.00000  Uiso   1.00
H797   H     0.69458   0.90036   0.53341   0.00000  Uiso   1.00
N798   N     0.81160   0.81890   0.73543   0.00000  Uiso   1.00
N799   N     0.85507   0.84777   0.76458   0.00000  Uiso   1.00
O800   O     0.96435   0.91296   0.75357   0.00000  Uiso   1.00
O801   O     0.72408   0.90371   0.74424   0.00000  Uiso   1.00
O802   O     0.98157   0.84024   0.83380   0.00000  Uiso   1.00
O803   O     0.74130   0.83099   0.82446   0.00000  Uiso   1.00
O804   O     0.94258   0.76296   0.75576   0.00000  Uiso   1.00
O805   O     0.70231   0.75371   0.74643   0.00000  Uiso   1.00
O806   O     0.92537   0.83567   0.67554   0.00000  Uiso   1.00
O807   O     0.68510   0.82642   0.66620   0.00000  Uiso   1.00
O808   O     0.73041   0.67254   0.71056   0.00000  Uiso   1.00
Zn809  Zn    0.93786   0.83951   0.75623   0.00000  Uiso   1.00
Zn810  Zn    0.72881   0.82716   0.74377   0.00000  Uiso   1.00
loop_
_geom_bond_atom_site_label_1
_geom_bond_atom_site_label_2
_geom_bond_distance
_geom_bond_site_symmetry_2
_ccdc_geom_bond_type
Br1    C111    1.922   1_455 S
C2     C4      1.416   .     S
C2     O36     1.288   .     A
C2     O125    1.277   1_455 S
C3     C15     1.404   .     A
C3     C11     1.402   .     A
C3     C5      1.453   .     S
C4     C231    1.349   1_455 S
C4     O178    1.390   .     S
C5     O38     1.298   .     A
C5     O127    1.288   1_455 S
C6     C7      1.407   .     S
C6     C319    1.349   1_545 S
C6     H292    1.088   1_545 S
C7     O39     1.293   .     A
C7     O85     1.271   .     S
C8     O41     1.299   .     A
C8     C10     1.450   .     S
C8     O87     1.287   .     S
C9     C21     1.394   .     A
C9     C422    1.401   1_554 S
C9     H433    1.084   1_554 S
C10    C21     1.412   .     A
C10    C20     1.385   .     A
C11    C417    1.387   .     S
C11    H120    1.083   1_455 S
C12    C14     1.391   .     A
C12    H32     1.083   .     S
C12    C416    1.387   1_554 S
C13    C15     1.405   .     A
C13    C419    1.420   .     S
C13    C421    1.411   .     S
C14    H31     1.079   .     S
C14    C418    1.420   1_554 S
C15    C19     1.413   .     A
C16    C20     1.387   .     A
C16    C418    1.411   1_554 S
C16    C422    1.419   1_554 S
C17    C18     1.392   .     A
C17    C414    1.401   .     S
C17    C421    1.419   .     S
C18    C19     1.386   .     A
C18    H27     1.084   .     S
C19    H23     1.082   .     S
C20    H29     1.080   .     S
C21    Br46    1.922   .     S
H22    C141    1.088   .     S
H24    O178    0.990   .     S
H25    N33     1.029   .     S
H26    N34     1.029   .     S
H28    C414    1.084   .     S
H30    C56     1.083   .     S
N33    Zn45    2.016   .     S
N33    N34     1.289   .     D
N34    Zn44    2.016   .     S
O35    Zn44    1.957   .     S
O35    C47     1.277   .     S
O36    Zn45    1.985   .     S
O37    Zn44    1.955   .     S
O37    C50     1.288   .     S
O38    Zn45    1.912   .     S
O39    Zn44    1.985   .     S
O40    Zn45    1.957   .     S
O40    C97     1.271   1_455 S
O41    Zn44    1.912   .     S
O42    Zn45    1.955   .     S
O42    C98     1.287   1_455 S
O43    H294    0.990   1_545 S
O43    C274    1.390   1_545 S
C47    C49     1.416   .     S
C47    O81     1.288   .     A
C48    C60     1.404   .     A
C48    C56     1.402   .     A
C48    C50     1.453   .     S
C49    C141    1.349   .     S
C49    O223    1.390   .     S
C50    O83     1.298   .     A
C51    C52     1.407   .     S
C51    C364    1.349   1_545 S
C51    H337    1.088   1_545 S
C52    O84     1.293   .     A
C52    O130    1.271   .     S
C53    O86     1.299   .     A
C53    C55     1.450   .     S
C53    O132    1.287   .     S
C54    C66     1.394   .     A
C54    C467    1.401   1_554 S
C54    H478    1.084   1_554 S
C55    C66     1.412   .     A
C55    C65     1.385   .     A
C56    C462    1.387   .     S
C57    C59     1.391   .     A
C57    H77     1.083   .     S
C57    C461    1.387   1_554 S
C58    C60     1.405   .     A
C58    C464    1.420   .     S
C58    C466    1.411   .     S
C59    H76     1.079   .     S
C59    C463    1.420   1_554 S
C60    C64     1.413   .     A
C61    C65     1.387   .     A
C61    C463    1.411   1_554 S
C61    C467    1.419   1_554 S
C62    C63     1.392   .     A
C62    C459    1.401   .     S
C62    C466    1.419   .     S
C63    C64     1.386   .     A
C63    H72     1.084   .     S
C64    H68     1.082   .     S
C65    H74     1.080   .     S
C66    Br91    1.922   .     S
H67    C186    1.088   .     S
H69    O223    0.990   .     S
H70    N78     1.029   .     S
H71    N79     1.029   .     S
H73    C459    1.084   .     S
H75    C101    1.083   .     S
N78    Zn90    2.016   .     S
N78    N79     1.289   .     D
N79    Zn89    2.016   .     S
O80    Zn89    1.957   .     S
O80    C92     1.277   .     S
O81    Zn90    1.985   .     S
O82    Zn89    1.955   .     S
O82    C95     1.288   .     S
O83    Zn90    1.912   .     S
O84    Zn89    1.985   .     S
O85    Zn90    1.957   .     S
O86    Zn89    1.912   .     S
O87    Zn90    1.955   .     S
O88    H339    0.990   1_545 S
O88    C319    1.390   1_545 S
C92    C94     1.416   .     S
C92    O126    1.288   .     A
C93    C105    1.404   .     A
C93    C101    1.402   .     A
C93    C95     1.453   .     S
C94    C186    1.349   .     S
C94    O268    1.390   .     S
C95    O128    1.298   .     A
C96    C97     1.407   .     S
C96    C274    1.349   1_645 S
C96    H382    1.088   1_545 S
C97    O129    1.293   .     A
C97    O40     1.271   1_655 S
C98    O131    1.299   .     A
C98    C100    1.450   .     S
C98    O42     1.287   1_655 S
C99    C111    1.394   .     A
C99    C512    1.401   1_554 S
C99    H523    1.084   1_554 S
C100   C111    1.412   .     A
C100   C110    1.385   .     A
C101   C507    1.387   .     S
C102   C104    1.391   .     A
C102   H122    1.083   .     S
C102   C506    1.387   1_554 S
C103   C105    1.405   .     A
C103   C509    1.420   .     S
C103   C511    1.411   .     S
C104   H121    1.079   .     S
C104   C508    1.420   1_554 S
C105   C109    1.413   .     A
C106   C110    1.387   .     A
C106   C508    1.411   1_554 S
C106   C512    1.419   1_554 S
C107   C108    1.392   .     A
C107   C504    1.401   .     S
C107   C511    1.419   .     S
C108   C109    1.386   .     A
C108   H117    1.084   .     S
C109   H113    1.082   .     S
C110   H119    1.080   .     S
C111   Br1     1.922   1_655 S
H112   C231    1.088   .     S
H114   O268    0.990   .     S
H115   N123    1.029   .     S
H116   N124    1.029   .     S
H118   C504    1.084   .     S
H120   C11     1.083   1_655 S
N123   Zn135   2.016   .     S
N123   N124    1.289   .     D
N124   Zn134   2.016   .     S
O125   Zn134   1.957   .     S
O125   C2      1.277   1_655 S
O126   Zn135   1.985   .     S
O127   Zn134   1.955   .     S
O127   C5      1.288   1_655 S
O128   Zn135   1.912   .     S
O129   Zn134   1.985   .     S
O130   Zn135   1.957   .     S
O131   Zn134   1.912   .     S
O132   Zn135   1.955   .     S
O133   H384    0.990   1_545 S
O133   C364    1.390   1_545 S
Br136  C246    1.922   1_455 S
C137   C139    1.416   .     S
C137   O171    1.288   .     A
C137   O260    1.277   1_455 S
C138   C150    1.404   .     A
C138   C146    1.402   .     A
C138   C140    1.453   .     S
C139   C366    1.349   1_455 S
C139   O313    1.390   .     S
C140   O173    1.298   .     A
C140   O262    1.288   1_455 S
C141   C142    1.407   .     S
C142   O174    1.293   .     A
C142   O220    1.271   .     S
C143   O176    1.299   .     A
C143   C145    1.450   .     S
C143   O222    1.287   .     S
C144   C156    1.394   .     A
C144   C557    1.401   1_554 S
C144   H568    1.084   1_554 S
C145   C156    1.412   .     A
C145   C155    1.385   .     A
C146   C552    1.387   .     S
C146   H255    1.083   1_455 S
C147   C149    1.391   .     A
C147   H167    1.083   .     S
C147   C551    1.387   1_554 S
C148   C150    1.405   .     A
C148   C554    1.420   .     S
C148   C556    1.411   .     S
C149   H166    1.079   .     S
C149   C553    1.420   1_554 S
C150   C154    1.413   .     A
C151   C155    1.387   .     A
C151   C553    1.411   1_554 S
C151   C557    1.419   1_554 S
C152   C153    1.392   .     A
C152   C549    1.401   .     S
C152   C556    1.419   .     S
C153   C154    1.386   .     A
C153   H162    1.084   .     S
C154   H158    1.082   .     S
C155   H164    1.080   .     S
C156   Br181   1.922   .     S
H157   C276    1.088   .     S
H159   O313    0.990   .     S
H160   N168    1.029   .     S
H161   N169    1.029   .     S
H163   C549    1.084   .     S
H165   C191    1.083   .     S
N168   Zn180   2.016   .     S
N168   N169    1.289   .     D
N169   Zn179   2.016   .     S
O170   Zn179   1.957   .     S
O170   C182    1.277   .     S
O171   Zn180   1.985   .     S
O172   Zn179   1.955   .     S
O172   C185    1.288   .     S
O173   Zn180   1.912   .     S
O174   Zn179   1.985   .     S
O175   Zn180   1.957   .     S
O175   C232    1.271   1_455 S
O176   Zn179   1.912   .     S
O177   Zn180   1.955   .     S
O177   C233    1.287   1_455 S
C182   C184    1.416   .     S
C182   O216    1.288   .     A
C183   C195    1.404   .     A
C183   C191    1.402   .     A
C183   C185    1.453   .     S
C184   C276    1.349   .     S
C184   O358    1.390   .     S
C185   O218    1.298   .     A
C186   C187    1.407   .     S
C187   O219    1.293   .     A
C187   O265    1.271   .     S
C188   O221    1.299   .     A
C188   C190    1.450   .     S
C188   O267    1.287   .     S
C189   C201    1.394   .     A
C189   C602    1.401   1_554 S
C189   H613    1.084   1_554 S
C190   C201    1.412   .     A
C190   C200    1.385   .     A
C191   C597    1.387   .     S
C192   C194    1.391   .     A
C192   H212    1.083   .     S
C192   C596    1.387   1_554 S
C193   C195    1.405   .     A
C193   C599    1.420   .     S
C193   C601    1.411   .     S
C194   H211    1.079   .     S
C194   C598    1.420   1_554 S
C195   C199    1.413   .     A
C196   C200    1.387   .     A
C196   C598    1.411   1_554 S
C196   C602    1.419   1_554 S
C197   C198    1.392   .     A
C197   C594    1.401   .     S
C197   C601    1.419   .     S
C198   C199    1.386   .     A
C198   H207    1.084   .     S
C199   H203    1.082   .     S
C200   H209    1.080   .     S
C201   Br226   1.922   .     S
H202   C321    1.088   .     S
H204   O358    0.990   .     S
H205   N213    1.029   .     S
H206   N214    1.029   .     S
H208   C594    1.084   .     S
H210   C236    1.083   .     S
N213   Zn225   2.016   .     S
N213   N214    1.289   .     D
N214   Zn224   2.016   .     S
O215   Zn224   1.957   .     S
O215   C227    1.277   .     S
O216   Zn225   1.985   .     S
O217   Zn224   1.955   .     S
O217   C230    1.288   .     S
O218   Zn225   1.912   .     S
O219   Zn224   1.985   .     S
O220   Zn225   1.957   .     S
O221   Zn224   1.912   .     S
O222   Zn225   1.955   .     S
C227   C229    1.416   .     S
C227   O261    1.288   .     A
C228   C240    1.404   .     A
C228   C236    1.402   .     A
C228   C230    1.453   .     S
C229   C321    1.349   .     S
C229   O403    1.390   .     S
C230   O263    1.298   .     A
C231   C232    1.407   .     S
C231   C4      1.349   1_655 S
C232   O264    1.293   .     A
C232   O175    1.271   1_655 S
C233   O266    1.299   .     A
C233   C235    1.450   .     S
C233   O177    1.287   1_655 S
C234   C246    1.394   .     A
C234   C647    1.401   1_554 S
C234   H658    1.084   1_554 S
C235   C246    1.412   .     A
C235   C245    1.385   .     A
C236   C642    1.387   .     S
C237   C239    1.391   .     A
C237   H257    1.083   .     S
C237   C641    1.387   1_554 S
C238   C240    1.405   .     A
C238   C644    1.420   .     S
C238   C646    1.411   .     S
C239   H256    1.079   .     S
C239   C643    1.420   1_554 S
C240   C244    1.413   .     A
C241   C245    1.387   .     A
C241   C643    1.411   1_554 S
C241   C647    1.419   1_554 S
C242   C243    1.392   .     A
C242   C639    1.401   .     S
C242   C646    1.419   .     S
C243   C244    1.386   .     A
C243   H252    1.084   .     S
C244   H248    1.082   .     S
C245   H254    1.080   .     S
C246   Br136   1.922   1_655 S
H247   C366    1.088   .     S
H249   O403    0.990   .     S
H250   N258    1.029   .     S
H251   N259    1.029   .     S
H253   C639    1.084   .     S
H255   C146    1.083   1_655 S
N258   Zn270   2.016   .     S
N258   N259    1.289   .     D
N259   Zn269   2.016   .     S
O260   Zn269   1.957   .     S
O260   C137    1.277   1_655 S
O261   Zn270   1.985   .     S
O262   Zn269   1.955   .     S
O262   C140    1.288   1_655 S
O263   Zn270   1.912   .     S
O264   Zn269   1.985   .     S
O265   Zn270   1.957   .     S
O266   Zn269   1.912   .     S
O267   Zn270   1.955   .     S
Br271  C381    1.922   1_455 S
C272   C274    1.416   .     S
C272   O306    1.288   .     A
C272   O395    1.277   1_455 S
C273   C285    1.404   .     A
C273   C281    1.402   .     A
C273   C275    1.453   .     S
C274   C96     1.349   1_465 S
C274   O43     1.390   1_565 S
C275   O308    1.298   .     A
C275   O397    1.288   1_455 S
C276   C277    1.407   .     S
C277   O309    1.293   .     A
C277   O355    1.271   .     S
C278   O311    1.299   .     A
C278   C280    1.450   .     S
C278   O357    1.287   .     S
C279   C291    1.394   .     A
C279   C692    1.401   1_554 S
C279   H703    1.084   1_554 S
C280   C291    1.412   .     A
C280   C290    1.385   .     A
C281   C687    1.387   .     S
C281   H390    1.083   1_455 S
C282   C284    1.391   .     A
C282   H302    1.083   .     S
C282   C686    1.387   1_554 S
C283   C285    1.405   .     A
C283   C689    1.420   .     S
C283   C691    1.411   .     S
C284   H301    1.079   .     S
C284   C688    1.420   1_554 S
C285   C289    1.413   .     A
C286   C290    1.387   .     A
C286   C688    1.411   1_554 S
C286   C692    1.419   1_554 S
C287   C288    1.392   .     A
C287   C684    1.401   .     S
C287   C691    1.419   .     S
C288   C289    1.386   .     A
C288   H297    1.084   .     S
C289   H293    1.082   .     S
C290   H299    1.080   .     S
C291   Br316   1.922   .     S
H292   C6      1.088   1_565 S
H294   O43     0.990   1_565 S
H295   N303    1.029   .     S
H296   N304    1.029   .     S
H298   C684    1.084   .     S
H300   C326    1.083   .     S
N303   Zn315   2.016   .     S
N303   N304    1.289   .     D
N304   Zn314   2.016   .     S
O305   Zn314   1.957   .     S
O305   C317    1.277   .     S
O306   Zn315   1.985   .     S
O307   Zn314   1.955   .     S
O307   C320    1.288   .     S
O308   Zn315   1.912   .     S
O309   Zn314   1.985   .     S
O310   Zn315   1.957   .     S
O310   C367    1.271   1_455 S
O311   Zn314   1.912   .     S
O312   Zn315   1.955   .     S
O312   C368    1.287   1_455 S
C317   C319    1.416   .     S
C317   O351    1.288   .     A
C318   C330    1.404   .     A
C318   C326    1.402   .     A
C318   C320    1.453   .     S
C319   C6      1.349   1_565 S
C319   O88     1.390   1_565 S
C320   O353    1.298   .     A
C321   C322    1.407   .     S
C322   O354    1.293   .     A
C322   O400    1.271   .     S
C323   O356    1.299   .     A
C323   C325    1.450   .     S
C323   O402    1.287   .     S
C324   C336    1.394   .     A
C324   C737    1.401   1_554 S
C324   H748    1.084   1_554 S
C325   C336    1.412   .     A
C325   C335    1.385   .     A
C326   C732    1.387   .     S
C327   C329    1.391   .     A
C327   H347    1.083   .     S
C327   C731    1.387   1_554 S
C328   C330    1.405   .     A
C328   C734    1.420   .     S
C328   C736    1.411   .     S
C329   H346    1.079   .     S
C329   C733    1.420   1_554 S
C330   C334    1.413   .     A
C331   C335    1.387   .     A
C331   C733    1.411   1_554 S
C331   C737    1.419   1_554 S
C332   C333    1.392   .     A
C332   C729    1.401   .     S
C332   C736    1.419   .     S
C333   C334    1.386   .     A
C333   H342    1.084   .     S
C334   H338    1.082   .     S
C335   H344    1.080   .     S
C336   Br361   1.922   .     S
H337   C51     1.088   1_565 S
H339   O88     0.990   1_565 S
H340   N348    1.029   .     S
H341   N349    1.029   .     S
H343   C729    1.084   .     S
H345   C371    1.083   .     S
N348   Zn360   2.016   .     S
N348   N349    1.289   .     D
N349   Zn359   2.016   .     S
O350   Zn359   1.957   .     S
O350   C362    1.277   .     S
O351   Zn360   1.985   .     S
O352   Zn359   1.955   .     S
O352   C365    1.288   .     S
O353   Zn360   1.912   .     S
O354   Zn359   1.985   .     S
O355   Zn360   1.957   .     S
O356   Zn359   1.912   .     S
O357   Zn360   1.955   .     S
C362   C364    1.416   .     S
C362   O396    1.288   .     A
C363   C375    1.404   .     A
C363   C371    1.402   .     A
C363   C365    1.453   .     S
C364   C51     1.349   1_565 S
C364   O133    1.390   1_565 S
C365   O398    1.298   .     A
C366   C367    1.407   .     S
C366   C139    1.349   1_655 S
C367   O399    1.293   .     A
C367   O310    1.271   1_655 S
C368   O401    1.299   .     A
C368   C370    1.450   .     S
C368   O312    1.287   1_655 S
C369   C381    1.394   .     A
C369   C782    1.401   1_554 S
C369   H793    1.084   1_554 S
C370   C381    1.412   .     A
C370   C380    1.385   .     A
C371   C777    1.387   .     S
C372   C374    1.391   .     A
C372   H392    1.083   .     S
C372   C776    1.387   1_554 S
C373   C375    1.405   .     A
C373   C779    1.420   .     S
C373   C781    1.411   .     S
C374   H391    1.079   .     S
C374   C778    1.420   1_554 S
C375   C379    1.413   .     A
C376   C380    1.387   .     A
C376   C778    1.411   1_554 S
C376   C782    1.419   1_554 S
C377   C378    1.392   .     A
C377   C774    1.401   .     S
C377   C781    1.419   .     S
C378   C379    1.386   .     A
C378   H387    1.084   .     S
C379   H383    1.082   .     S
C380   H389    1.080   .     S
C381   Br271   1.922   1_655 S
H382   C96     1.088   1_565 S
H384   O133    0.990   1_565 S
H385   N393    1.029   .     S
H386   N394    1.029   .     S
H388   C774    1.084   .     S
H390   C281    1.083   1_655 S
N393   Zn405   2.016   .     S
N393   N394    1.289   .     D
N394   Zn404   2.016   .     S
O395   Zn404   1.957   .     S
O395   C272    1.277   1_655 S
O396   Zn405   1.985   .     S
O397   Zn404   1.955   .     S
O397   C275    1.288   1_655 S
O398   Zn405   1.912   .     S
O399   Zn404   1.985   .     S
O400   Zn405   1.957   .     S
O401   Zn404   1.912   .     S
O402   Zn405   1.955   .     S
Br406  C516    1.922   1_455 S
C407   C409    1.416   .     S
C407   O441    1.288   .     A
C407   O530    1.277   1_455 S
C408   C420    1.404   .     A
C408   C416    1.402   .     A
C408   C410    1.453   .     S
C409   C636    1.349   1_455 S
C409   O583    1.390   .     S
C410   O443    1.298   .     A
C410   O532    1.288   1_455 S
C411   C412    1.407   .     S
C411   C724    1.349   1_545 S
C411   H697    1.088   1_545 S
C412   O444    1.293   .     A
C412   O490    1.271   .     S
C413   O446    1.299   .     A
C413   C415    1.450   .     S
C413   O492    1.287   .     S
C414   C426    1.394   .     A
C415   C426    1.412   .     A
C415   C425    1.385   .     A
C416   C12     1.387   1_556 S
C416   H525    1.083   1_455 S
C417   C419    1.391   .     A
C417   H437    1.083   .     S
C418   C420    1.405   .     A
C418   C14     1.420   1_556 S
C418   C16     1.411   1_556 S
C419   H436    1.079   .     S
C420   C424    1.413   .     A
C421   C425    1.387   .     A
C422   C423    1.392   .     A
C422   C9      1.401   1_556 S
C422   C16     1.419   1_556 S
C423   C424    1.386   .     A
C423   H432    1.084   .     S
C424   H428    1.082   .     S
C425   H434    1.080   .     S
C426   Br451   1.922   .     S
H427   C546    1.088   .     S
H429   O583    0.990   .     S
H430   N438    1.029   .     S
H431   N439    1.029   .     S
H433   C9      1.084   1_556 S
H435   C461    1.083   .     S
N438   Zn450   2.016   .     S
N438   N439    1.289   .     D
N439   Zn449   2.016   .     S
O440   Zn449   1.957   .     S
O440   C452    1.277   .     S
O441   Zn450   1.985   .     S
O442   Zn449   1.955   .     S
O442   C455    1.288   .     S
O443   Zn450   1.912   .     S
O444   Zn449   1.985   .     S
O445   Zn450   1.957   .     S
O445   C502    1.271   1_455 S
O446   Zn449   1.912   .     S
O447   Zn450   1.955   .     S
O447   C503    1.287   1_455 S
O448   H699    0.990   1_545 S
O448   C679    1.390   1_545 S
C452   C454    1.416   .     S
C452   O486    1.288   .     A
C453   C465    1.404   .     A
C453   C461    1.402   .     A
C453   C455    1.453   .     S
C454   C546    1.349   .     S
C454   O628    1.390   .     S
C455   O488    1.298   .     A
C456   C457    1.407   .     S
C456   C769    1.349   1_545 S
C456   H742    1.088   1_545 S
C457   O489    1.293   .     A
C457   O535    1.271   .     S
C458   O491    1.299   .     A
C458   C460    1.450   .     S
C458   O537    1.287   .     S
C459   C471    1.394   .     A
C460   C471    1.412   .     A
C460   C470    1.385   .     A
C461   C57     1.387   1_556 S
C462   C464    1.391   .     A
C462   H482    1.083   .     S
C463   C465    1.405   .     A
C463   C59     1.420   1_556 S
C463   C61     1.411   1_556 S
C464   H481    1.079   .     S
C465   C469    1.413   .     A
C466   C470    1.387   .     A
C467   C468    1.392   .     A
C467   C54     1.401   1_556 S
C467   C61     1.419   1_556 S
C468   C469    1.386   .     A
C468   H477    1.084   .     S
C469   H473    1.082   .     S
C470   H479    1.080   .     S
C471   Br496   1.922   .     S
H472   C591    1.088   .     S
H474   O628    0.990   .     S
H475   N483    1.029   .     S
H476   N484    1.029   .     S
H478   C54     1.084   1_556 S
H480   C506    1.083   .     S
N483   Zn495   2.016   .     S
N483   N484    1.289   .     D
N484   Zn494   2.016   .     S
O485   Zn494   1.957   .     S
O485   C497    1.277   .     S
O486   Zn495   1.985   .     S
O487   Zn494   1.955   .     S
O487   C500    1.288   .     S
O488   Zn495   1.912   .     S
O489   Zn494   1.985   .     S
O490   Zn495   1.957   .     S
O491   Zn494   1.912   .     S
O492   Zn495   1.955   .     S
O493   H744    0.990   1_545 S
O493   C724    1.390   1_545 S
C497   C499    1.416   .     S
C497   O531    1.288   .     A
C498   C510    1.404   .     A
C498   C506    1.402   .     A
C498   C500    1.453   .     S
C499   C591    1.349   .     S
C499   O673    1.390   .     S
C500   O533    1.298   .     A
C501   C502    1.407   .     S
C501   C679    1.349   1_645 S
C501   H787    1.088   1_545 S
C502   O534    1.293   .     A
C502   O445    1.271   1_655 S
C503   O536    1.299   .     A
C503   C505    1.450   .     S
C503   O447    1.287   1_655 S
C504   C516    1.394   .     A
C505   C516    1.412   .     A
C505   C515    1.385   .     A
C506   C102    1.387   1_556 S
C507   C509    1.391   .     A
C507   H527    1.083   .     S
C508   C510    1.405   .     A
C508   C104    1.420   1_556 S
C508   C106    1.411   1_556 S
C509   H526    1.079   .     S
C510   C514    1.413   .     A
C511   C515    1.387   .     A
C512   C513    1.392   .     A
C512   C99     1.401   1_556 S
C512   C106    1.419   1_556 S
C513   C514    1.386   .     A
C513   H522    1.084   .     S
C514   H518    1.082   .     S
C515   H524    1.080   .     S
C516   Br406   1.922   1_655 S
H517   C636    1.088   .     S
H519   O673    0.990   .     S
H520   N528    1.029   .     S
H521   N529    1.029   .     S
H523   C99     1.084   1_556 S
H525   C416    1.083   1_655 S
N528   Zn540   2.016   .     S
N528   N529    1.289   .     D
N529   Zn539   2.016   .     S
O530   Zn539   1.957   .     S
O530   C407    1.277   1_655 S
O531   Zn540   1.985   .     S
O532   Zn539   1.955   .     S
O532   C410    1.288   1_655 S
O533   Zn540   1.912   .     S
O534   Zn539   1.985   .     S
O535   Zn540   1.957   .     S
O536   Zn539   1.912   .     S
O537   Zn540   1.955   .     S
O538   H789    0.990   1_545 S
O538   C769    1.390   1_545 S
Br541  C651    1.922   1_455 S
C542   C544    1.416   .     S
C542   O576    1.288   .     A
C542   O665    1.277   1_455 S
C543   C555    1.404   .     A
C543   C551    1.402   .     A
C543   C545    1.453   .     S
C544   C771    1.349   1_455 S
C544   O718    1.390   .     S
C545   O578    1.298   .     A
C545   O667    1.288   1_455 S
C546   C547    1.407   .     S
C547   O579    1.293   .     A
C547   O625    1.271   .     S
C548   O581    1.299   .     A
C548   C550    1.450   .     S
C548   O627    1.287   .     S
C549   C561    1.394   .     A
C550   C561    1.412   .     A
C550   C560    1.385   .     A
C551   C147    1.387   1_556 S
C551   H660    1.083   1_455 S
C552   C554    1.391   .     A
C552   H572    1.083   .     S
C553   C555    1.405   .     A
C553   C149    1.420   1_556 S
C553   C151    1.411   1_556 S
C554   H571    1.079   .     S
C555   C559    1.413   .     A
C556   C560    1.387   .     A
C557   C558    1.392   .     A
C557   C144    1.401   1_556 S
C557   C151    1.419   1_556 S
C558   C559    1.386   .     A
C558   H567    1.084   .     S
C559   H563    1.082   .     S
C560   H569    1.080   .     S
C561   Br586   1.922   .     S
H562   C681    1.088   .     S
H564   O718    0.990   .     S
H565   N573    1.029   .     S
H566   N574    1.029   .     S
H568   C144    1.084   1_556 S
H570   C596    1.083   .     S
N573   Zn585   2.016   .     S
N573   N574    1.289   .     D
N574   Zn584   2.016   .     S
O575   Zn584   1.957   .     S
O575   C587    1.277   .     S
O576   Zn585   1.985   .     S
O577   Zn584   1.955   .     S
O577   C590    1.288   .     S
O578   Zn585   1.912   .     S
O579   Zn584   1.985   .     S
O580   Zn585   1.957   .     S
O580   C637    1.271   1_455 S
O581   Zn584   1.912   .     S
O582   Zn585   1.955   .     S
O582   C638    1.287   1_455 S
C587   C589    1.416   .     S
C587   O621    1.288   .     A
C588   C600    1.404   .     A
C588   C596    1.402   .     A
C588   C590    1.453   .     S
C589   C681    1.349   .     S
C589   O763    1.390   .     S
C590   O623    1.298   .     A
C591   C592    1.407   .     S
C592   O624    1.293   .     A
C592   O670    1.271   .     S
C593   O626    1.299   .     A
C593   C595    1.450   .     S
C593   O672    1.287   .     S
C594   C606    1.394   .     A
C595   C606    1.412   .     A
C595   C605    1.385   .     A
C596   C192    1.387   1_556 S
C597   C599    1.391   .     A
C597   H617    1.083   .     S
C598   C600    1.405   .     A
C598   C194    1.420   1_556 S
C598   C196    1.411   1_556 S
C599   H616    1.079   .     S
C600   C604    1.413   .     A
C601   C605    1.387   .     A
C602   C603    1.392   .     A
C602   C189    1.401   1_556 S
C602   C196    1.419   1_556 S
C603   C604    1.386   .     A
C603   H612    1.084   .     S
C604   H608    1.082   .     S
C605   H614    1.080   .     S
C606   Br631   1.922   .     S
H607   C726    1.088   .     S
H609   O763    0.990   .     S
H610   N618    1.029   .     S
H611   N619    1.029   .     S
H613   C189    1.084   1_556 S
H615   C641    1.083   .     S
N618   Zn630   2.016   .     S
N618   N619    1.289   .     D
N619   Zn629   2.016   .     S
O620   Zn629   1.957   .     S
O620   C632    1.277   .     S
O621   Zn630   1.985   .     S
O622   Zn629   1.955   .     S
O622   C635    1.288   .     S
O623   Zn630   1.912   .     S
O624   Zn629   1.985   .     S
O625   Zn630   1.957   .     S
O626   Zn629   1.912   .     S
O627   Zn630   1.955   .     S
C632   C634    1.416   .     S
C632   O666    1.288   .     A
C633   C645    1.404   .     A
C633   C641    1.402   .     A
C633   C635    1.453   .     S
C634   C726    1.349   .     S
C634   O808    1.390   .     S
C635   O668    1.298   .     A
C636   C637    1.407   .     S
C636   C409    1.349   1_655 S
C637   O669    1.293   .     A
C637   O580    1.271   1_655 S
C638   O671    1.299   .     A
C638   C640    1.450   .     S
C638   O582    1.287   1_655 S
C639   C651    1.394   .     A
C640   C651    1.412   .     A
C640   C650    1.385   .     A
C641   C237    1.387   1_556 S
C642   C644    1.391   .     A
C642   H662    1.083   .     S
C643   C645    1.405   .     A
C643   C239    1.420   1_556 S
C643   C241    1.411   1_556 S
C644   H661    1.079   .     S
C645   C649    1.413   .     A
C646   C650    1.387   .     A
C647   C648    1.392   .     A
C647   C234    1.401   1_556 S
C647   C241    1.419   1_556 S
C648   C649    1.386   .     A
C648   H657    1.084   .     S
C649   H653    1.082   .     S
C650   H659    1.080   .     S
C651   Br541   1.922   1_655 S
H652   C771    1.088   .     S
H654   O808    0.990   .     S
H655   N663    1.029   .     S
H656   N664    1.029   .     S
H658   C234    1.084   1_556 S
H660   C551    1.083   1_655 S
N663   Zn675   2.016   .     S
N663   N664    1.289   .     D
N664   Zn674   2.016   .     S
O665   Zn674   1.957   .     S
O665   C542    1.277   1_655 S
O666   Zn675   1.985   .     S
O667   Zn674   1.955   .     S
O667   C545    1.288   1_655 S
O668   Zn675   1.912   .     S
O669   Zn674   1.985   .     S
O670   Zn675   1.957   .     S
O671   Zn674   1.912   .     S
O672   Zn675   1.955   .     S
Br676  C786    1.922   1_455 S
C677   C679    1.416   .     S
C677   O711    1.288   .     A
C677   O800    1.277   1_455 S
C678   C690    1.404   .     A
C678   C686    1.402   .     A
C678   C680    1.453   .     S
C679   C501    1.349   1_465 S
C679   O448    1.390   1_565 S
C680   O713    1.298   .     A
C680   O802    1.288   1_455 S
C681   C682    1.407   .     S
C682   O714    1.293   .     A
C682   O760    1.271   .     S
C683   O716    1.299   .     A
C683   C685    1.450   .     S
C683   O762    1.287   .     S
C684   C696    1.394   .     A
C685   C696    1.412   .     A
C685   C695    1.385   .     A
C686   C282    1.387   1_556 S
C686   H795    1.083   1_455 S
C687   C689    1.391   .     A
C687   H707    1.083   .     S
C688   C690    1.405   .     A
C688   C284    1.420   1_556 S
C688   C286    1.411   1_556 S
C689   H706    1.079   .     S
C690   C694    1.413   .     A
C691   C695    1.387   .     A
C692   C693    1.392   .     A
C692   C279    1.401   1_556 S
C692   C286    1.419   1_556 S
C693   C694    1.386   .     A
C693   H702    1.084   .     S
C694   H698    1.082   .     S
C695   H704    1.080   .     S
C696   Br721   1.922   .     S
H697   C411    1.088   1_565 S
H699   O448    0.990   1_565 S
H700   N708    1.029   .     S
H701   N709    1.029   .     S
H703   C279    1.084   1_556 S
H705   C731    1.083   .     S
N708   Zn720   2.016   .     S
N708   N709    1.289   .     D
N709   Zn719   2.016   .     S
O710   Zn719   1.957   .     S
O710   C722    1.277   .     S
O711   Zn720   1.985   .     S
O712   Zn719   1.955   .     S
O712   C725    1.288   .     S
O713   Zn720   1.912   .     S
O714   Zn719   1.985   .     S
O715   Zn720   1.957   .     S
O715   C772    1.271   1_455 S
O716   Zn719   1.912   .     S
O717   Zn720   1.955   .     S
O717   C773    1.287   1_455 S
C722   C724    1.416   .     S
C722   O756    1.288   .     A
C723   C735    1.404   .     A
C723   C731    1.402   .     A
C723   C725    1.453   .     S
C724   C411    1.349   1_565 S
C724   O493    1.390   1_565 S
C725   O758    1.298   .     A
C726   C727    1.407   .     S
C727   O759    1.293   .     A
C727   O805    1.271   .     S
C728   O761    1.299   .     A
C728   C730    1.450   .     S
C728   O807    1.287   .     S
C729   C741    1.394   .     A
C730   C741    1.412   .     A
C730   C740    1.385   .     A
C731   C327    1.387   1_556 S
C732   C734    1.391   .     A
C732   H752    1.083   .     S
C733   C735    1.405   .     A
C733   C329    1.420   1_556 S
C733   C331    1.411   1_556 S
C734   H751    1.079   .     S
C735   C739    1.413   .     A
C736   C740    1.387   .     A
C737   C738    1.392   .     A
C737   C324    1.401   1_556 S
C737   C331    1.419   1_556 S
C738   C739    1.386   .     A
C738   H747    1.084   .     S
C739   H743    1.082   .     S
C740   H749    1.080   .     S
C741   Br766   1.922   .     S
H742   C456    1.088   1_565 S
H744   O493    0.990   1_565 S
H745   N753    1.029   .     S
H746   N754    1.029   .     S
H748   C324    1.084   1_556 S
H750   C776    1.083   .     S
N753   Zn765   2.016   .     S
N753   N754    1.289   .     D
N754   Zn764   2.016   .     S
O755   Zn764   1.957   .     S
O755   C767    1.277   .     S
O756   Zn765   1.985   .     S
O757   Zn764   1.955   .     S
O757   C770    1.288   .     S
O758   Zn765   1.912   .     S
O759   Zn764   1.985   .     S
O760   Zn765   1.957   .     S
O761   Zn764   1.912   .     S
O762   Zn765   1.955   .     S
C767   C769    1.416   .     S
C767   O801    1.288   .     A
C768   C780    1.404   .     A
C768   C776    1.402   .     A
C768   C770    1.453   .     S
C769   C456    1.349   1_565 S
C769   O538    1.390   1_565 S
C770   O803    1.298   .     A
C771   C772    1.407   .     S
C771   C544    1.349   1_655 S
C772   O804    1.293   .     A
C772   O715    1.271   1_655 S
C773   O806    1.299   .     A
C773   C775    1.450   .     S
C773   O717    1.287   1_655 S
C774   C786    1.394   .     A
C775   C786    1.412   .     A
C775   C785    1.385   .     A
C776   C372    1.387   1_556 S
C777   C779    1.391   .     A
C777   H797    1.083   .     S
C778   C780    1.405   .     A
C778   C374    1.420   1_556 S
C778   C376    1.411   1_556 S
C779   H796    1.079   .     S
C780   C784    1.413   .     A
C781   C785    1.387   .     A
C782   C783    1.392   .     A
C782   C369    1.401   1_556 S
C782   C376    1.419   1_556 S
C783   C784    1.386   .     A
C783   H792    1.084   .     S
C784   H788    1.082   .     S
C785   H794    1.080   .     S
C786   Br676   1.922   1_655 S
H787   C501    1.088   1_565 S
H789   O538    0.990   1_565 S
H790   N798    1.029   .     S
H791   N799    1.029   .     S
H793   C369    1.084   1_556 S
H795   C686    1.083   1_655 S
N798   Zn810   2.016   .     S
N798   N799    1.289   .     D
N799   Zn809   2.016   .     S
O800   Zn809   1.957   .     S
O800   C677    1.277   1_655 S
O801   Zn810   1.985   .     S
O802   Zn809   1.955   .     S
O802   C680    1.288   1_655 S
O803   Zn810   1.912   .     S
O804   Zn809   1.985   .     S
O805   Zn810   1.957   .     S
O806   Zn809   1.912   .     S
O807   Zn810   1.955   .     S
