data_str_m3_o1_o2_pcu_sym.133
_audit_creation_date              2020-01-03
_audit_creation_method            'Materials Studio'
_symmetry_space_group_name_H-M    'P1'
_symmetry_Int_Tables_number       1
_symmetry_cell_setting            triclinic
loop_
_symmetry_equiv_pos_as_xyz
  x,y,z
_cell_length_a                    32.1589
_cell_length_b                    29.4980
_cell_length_c                    30.0185
_cell_angle_alpha                 89.9961
_cell_angle_beta                  90.1184
_cell_angle_gamma                 89.9896
loop_
_atom_site_label
_atom_site_type_symbol
_atom_site_fract_x
_atom_site_fract_y
_atom_site_fract_z
_atom_site_U_iso_or_equiv
_atom_site_adp_type
_atom_site_occupancy
C1     C     0.08661   0.16667   0.24997   0.00000  Uiso   1.00
C2     C     0.24672   0.16666   0.25003   0.00000  Uiso   1.00
C3     C     0.16663   0.16667   0.16390   0.00000  Uiso   1.00
C4     C     0.16669   0.16666   0.33610   0.00000  Uiso   1.00
C5     C     0.19296   0.02399   0.27725   0.00000  Uiso   1.00
C6     C     0.14037   0.30935   0.22275   0.00000  Uiso   1.00
C7     C     0.14038   0.02400   0.22275   0.00000  Uiso   1.00
C8     C     0.19296   0.30933   0.27725   0.00000  Uiso   1.00
C9     C     0.02129   0.12612   0.24199   0.00000  Uiso   1.00
C10    C     0.31204   0.20721   0.25801   0.00000  Uiso   1.00
C11    C     0.31203   0.12611   0.24204   0.00000  Uiso   1.00
C12    C     0.02131   0.20722   0.25796   0.00000  Uiso   1.00
C13    C     0.18104   0.20474   0.04706   0.00000  Uiso   1.00
C14    C     0.18110   0.12854   0.45300   0.00000  Uiso   1.00
C15    C     0.15200   0.20472   0.45290   0.00000  Uiso   1.00
C16    C     0.15196   0.12857   0.04704   0.00000  Uiso   1.00
C17    C     0.18084   0.20486   0.09305   0.00000  Uiso   1.00
C18    C     0.18094   0.12845   0.40701   0.00000  Uiso   1.00
C19    C     0.15231   0.20485   0.40692   0.00000  Uiso   1.00
C20    C     0.15222   0.12847   0.09303   0.00000  Uiso   1.00
C21    C     0.16656   0.16667   0.11601   0.00000  Uiso   1.00
C22    C     0.16666   0.16666   0.38399   0.00000  Uiso   1.00
C23    C     0.16650   0.16664   0.02405   0.00000  Uiso   1.00
C24    C     0.16652   0.16663   0.47595   0.00000  Uiso   1.00
C25    C     0.29086   0.16666   0.25004   0.00000  Uiso   1.00
C26    C     0.04247   0.16667   0.24996   0.00000  Uiso   1.00
H27    H     0.21396   0.04219   0.29904   0.00000  Uiso   1.00
H28    H     0.11937   0.29115   0.20098   0.00000  Uiso   1.00
H29    H     0.11937   0.04222   0.20097   0.00000  Uiso   1.00
H30    H     0.21397   0.29112   0.29902   0.00000  Uiso   1.00
H31    H     0.19289   0.23408   0.02948   0.00000  Uiso   1.00
H32    H     0.19293   0.09919   0.47063   0.00000  Uiso   1.00
H33    H     0.14013   0.23407   0.47045   0.00000  Uiso   1.00
H34    H     0.14010   0.09921   0.02943   0.00000  Uiso   1.00
N35    N     0.16667   0.28573   0.25000   0.00000  Uiso   1.00
N36    N     0.16667   0.04760   0.25000   0.00000  Uiso   1.00
O37    O     0.10559   0.20487   0.24999   0.00000  Uiso   1.00
O38    O     0.22774   0.12846   0.25000   0.00000  Uiso   1.00
O39    O     0.22774   0.20487   0.25000   0.00000  Uiso   1.00
O40    O     0.10559   0.12846   0.24999   0.00000  Uiso   1.00
O41    O     0.16666   0.20489   0.18453   0.00000  Uiso   1.00
O42    O     0.16667   0.12845   0.31547   0.00000  Uiso   1.00
O43    O     0.16667   0.20489   0.31547   0.00000  Uiso   1.00
O44    O     0.16666   0.12845   0.18453   0.00000  Uiso   1.00
Zn45   Zn    0.16667   0.21771   0.25000   0.00000  Uiso   1.00
Zn46   Zn    0.16667   0.11563   0.25000   0.00000  Uiso   1.00
H47    H     0.19234   0.23443   0.11058   0.00000  Uiso   1.00
H48    H     0.19246   0.09889   0.38952   0.00000  Uiso   1.00
H49    H     0.14084   0.23443   0.38936   0.00000  Uiso   1.00
H50    H     0.14074   0.09891   0.11055   0.00000  Uiso   1.00
H51    H     0.03750   0.09460   0.23548   0.00000  Uiso   1.00
H52    H     0.29584   0.23873   0.26452   0.00000  Uiso   1.00
H53    H     0.29580   0.09458   0.23558   0.00000  Uiso   1.00
H54    H     0.03753   0.23875   0.26442   0.00000  Uiso   1.00
C55    C     0.41995   0.16667   0.24997   0.00000  Uiso   1.00
C56    C     0.58005   0.16666   0.25003   0.00000  Uiso   1.00
C57    C     0.49996   0.16667   0.16390   0.00000  Uiso   1.00
C58    C     0.50002   0.16666   0.33610   0.00000  Uiso   1.00
C59    C     0.52629   0.02399   0.27725   0.00000  Uiso   1.00
C60    C     0.47371   0.30935   0.22275   0.00000  Uiso   1.00
C61    C     0.47371   0.02400   0.22275   0.00000  Uiso   1.00
C62    C     0.52629   0.30933   0.27725   0.00000  Uiso   1.00
C63    C     0.35462   0.12612   0.24199   0.00000  Uiso   1.00
C64    C     0.64538   0.20721   0.25801   0.00000  Uiso   1.00
C65    C     0.64536   0.12611   0.24204   0.00000  Uiso   1.00
C66    C     0.35464   0.20722   0.25796   0.00000  Uiso   1.00
C67    C     0.51438   0.20474   0.04706   0.00000  Uiso   1.00
C68    C     0.51443   0.12854   0.45300   0.00000  Uiso   1.00
C69    C     0.48534   0.20472   0.45290   0.00000  Uiso   1.00
C70    C     0.48529   0.12857   0.04704   0.00000  Uiso   1.00
C71    C     0.51417   0.20486   0.09305   0.00000  Uiso   1.00
C72    C     0.51427   0.12845   0.40701   0.00000  Uiso   1.00
C73    C     0.48564   0.20485   0.40692   0.00000  Uiso   1.00
C74    C     0.48555   0.12847   0.09303   0.00000  Uiso   1.00
C75    C     0.49989   0.16667   0.11601   0.00000  Uiso   1.00
C76    C     0.49999   0.16666   0.38399   0.00000  Uiso   1.00
C77    C     0.49983   0.16664   0.02405   0.00000  Uiso   1.00
C78    C     0.49985   0.16663   0.47595   0.00000  Uiso   1.00
C79    C     0.62420   0.16666   0.25004   0.00000  Uiso   1.00
C80    C     0.37580   0.16667   0.24996   0.00000  Uiso   1.00
H81    H     0.54729   0.04219   0.29904   0.00000  Uiso   1.00
H82    H     0.45270   0.29115   0.20098   0.00000  Uiso   1.00
H83    H     0.45270   0.04222   0.20097   0.00000  Uiso   1.00
H84    H     0.54731   0.29112   0.29902   0.00000  Uiso   1.00
H85    H     0.52622   0.23408   0.02948   0.00000  Uiso   1.00
H86    H     0.52626   0.09919   0.47063   0.00000  Uiso   1.00
H87    H     0.47346   0.23407   0.47045   0.00000  Uiso   1.00
H88    H     0.47344   0.09921   0.02943   0.00000  Uiso   1.00
N89    N     0.50000   0.28573   0.25000   0.00000  Uiso   1.00
N90    N     0.50000   0.04760   0.25000   0.00000  Uiso   1.00
O91    O     0.43892   0.20487   0.24999   0.00000  Uiso   1.00
O92    O     0.56108   0.12846   0.25000   0.00000  Uiso   1.00
O93    O     0.56108   0.20487   0.25000   0.00000  Uiso   1.00
O94    O     0.43892   0.12846   0.24999   0.00000  Uiso   1.00
O95    O     0.50000   0.20489   0.18453   0.00000  Uiso   1.00
O96    O     0.50000   0.12845   0.31547   0.00000  Uiso   1.00
O97    O     0.50000   0.20489   0.31547   0.00000  Uiso   1.00
O98    O     0.50000   0.12845   0.18453   0.00000  Uiso   1.00
Zn99   Zn    0.50000   0.21771   0.25000   0.00000  Uiso   1.00
Zn100  Zn    0.50000   0.11563   0.25000   0.00000  Uiso   1.00
H101   H     0.52567   0.23443   0.11058   0.00000  Uiso   1.00
H102   H     0.52579   0.09889   0.38952   0.00000  Uiso   1.00
H103   H     0.47418   0.23443   0.38936   0.00000  Uiso   1.00
H104   H     0.47407   0.09891   0.11055   0.00000  Uiso   1.00
H105   H     0.37083   0.09460   0.23548   0.00000  Uiso   1.00
H106   H     0.62917   0.23873   0.26452   0.00000  Uiso   1.00
H107   H     0.62914   0.09458   0.23558   0.00000  Uiso   1.00
H108   H     0.37086   0.23875   0.26442   0.00000  Uiso   1.00
C109   C     0.75328   0.16667   0.24997   0.00000  Uiso   1.00
C110   C     0.91339   0.16666   0.25003   0.00000  Uiso   1.00
C111   C     0.83330   0.16667   0.16390   0.00000  Uiso   1.00
C112   C     0.83336   0.16666   0.33610   0.00000  Uiso   1.00
C113   C     0.85962   0.02399   0.27725   0.00000  Uiso   1.00
C114   C     0.80704   0.30935   0.22275   0.00000  Uiso   1.00
C115   C     0.80704   0.02400   0.22275   0.00000  Uiso   1.00
C116   C     0.85963   0.30933   0.27725   0.00000  Uiso   1.00
C117   C     0.68796   0.12612   0.24199   0.00000  Uiso   1.00
C118   C     0.97871   0.20721   0.25801   0.00000  Uiso   1.00
C119   C     0.97869   0.12611   0.24204   0.00000  Uiso   1.00
C120   C     0.68797   0.20722   0.25796   0.00000  Uiso   1.00
C121   C     0.84771   0.20474   0.04706   0.00000  Uiso   1.00
C122   C     0.84776   0.12854   0.45300   0.00000  Uiso   1.00
C123   C     0.81867   0.20472   0.45290   0.00000  Uiso   1.00
C124   C     0.81863   0.12857   0.04704   0.00000  Uiso   1.00
C125   C     0.84751   0.20486   0.09305   0.00000  Uiso   1.00
C126   C     0.84761   0.12845   0.40701   0.00000  Uiso   1.00
C127   C     0.81898   0.20485   0.40692   0.00000  Uiso   1.00
C128   C     0.81889   0.12847   0.09303   0.00000  Uiso   1.00
C129   C     0.83323   0.16667   0.11601   0.00000  Uiso   1.00
C130   C     0.83333   0.16666   0.38399   0.00000  Uiso   1.00
C131   C     0.83316   0.16664   0.02405   0.00000  Uiso   1.00
C132   C     0.83318   0.16663   0.47595   0.00000  Uiso   1.00
C133   C     0.95753   0.16666   0.25004   0.00000  Uiso   1.00
C134   C     0.70914   0.16667   0.24996   0.00000  Uiso   1.00
H135   H     0.88062   0.04219   0.29904   0.00000  Uiso   1.00
H136   H     0.78603   0.29115   0.20098   0.00000  Uiso   1.00
H137   H     0.78604   0.04222   0.20097   0.00000  Uiso   1.00
H138   H     0.88064   0.29112   0.29902   0.00000  Uiso   1.00
H139   H     0.85956   0.23408   0.02948   0.00000  Uiso   1.00
H140   H     0.85960   0.09919   0.47063   0.00000  Uiso   1.00
H141   H     0.80679   0.23407   0.47045   0.00000  Uiso   1.00
H142   H     0.80677   0.09921   0.02943   0.00000  Uiso   1.00
N143   N     0.83333   0.28573   0.25000   0.00000  Uiso   1.00
N144   N     0.83333   0.04760   0.25000   0.00000  Uiso   1.00
O145   O     0.77226   0.20487   0.24999   0.00000  Uiso   1.00
O146   O     0.89441   0.12846   0.25000   0.00000  Uiso   1.00
O147   O     0.89441   0.20487   0.25000   0.00000  Uiso   1.00
O148   O     0.77226   0.12846   0.24999   0.00000  Uiso   1.00
O149   O     0.83333   0.20489   0.18453   0.00000  Uiso   1.00
O150   O     0.83334   0.12845   0.31547   0.00000  Uiso   1.00
O151   O     0.83334   0.20489   0.31547   0.00000  Uiso   1.00
O152   O     0.83333   0.12845   0.18453   0.00000  Uiso   1.00
Zn153  Zn    0.83333   0.21771   0.25000   0.00000  Uiso   1.00
Zn154  Zn    0.83333   0.11563   0.25000   0.00000  Uiso   1.00
H155   H     0.85901   0.23443   0.11058   0.00000  Uiso   1.00
H156   H     0.85913   0.09889   0.38952   0.00000  Uiso   1.00
H157   H     0.80751   0.23443   0.38936   0.00000  Uiso   1.00
H158   H     0.80741   0.09891   0.11055   0.00000  Uiso   1.00
H159   H     0.70416   0.09460   0.23548   0.00000  Uiso   1.00
H160   H     0.96250   0.23873   0.26452   0.00000  Uiso   1.00
H161   H     0.96247   0.09458   0.23558   0.00000  Uiso   1.00
H162   H     0.70420   0.23875   0.26442   0.00000  Uiso   1.00
C163   C     0.08661   0.50000   0.24997   0.00000  Uiso   1.00
C164   C     0.24672   0.50000   0.25003   0.00000  Uiso   1.00
C165   C     0.16663   0.50000   0.16390   0.00000  Uiso   1.00
C166   C     0.16669   0.50000   0.33610   0.00000  Uiso   1.00
C167   C     0.19296   0.35732   0.27725   0.00000  Uiso   1.00
C168   C     0.14037   0.64268   0.22275   0.00000  Uiso   1.00
C169   C     0.14038   0.35734   0.22275   0.00000  Uiso   1.00
C170   C     0.19296   0.64267   0.27725   0.00000  Uiso   1.00
C171   C     0.02129   0.45945   0.24199   0.00000  Uiso   1.00
C172   C     0.31204   0.54055   0.25801   0.00000  Uiso   1.00
C173   C     0.31203   0.45944   0.24204   0.00000  Uiso   1.00
C174   C     0.02131   0.54056   0.25796   0.00000  Uiso   1.00
C175   C     0.18104   0.53807   0.04706   0.00000  Uiso   1.00
C176   C     0.18110   0.46188   0.45300   0.00000  Uiso   1.00
C177   C     0.15200   0.53805   0.45290   0.00000  Uiso   1.00
C178   C     0.15196   0.46190   0.04704   0.00000  Uiso   1.00
C179   C     0.18084   0.53819   0.09305   0.00000  Uiso   1.00
C180   C     0.18094   0.46178   0.40701   0.00000  Uiso   1.00
C181   C     0.15231   0.53818   0.40692   0.00000  Uiso   1.00
C182   C     0.15222   0.46180   0.09303   0.00000  Uiso   1.00
C183   C     0.16656   0.50000   0.11601   0.00000  Uiso   1.00
C184   C     0.16666   0.49999   0.38399   0.00000  Uiso   1.00
C185   C     0.16650   0.49998   0.02405   0.00000  Uiso   1.00
C186   C     0.16652   0.49996   0.47595   0.00000  Uiso   1.00
C187   C     0.29086   0.49999   0.25004   0.00000  Uiso   1.00
C188   C     0.04247   0.50001   0.24996   0.00000  Uiso   1.00
H189   H     0.21396   0.37552   0.29904   0.00000  Uiso   1.00
H190   H     0.11937   0.62448   0.20098   0.00000  Uiso   1.00
H191   H     0.11937   0.37555   0.20097   0.00000  Uiso   1.00
H192   H     0.21397   0.62445   0.29902   0.00000  Uiso   1.00
H193   H     0.19289   0.56742   0.02948   0.00000  Uiso   1.00
H194   H     0.19293   0.43252   0.47063   0.00000  Uiso   1.00
H195   H     0.14013   0.56740   0.47045   0.00000  Uiso   1.00
H196   H     0.14010   0.43255   0.02943   0.00000  Uiso   1.00
N197   N     0.16667   0.61907   0.25000   0.00000  Uiso   1.00
N198   N     0.16667   0.38093   0.25000   0.00000  Uiso   1.00
O199   O     0.10559   0.53821   0.24999   0.00000  Uiso   1.00
O200   O     0.22774   0.46179   0.25000   0.00000  Uiso   1.00
O201   O     0.22774   0.53821   0.25000   0.00000  Uiso   1.00
O202   O     0.10559   0.46179   0.24999   0.00000  Uiso   1.00
O203   O     0.16666   0.53822   0.18453   0.00000  Uiso   1.00
O204   O     0.16667   0.46178   0.31547   0.00000  Uiso   1.00
O205   O     0.16667   0.53822   0.31547   0.00000  Uiso   1.00
O206   O     0.16666   0.46178   0.18453   0.00000  Uiso   1.00
Zn207  Zn    0.16667   0.55104   0.25000   0.00000  Uiso   1.00
Zn208  Zn    0.16667   0.44896   0.25000   0.00000  Uiso   1.00
H209   H     0.19234   0.56777   0.11058   0.00000  Uiso   1.00
H210   H     0.19246   0.43222   0.38952   0.00000  Uiso   1.00
H211   H     0.14084   0.56776   0.38936   0.00000  Uiso   1.00
H212   H     0.14074   0.43224   0.11055   0.00000  Uiso   1.00
H213   H     0.03750   0.42793   0.23548   0.00000  Uiso   1.00
H214   H     0.29584   0.57207   0.26452   0.00000  Uiso   1.00
H215   H     0.29580   0.42792   0.23558   0.00000  Uiso   1.00
H216   H     0.03753   0.57208   0.26442   0.00000  Uiso   1.00
C217   C     0.41995   0.50000   0.24997   0.00000  Uiso   1.00
C218   C     0.58005   0.50000   0.25003   0.00000  Uiso   1.00
C219   C     0.49996   0.50000   0.16390   0.00000  Uiso   1.00
C220   C     0.50002   0.50000   0.33610   0.00000  Uiso   1.00
C221   C     0.52629   0.35732   0.27725   0.00000  Uiso   1.00
C222   C     0.47371   0.64268   0.22275   0.00000  Uiso   1.00
C223   C     0.47371   0.35734   0.22275   0.00000  Uiso   1.00
C224   C     0.52629   0.64267   0.27725   0.00000  Uiso   1.00
C225   C     0.35462   0.45945   0.24199   0.00000  Uiso   1.00
C226   C     0.64538   0.54055   0.25801   0.00000  Uiso   1.00
C227   C     0.64536   0.45944   0.24204   0.00000  Uiso   1.00
C228   C     0.35464   0.54056   0.25796   0.00000  Uiso   1.00
C229   C     0.51438   0.53807   0.04706   0.00000  Uiso   1.00
C230   C     0.51443   0.46188   0.45300   0.00000  Uiso   1.00
C231   C     0.48534   0.53805   0.45290   0.00000  Uiso   1.00
C232   C     0.48529   0.46190   0.04704   0.00000  Uiso   1.00
C233   C     0.51417   0.53819   0.09305   0.00000  Uiso   1.00
C234   C     0.51427   0.46178   0.40701   0.00000  Uiso   1.00
C235   C     0.48564   0.53818   0.40692   0.00000  Uiso   1.00
C236   C     0.48555   0.46180   0.09303   0.00000  Uiso   1.00
C237   C     0.49989   0.50000   0.11601   0.00000  Uiso   1.00
C238   C     0.49999   0.49999   0.38399   0.00000  Uiso   1.00
C239   C     0.49983   0.49998   0.02405   0.00000  Uiso   1.00
C240   C     0.49985   0.49996   0.47595   0.00000  Uiso   1.00
C241   C     0.62420   0.49999   0.25004   0.00000  Uiso   1.00
C242   C     0.37580   0.50001   0.24996   0.00000  Uiso   1.00
H243   H     0.54729   0.37552   0.29904   0.00000  Uiso   1.00
H244   H     0.45270   0.62448   0.20098   0.00000  Uiso   1.00
H245   H     0.45270   0.37555   0.20097   0.00000  Uiso   1.00
H246   H     0.54731   0.62445   0.29902   0.00000  Uiso   1.00
H247   H     0.52622   0.56742   0.02948   0.00000  Uiso   1.00
H248   H     0.52626   0.43252   0.47063   0.00000  Uiso   1.00
H249   H     0.47346   0.56740   0.47045   0.00000  Uiso   1.00
H250   H     0.47344   0.43255   0.02943   0.00000  Uiso   1.00
N251   N     0.50000   0.61907   0.25000   0.00000  Uiso   1.00
N252   N     0.50000   0.38093   0.25000   0.00000  Uiso   1.00
O253   O     0.43892   0.53821   0.24999   0.00000  Uiso   1.00
O254   O     0.56108   0.46179   0.25000   0.00000  Uiso   1.00
O255   O     0.56108   0.53821   0.25000   0.00000  Uiso   1.00
O256   O     0.43892   0.46179   0.24999   0.00000  Uiso   1.00
O257   O     0.50000   0.53822   0.18453   0.00000  Uiso   1.00
O258   O     0.50000   0.46178   0.31547   0.00000  Uiso   1.00
O259   O     0.50000   0.53822   0.31547   0.00000  Uiso   1.00
O260   O     0.50000   0.46178   0.18453   0.00000  Uiso   1.00
Zn261  Zn    0.50000   0.55104   0.25000   0.00000  Uiso   1.00
Zn262  Zn    0.50000   0.44896   0.25000   0.00000  Uiso   1.00
H263   H     0.52567   0.56777   0.11058   0.00000  Uiso   1.00
H264   H     0.52579   0.43222   0.38952   0.00000  Uiso   1.00
H265   H     0.47418   0.56776   0.38936   0.00000  Uiso   1.00
H266   H     0.47407   0.43224   0.11055   0.00000  Uiso   1.00
H267   H     0.37083   0.42793   0.23548   0.00000  Uiso   1.00
H268   H     0.62917   0.57207   0.26452   0.00000  Uiso   1.00
H269   H     0.62914   0.42792   0.23558   0.00000  Uiso   1.00
H270   H     0.37086   0.57208   0.26442   0.00000  Uiso   1.00
C271   C     0.75328   0.50000   0.24997   0.00000  Uiso   1.00
C272   C     0.91339   0.50000   0.25003   0.00000  Uiso   1.00
C273   C     0.83330   0.50000   0.16390   0.00000  Uiso   1.00
C274   C     0.83336   0.50000   0.33610   0.00000  Uiso   1.00
C275   C     0.85962   0.35732   0.27725   0.00000  Uiso   1.00
C276   C     0.80704   0.64268   0.22275   0.00000  Uiso   1.00
C277   C     0.80704   0.35734   0.22275   0.00000  Uiso   1.00
C278   C     0.85963   0.64267   0.27725   0.00000  Uiso   1.00
C279   C     0.68796   0.45945   0.24199   0.00000  Uiso   1.00
C280   C     0.97871   0.54055   0.25801   0.00000  Uiso   1.00
C281   C     0.97869   0.45944   0.24204   0.00000  Uiso   1.00
C282   C     0.68797   0.54056   0.25796   0.00000  Uiso   1.00
C283   C     0.84771   0.53807   0.04706   0.00000  Uiso   1.00
C284   C     0.84776   0.46188   0.45300   0.00000  Uiso   1.00
C285   C     0.81867   0.53805   0.45290   0.00000  Uiso   1.00
C286   C     0.81863   0.46190   0.04704   0.00000  Uiso   1.00
C287   C     0.84751   0.53819   0.09305   0.00000  Uiso   1.00
C288   C     0.84761   0.46178   0.40701   0.00000  Uiso   1.00
C289   C     0.81898   0.53818   0.40692   0.00000  Uiso   1.00
C290   C     0.81889   0.46180   0.09303   0.00000  Uiso   1.00
C291   C     0.83323   0.50000   0.11601   0.00000  Uiso   1.00
C292   C     0.83333   0.49999   0.38399   0.00000  Uiso   1.00
C293   C     0.83316   0.49998   0.02405   0.00000  Uiso   1.00
C294   C     0.83318   0.49996   0.47595   0.00000  Uiso   1.00
C295   C     0.95753   0.49999   0.25004   0.00000  Uiso   1.00
C296   C     0.70914   0.50001   0.24996   0.00000  Uiso   1.00
H297   H     0.88062   0.37552   0.29904   0.00000  Uiso   1.00
H298   H     0.78603   0.62448   0.20098   0.00000  Uiso   1.00
H299   H     0.78604   0.37555   0.20097   0.00000  Uiso   1.00
H300   H     0.88064   0.62445   0.29902   0.00000  Uiso   1.00
H301   H     0.85956   0.56742   0.02948   0.00000  Uiso   1.00
H302   H     0.85960   0.43252   0.47063   0.00000  Uiso   1.00
H303   H     0.80679   0.56740   0.47045   0.00000  Uiso   1.00
H304   H     0.80677   0.43255   0.02943   0.00000  Uiso   1.00
N305   N     0.83333   0.61907   0.25000   0.00000  Uiso   1.00
N306   N     0.83333   0.38093   0.25000   0.00000  Uiso   1.00
O307   O     0.77226   0.53821   0.24999   0.00000  Uiso   1.00
O308   O     0.89441   0.46179   0.25000   0.00000  Uiso   1.00
O309   O     0.89441   0.53821   0.25000   0.00000  Uiso   1.00
O310   O     0.77226   0.46179   0.24999   0.00000  Uiso   1.00
O311   O     0.83333   0.53822   0.18453   0.00000  Uiso   1.00
O312   O     0.83334   0.46178   0.31547   0.00000  Uiso   1.00
O313   O     0.83334   0.53822   0.31547   0.00000  Uiso   1.00
O314   O     0.83333   0.46178   0.18453   0.00000  Uiso   1.00
Zn315  Zn    0.83333   0.55104   0.25000   0.00000  Uiso   1.00
Zn316  Zn    0.83333   0.44896   0.25000   0.00000  Uiso   1.00
H317   H     0.85901   0.56777   0.11058   0.00000  Uiso   1.00
H318   H     0.85913   0.43222   0.38952   0.00000  Uiso   1.00
H319   H     0.80751   0.56776   0.38936   0.00000  Uiso   1.00
H320   H     0.80741   0.43224   0.11055   0.00000  Uiso   1.00
H321   H     0.70416   0.42793   0.23548   0.00000  Uiso   1.00
H322   H     0.96250   0.57207   0.26452   0.00000  Uiso   1.00
H323   H     0.96247   0.42792   0.23558   0.00000  Uiso   1.00
H324   H     0.70420   0.57208   0.26442   0.00000  Uiso   1.00
C325   C     0.08661   0.83334   0.24997   0.00000  Uiso   1.00
C326   C     0.24672   0.83333   0.25003   0.00000  Uiso   1.00
C327   C     0.16663   0.83333   0.16390   0.00000  Uiso   1.00
C328   C     0.16669   0.83333   0.33610   0.00000  Uiso   1.00
C329   C     0.19296   0.69065   0.27725   0.00000  Uiso   1.00
C330   C     0.14037   0.97602   0.22275   0.00000  Uiso   1.00
C331   C     0.14038   0.69067   0.22275   0.00000  Uiso   1.00
C332   C     0.19296   0.97600   0.27725   0.00000  Uiso   1.00
C333   C     0.02129   0.79279   0.24199   0.00000  Uiso   1.00
C334   C     0.31204   0.87388   0.25801   0.00000  Uiso   1.00
C335   C     0.31203   0.79278   0.24204   0.00000  Uiso   1.00
C336   C     0.02131   0.87389   0.25796   0.00000  Uiso   1.00
C337   C     0.18104   0.87140   0.04706   0.00000  Uiso   1.00
C338   C     0.18110   0.79521   0.45300   0.00000  Uiso   1.00
C339   C     0.15200   0.87139   0.45290   0.00000  Uiso   1.00
C340   C     0.15196   0.79523   0.04704   0.00000  Uiso   1.00
C341   C     0.18084   0.87153   0.09305   0.00000  Uiso   1.00
C342   C     0.18094   0.79512   0.40701   0.00000  Uiso   1.00
C343   C     0.15231   0.87152   0.40692   0.00000  Uiso   1.00
C344   C     0.15222   0.79513   0.09303   0.00000  Uiso   1.00
C345   C     0.16656   0.83333   0.11601   0.00000  Uiso   1.00
C346   C     0.16666   0.83333   0.38399   0.00000  Uiso   1.00
C347   C     0.16650   0.83331   0.02405   0.00000  Uiso   1.00
C348   C     0.16652   0.83329   0.47595   0.00000  Uiso   1.00
C349   C     0.29086   0.83333   0.25004   0.00000  Uiso   1.00
C350   C     0.04247   0.83334   0.24996   0.00000  Uiso   1.00
H351   H     0.21396   0.70886   0.29904   0.00000  Uiso   1.00
H352   H     0.11937   0.95782   0.20098   0.00000  Uiso   1.00
H353   H     0.11937   0.70888   0.20097   0.00000  Uiso   1.00
H354   H     0.21397   0.95779   0.29902   0.00000  Uiso   1.00
H355   H     0.19289   0.90075   0.02948   0.00000  Uiso   1.00
H356   H     0.19293   0.76586   0.47063   0.00000  Uiso   1.00
H357   H     0.14013   0.90074   0.47045   0.00000  Uiso   1.00
H358   H     0.14010   0.76588   0.02943   0.00000  Uiso   1.00
N359   N     0.16667   0.95240   0.25000   0.00000  Uiso   1.00
N360   N     0.16667   0.71427   0.25000   0.00000  Uiso   1.00
O361   O     0.10559   0.87154   0.24999   0.00000  Uiso   1.00
O362   O     0.22774   0.79513   0.25000   0.00000  Uiso   1.00
O363   O     0.22774   0.87154   0.25000   0.00000  Uiso   1.00
O364   O     0.10559   0.79513   0.24999   0.00000  Uiso   1.00
O365   O     0.16666   0.87155   0.18453   0.00000  Uiso   1.00
O366   O     0.16667   0.79511   0.31547   0.00000  Uiso   1.00
O367   O     0.16667   0.87155   0.31547   0.00000  Uiso   1.00
O368   O     0.16666   0.79511   0.18453   0.00000  Uiso   1.00
Zn369  Zn    0.16667   0.88437   0.25000   0.00000  Uiso   1.00
Zn370  Zn    0.16667   0.78229   0.25000   0.00000  Uiso   1.00
H371   H     0.19234   0.90110   0.11058   0.00000  Uiso   1.00
H372   H     0.19246   0.76555   0.38952   0.00000  Uiso   1.00
H373   H     0.14084   0.90109   0.38936   0.00000  Uiso   1.00
H374   H     0.14074   0.76557   0.11055   0.00000  Uiso   1.00
H375   H     0.03750   0.76127   0.23548   0.00000  Uiso   1.00
H376   H     0.29584   0.90540   0.26452   0.00000  Uiso   1.00
H377   H     0.29580   0.76125   0.23558   0.00000  Uiso   1.00
H378   H     0.03753   0.90542   0.26442   0.00000  Uiso   1.00
C379   C     0.41995   0.83334   0.24997   0.00000  Uiso   1.00
C380   C     0.58005   0.83333   0.25003   0.00000  Uiso   1.00
C381   C     0.49996   0.83333   0.16390   0.00000  Uiso   1.00
C382   C     0.50002   0.83333   0.33610   0.00000  Uiso   1.00
C383   C     0.52629   0.69065   0.27725   0.00000  Uiso   1.00
C384   C     0.47371   0.97602   0.22275   0.00000  Uiso   1.00
C385   C     0.47371   0.69067   0.22275   0.00000  Uiso   1.00
C386   C     0.52629   0.97600   0.27725   0.00000  Uiso   1.00
C387   C     0.35462   0.79279   0.24199   0.00000  Uiso   1.00
C388   C     0.64538   0.87388   0.25801   0.00000  Uiso   1.00
C389   C     0.64536   0.79278   0.24204   0.00000  Uiso   1.00
C390   C     0.35464   0.87389   0.25796   0.00000  Uiso   1.00
C391   C     0.51438   0.87140   0.04706   0.00000  Uiso   1.00
C392   C     0.51443   0.79521   0.45300   0.00000  Uiso   1.00
C393   C     0.48534   0.87139   0.45290   0.00000  Uiso   1.00
C394   C     0.48529   0.79523   0.04704   0.00000  Uiso   1.00
C395   C     0.51417   0.87153   0.09305   0.00000  Uiso   1.00
C396   C     0.51427   0.79512   0.40701   0.00000  Uiso   1.00
C397   C     0.48564   0.87152   0.40692   0.00000  Uiso   1.00
C398   C     0.48555   0.79513   0.09303   0.00000  Uiso   1.00
C399   C     0.49989   0.83333   0.11601   0.00000  Uiso   1.00
C400   C     0.49999   0.83333   0.38399   0.00000  Uiso   1.00
C401   C     0.49983   0.83331   0.02405   0.00000  Uiso   1.00
C402   C     0.49985   0.83329   0.47595   0.00000  Uiso   1.00
C403   C     0.62420   0.83333   0.25004   0.00000  Uiso   1.00
C404   C     0.37580   0.83334   0.24996   0.00000  Uiso   1.00
H405   H     0.54729   0.70886   0.29904   0.00000  Uiso   1.00
H406   H     0.45270   0.95782   0.20098   0.00000  Uiso   1.00
H407   H     0.45270   0.70888   0.20097   0.00000  Uiso   1.00
H408   H     0.54731   0.95779   0.29902   0.00000  Uiso   1.00
H409   H     0.52622   0.90075   0.02948   0.00000  Uiso   1.00
H410   H     0.52626   0.76586   0.47063   0.00000  Uiso   1.00
H411   H     0.47346   0.90074   0.47045   0.00000  Uiso   1.00
H412   H     0.47344   0.76588   0.02943   0.00000  Uiso   1.00
N413   N     0.50000   0.95240   0.25000   0.00000  Uiso   1.00
N414   N     0.50000   0.71427   0.25000   0.00000  Uiso   1.00
O415   O     0.43892   0.87154   0.24999   0.00000  Uiso   1.00
O416   O     0.56108   0.79513   0.25000   0.00000  Uiso   1.00
O417   O     0.56108   0.87154   0.25000   0.00000  Uiso   1.00
O418   O     0.43892   0.79513   0.24999   0.00000  Uiso   1.00
O419   O     0.50000   0.87155   0.18453   0.00000  Uiso   1.00
O420   O     0.50000   0.79511   0.31547   0.00000  Uiso   1.00
O421   O     0.50000   0.87155   0.31547   0.00000  Uiso   1.00
O422   O     0.50000   0.79511   0.18453   0.00000  Uiso   1.00
Zn423  Zn    0.50000   0.88437   0.25000   0.00000  Uiso   1.00
Zn424  Zn    0.50000   0.78229   0.25000   0.00000  Uiso   1.00
H425   H     0.52567   0.90110   0.11058   0.00000  Uiso   1.00
H426   H     0.52579   0.76555   0.38952   0.00000  Uiso   1.00
H427   H     0.47418   0.90109   0.38936   0.00000  Uiso   1.00
H428   H     0.47407   0.76557   0.11055   0.00000  Uiso   1.00
H429   H     0.37083   0.76127   0.23548   0.00000  Uiso   1.00
H430   H     0.62917   0.90540   0.26452   0.00000  Uiso   1.00
H431   H     0.62914   0.76125   0.23558   0.00000  Uiso   1.00
H432   H     0.37086   0.90542   0.26442   0.00000  Uiso   1.00
C433   C     0.75328   0.83334   0.24997   0.00000  Uiso   1.00
C434   C     0.91339   0.83333   0.25003   0.00000  Uiso   1.00
C435   C     0.83330   0.83333   0.16390   0.00000  Uiso   1.00
C436   C     0.83336   0.83333   0.33610   0.00000  Uiso   1.00
C437   C     0.85962   0.69065   0.27725   0.00000  Uiso   1.00
C438   C     0.80704   0.97602   0.22275   0.00000  Uiso   1.00
C439   C     0.80704   0.69067   0.22275   0.00000  Uiso   1.00
C440   C     0.85963   0.97600   0.27725   0.00000  Uiso   1.00
C441   C     0.68796   0.79279   0.24199   0.00000  Uiso   1.00
C442   C     0.97871   0.87388   0.25801   0.00000  Uiso   1.00
C443   C     0.97869   0.79278   0.24204   0.00000  Uiso   1.00
C444   C     0.68797   0.87389   0.25796   0.00000  Uiso   1.00
C445   C     0.84771   0.87140   0.04706   0.00000  Uiso   1.00
C446   C     0.84776   0.79521   0.45300   0.00000  Uiso   1.00
C447   C     0.81867   0.87139   0.45290   0.00000  Uiso   1.00
C448   C     0.81863   0.79523   0.04704   0.00000  Uiso   1.00
C449   C     0.84751   0.87153   0.09305   0.00000  Uiso   1.00
C450   C     0.84761   0.79512   0.40701   0.00000  Uiso   1.00
C451   C     0.81898   0.87152   0.40692   0.00000  Uiso   1.00
C452   C     0.81889   0.79513   0.09303   0.00000  Uiso   1.00
C453   C     0.83323   0.83333   0.11601   0.00000  Uiso   1.00
C454   C     0.83333   0.83333   0.38399   0.00000  Uiso   1.00
C455   C     0.83316   0.83331   0.02405   0.00000  Uiso   1.00
C456   C     0.83318   0.83329   0.47595   0.00000  Uiso   1.00
C457   C     0.95753   0.83333   0.25004   0.00000  Uiso   1.00
C458   C     0.70914   0.83334   0.24996   0.00000  Uiso   1.00
H459   H     0.88062   0.70886   0.29904   0.00000  Uiso   1.00
H460   H     0.78603   0.95782   0.20098   0.00000  Uiso   1.00
H461   H     0.78604   0.70888   0.20097   0.00000  Uiso   1.00
H462   H     0.88064   0.95779   0.29902   0.00000  Uiso   1.00
H463   H     0.85956   0.90075   0.02948   0.00000  Uiso   1.00
H464   H     0.85960   0.76586   0.47063   0.00000  Uiso   1.00
H465   H     0.80679   0.90074   0.47045   0.00000  Uiso   1.00
H466   H     0.80677   0.76588   0.02943   0.00000  Uiso   1.00
N467   N     0.83333   0.95240   0.25000   0.00000  Uiso   1.00
N468   N     0.83333   0.71427   0.25000   0.00000  Uiso   1.00
O469   O     0.77226   0.87154   0.24999   0.00000  Uiso   1.00
O470   O     0.89441   0.79513   0.25000   0.00000  Uiso   1.00
O471   O     0.89441   0.87154   0.25000   0.00000  Uiso   1.00
O472   O     0.77226   0.79513   0.24999   0.00000  Uiso   1.00
O473   O     0.83333   0.87155   0.18453   0.00000  Uiso   1.00
O474   O     0.83334   0.79511   0.31547   0.00000  Uiso   1.00
O475   O     0.83334   0.87155   0.31547   0.00000  Uiso   1.00
O476   O     0.83333   0.79511   0.18453   0.00000  Uiso   1.00
Zn477  Zn    0.83333   0.88437   0.25000   0.00000  Uiso   1.00
Zn478  Zn    0.83333   0.78229   0.25000   0.00000  Uiso   1.00
H479   H     0.85901   0.90110   0.11058   0.00000  Uiso   1.00
H480   H     0.85913   0.76555   0.38952   0.00000  Uiso   1.00
H481   H     0.80751   0.90109   0.38936   0.00000  Uiso   1.00
H482   H     0.80741   0.76557   0.11055   0.00000  Uiso   1.00
H483   H     0.70416   0.76127   0.23548   0.00000  Uiso   1.00
H484   H     0.96250   0.90540   0.26452   0.00000  Uiso   1.00
H485   H     0.96247   0.76125   0.23558   0.00000  Uiso   1.00
H486   H     0.70420   0.90542   0.26442   0.00000  Uiso   1.00
C487   C     0.08661   0.16667   0.74997   0.00000  Uiso   1.00
C488   C     0.24672   0.16666   0.75003   0.00000  Uiso   1.00
C489   C     0.16663   0.16667   0.66390   0.00000  Uiso   1.00
C490   C     0.16669   0.16666   0.83610   0.00000  Uiso   1.00
C491   C     0.19296   0.02399   0.77725   0.00000  Uiso   1.00
C492   C     0.14037   0.30935   0.72275   0.00000  Uiso   1.00
C493   C     0.14038   0.02400   0.72275   0.00000  Uiso   1.00
C494   C     0.19296   0.30933   0.77725   0.00000  Uiso   1.00
C495   C     0.02129   0.12612   0.74199   0.00000  Uiso   1.00
C496   C     0.31204   0.20721   0.75801   0.00000  Uiso   1.00
C497   C     0.31203   0.12611   0.74204   0.00000  Uiso   1.00
C498   C     0.02131   0.20722   0.75796   0.00000  Uiso   1.00
C499   C     0.18104   0.20474   0.54706   0.00000  Uiso   1.00
C500   C     0.18110   0.12854   0.95300   0.00000  Uiso   1.00
C501   C     0.15200   0.20472   0.95290   0.00000  Uiso   1.00
C502   C     0.15196   0.12857   0.54704   0.00000  Uiso   1.00
C503   C     0.18084   0.20486   0.59305   0.00000  Uiso   1.00
C504   C     0.18094   0.12845   0.90701   0.00000  Uiso   1.00
C505   C     0.15231   0.20485   0.90692   0.00000  Uiso   1.00
C506   C     0.15222   0.12847   0.59303   0.00000  Uiso   1.00
C507   C     0.16656   0.16667   0.61601   0.00000  Uiso   1.00
C508   C     0.16666   0.16666   0.88399   0.00000  Uiso   1.00
C509   C     0.16650   0.16664   0.52405   0.00000  Uiso   1.00
C510   C     0.16652   0.16663   0.97595   0.00000  Uiso   1.00
C511   C     0.29086   0.16666   0.75004   0.00000  Uiso   1.00
C512   C     0.04247   0.16667   0.74996   0.00000  Uiso   1.00
H513   H     0.21396   0.04219   0.79904   0.00000  Uiso   1.00
H514   H     0.11937   0.29115   0.70098   0.00000  Uiso   1.00
H515   H     0.11937   0.04222   0.70097   0.00000  Uiso   1.00
H516   H     0.21397   0.29112   0.79902   0.00000  Uiso   1.00
H517   H     0.19289   0.23408   0.52948   0.00000  Uiso   1.00
H518   H     0.19293   0.09919   0.97063   0.00000  Uiso   1.00
H519   H     0.14013   0.23407   0.97045   0.00000  Uiso   1.00
H520   H     0.14010   0.09921   0.52943   0.00000  Uiso   1.00
N521   N     0.16667   0.28573   0.75000   0.00000  Uiso   1.00
N522   N     0.16667   0.04760   0.75000   0.00000  Uiso   1.00
O523   O     0.10559   0.20487   0.74999   0.00000  Uiso   1.00
O524   O     0.22774   0.12846   0.75000   0.00000  Uiso   1.00
O525   O     0.22774   0.20487   0.75000   0.00000  Uiso   1.00
O526   O     0.10559   0.12846   0.74999   0.00000  Uiso   1.00
O527   O     0.16666   0.20489   0.68453   0.00000  Uiso   1.00
O528   O     0.16667   0.12845   0.81547   0.00000  Uiso   1.00
O529   O     0.16667   0.20489   0.81547   0.00000  Uiso   1.00
O530   O     0.16666   0.12845   0.68453   0.00000  Uiso   1.00
Zn531  Zn    0.16667   0.21771   0.75000   0.00000  Uiso   1.00
Zn532  Zn    0.16667   0.11563   0.75000   0.00000  Uiso   1.00
H533   H     0.19234   0.23443   0.61058   0.00000  Uiso   1.00
H534   H     0.19246   0.09889   0.88952   0.00000  Uiso   1.00
H535   H     0.14084   0.23443   0.88936   0.00000  Uiso   1.00
H536   H     0.14074   0.09891   0.61055   0.00000  Uiso   1.00
H537   H     0.03750   0.09460   0.73548   0.00000  Uiso   1.00
H538   H     0.29584   0.23873   0.76452   0.00000  Uiso   1.00
H539   H     0.29580   0.09458   0.73558   0.00000  Uiso   1.00
H540   H     0.03753   0.23875   0.76442   0.00000  Uiso   1.00
C541   C     0.41995   0.16667   0.74997   0.00000  Uiso   1.00
C542   C     0.58005   0.16666   0.75003   0.00000  Uiso   1.00
C543   C     0.49996   0.16667   0.66390   0.00000  Uiso   1.00
C544   C     0.50002   0.16666   0.83610   0.00000  Uiso   1.00
C545   C     0.52629   0.02399   0.77725   0.00000  Uiso   1.00
C546   C     0.47371   0.30935   0.72275   0.00000  Uiso   1.00
C547   C     0.47371   0.02400   0.72275   0.00000  Uiso   1.00
C548   C     0.52629   0.30933   0.77725   0.00000  Uiso   1.00
C549   C     0.35462   0.12612   0.74199   0.00000  Uiso   1.00
C550   C     0.64538   0.20721   0.75801   0.00000  Uiso   1.00
C551   C     0.64536   0.12611   0.74204   0.00000  Uiso   1.00
C552   C     0.35464   0.20722   0.75796   0.00000  Uiso   1.00
C553   C     0.51438   0.20474   0.54706   0.00000  Uiso   1.00
C554   C     0.51443   0.12854   0.95300   0.00000  Uiso   1.00
C555   C     0.48534   0.20472   0.95290   0.00000  Uiso   1.00
C556   C     0.48529   0.12857   0.54704   0.00000  Uiso   1.00
C557   C     0.51417   0.20486   0.59305   0.00000  Uiso   1.00
C558   C     0.51427   0.12845   0.90701   0.00000  Uiso   1.00
C559   C     0.48564   0.20485   0.90692   0.00000  Uiso   1.00
C560   C     0.48555   0.12847   0.59303   0.00000  Uiso   1.00
C561   C     0.49989   0.16667   0.61601   0.00000  Uiso   1.00
C562   C     0.49999   0.16666   0.88399   0.00000  Uiso   1.00
C563   C     0.49983   0.16664   0.52405   0.00000  Uiso   1.00
C564   C     0.49985   0.16663   0.97595   0.00000  Uiso   1.00
C565   C     0.62420   0.16666   0.75004   0.00000  Uiso   1.00
C566   C     0.37580   0.16667   0.74996   0.00000  Uiso   1.00
H567   H     0.54729   0.04219   0.79904   0.00000  Uiso   1.00
H568   H     0.45270   0.29115   0.70098   0.00000  Uiso   1.00
H569   H     0.45270   0.04222   0.70097   0.00000  Uiso   1.00
H570   H     0.54731   0.29112   0.79902   0.00000  Uiso   1.00
H571   H     0.52622   0.23408   0.52948   0.00000  Uiso   1.00
H572   H     0.52626   0.09919   0.97063   0.00000  Uiso   1.00
H573   H     0.47346   0.23407   0.97045   0.00000  Uiso   1.00
H574   H     0.47344   0.09921   0.52943   0.00000  Uiso   1.00
N575   N     0.50000   0.28573   0.75000   0.00000  Uiso   1.00
N576   N     0.50000   0.04760   0.75000   0.00000  Uiso   1.00
O577   O     0.43892   0.20487   0.74999   0.00000  Uiso   1.00
O578   O     0.56108   0.12846   0.75000   0.00000  Uiso   1.00
O579   O     0.56108   0.20487   0.75000   0.00000  Uiso   1.00
O580   O     0.43892   0.12846   0.74999   0.00000  Uiso   1.00
O581   O     0.50000   0.20489   0.68453   0.00000  Uiso   1.00
O582   O     0.50000   0.12845   0.81547   0.00000  Uiso   1.00
O583   O     0.50000   0.20489   0.81547   0.00000  Uiso   1.00
O584   O     0.50000   0.12845   0.68453   0.00000  Uiso   1.00
Zn585  Zn    0.50000   0.21771   0.75000   0.00000  Uiso   1.00
Zn586  Zn    0.50000   0.11563   0.75000   0.00000  Uiso   1.00
H587   H     0.52567   0.23443   0.61058   0.00000  Uiso   1.00
H588   H     0.52579   0.09889   0.88952   0.00000  Uiso   1.00
H589   H     0.47418   0.23443   0.88936   0.00000  Uiso   1.00
H590   H     0.47407   0.09891   0.61055   0.00000  Uiso   1.00
H591   H     0.37083   0.09460   0.73548   0.00000  Uiso   1.00
H592   H     0.62917   0.23873   0.76452   0.00000  Uiso   1.00
H593   H     0.62914   0.09458   0.73558   0.00000  Uiso   1.00
H594   H     0.37086   0.23875   0.76442   0.00000  Uiso   1.00
C595   C     0.75328   0.16667   0.74997   0.00000  Uiso   1.00
C596   C     0.91339   0.16666   0.75003   0.00000  Uiso   1.00
C597   C     0.83330   0.16667   0.66390   0.00000  Uiso   1.00
C598   C     0.83336   0.16666   0.83610   0.00000  Uiso   1.00
C599   C     0.85962   0.02399   0.77725   0.00000  Uiso   1.00
C600   C     0.80704   0.30935   0.72275   0.00000  Uiso   1.00
C601   C     0.80704   0.02400   0.72275   0.00000  Uiso   1.00
C602   C     0.85963   0.30933   0.77725   0.00000  Uiso   1.00
C603   C     0.68796   0.12612   0.74199   0.00000  Uiso   1.00
C604   C     0.97871   0.20721   0.75801   0.00000  Uiso   1.00
C605   C     0.97869   0.12611   0.74204   0.00000  Uiso   1.00
C606   C     0.68797   0.20722   0.75796   0.00000  Uiso   1.00
C607   C     0.84771   0.20474   0.54706   0.00000  Uiso   1.00
C608   C     0.84776   0.12854   0.95300   0.00000  Uiso   1.00
C609   C     0.81867   0.20472   0.95290   0.00000  Uiso   1.00
C610   C     0.81863   0.12857   0.54704   0.00000  Uiso   1.00
C611   C     0.84751   0.20486   0.59305   0.00000  Uiso   1.00
C612   C     0.84761   0.12845   0.90701   0.00000  Uiso   1.00
C613   C     0.81898   0.20485   0.90692   0.00000  Uiso   1.00
C614   C     0.81889   0.12847   0.59303   0.00000  Uiso   1.00
C615   C     0.83323   0.16667   0.61601   0.00000  Uiso   1.00
C616   C     0.83333   0.16666   0.88399   0.00000  Uiso   1.00
C617   C     0.83316   0.16664   0.52405   0.00000  Uiso   1.00
C618   C     0.83318   0.16663   0.97595   0.00000  Uiso   1.00
C619   C     0.95753   0.16666   0.75004   0.00000  Uiso   1.00
C620   C     0.70914   0.16667   0.74996   0.00000  Uiso   1.00
H621   H     0.88062   0.04219   0.79904   0.00000  Uiso   1.00
H622   H     0.78603   0.29115   0.70098   0.00000  Uiso   1.00
H623   H     0.78604   0.04222   0.70097   0.00000  Uiso   1.00
H624   H     0.88064   0.29112   0.79902   0.00000  Uiso   1.00
H625   H     0.85956   0.23408   0.52948   0.00000  Uiso   1.00
H626   H     0.85960   0.09919   0.97063   0.00000  Uiso   1.00
H627   H     0.80679   0.23407   0.97045   0.00000  Uiso   1.00
H628   H     0.80677   0.09921   0.52943   0.00000  Uiso   1.00
N629   N     0.83333   0.28573   0.75000   0.00000  Uiso   1.00
N630   N     0.83333   0.04760   0.75000   0.00000  Uiso   1.00
O631   O     0.77226   0.20487   0.74999   0.00000  Uiso   1.00
O632   O     0.89441   0.12846   0.75000   0.00000  Uiso   1.00
O633   O     0.89441   0.20487   0.75000   0.00000  Uiso   1.00
O634   O     0.77226   0.12846   0.74999   0.00000  Uiso   1.00
O635   O     0.83333   0.20489   0.68453   0.00000  Uiso   1.00
O636   O     0.83334   0.12845   0.81547   0.00000  Uiso   1.00
O637   O     0.83334   0.20489   0.81547   0.00000  Uiso   1.00
O638   O     0.83333   0.12845   0.68453   0.00000  Uiso   1.00
Zn639  Zn    0.83333   0.21771   0.75000   0.00000  Uiso   1.00
Zn640  Zn    0.83333   0.11563   0.75000   0.00000  Uiso   1.00
H641   H     0.85901   0.23443   0.61058   0.00000  Uiso   1.00
H642   H     0.85913   0.09889   0.88952   0.00000  Uiso   1.00
H643   H     0.80751   0.23443   0.88936   0.00000  Uiso   1.00
H644   H     0.80741   0.09891   0.61055   0.00000  Uiso   1.00
H645   H     0.70416   0.09460   0.73548   0.00000  Uiso   1.00
H646   H     0.96250   0.23873   0.76452   0.00000  Uiso   1.00
H647   H     0.96247   0.09458   0.73558   0.00000  Uiso   1.00
H648   H     0.70420   0.23875   0.76442   0.00000  Uiso   1.00
C649   C     0.08661   0.50000   0.74997   0.00000  Uiso   1.00
C650   C     0.24672   0.50000   0.75003   0.00000  Uiso   1.00
C651   C     0.16663   0.50000   0.66390   0.00000  Uiso   1.00
C652   C     0.16669   0.50000   0.83610   0.00000  Uiso   1.00
C653   C     0.19296   0.35732   0.77725   0.00000  Uiso   1.00
C654   C     0.14037   0.64268   0.72275   0.00000  Uiso   1.00
C655   C     0.14038   0.35734   0.72275   0.00000  Uiso   1.00
C656   C     0.19296   0.64267   0.77725   0.00000  Uiso   1.00
C657   C     0.02129   0.45945   0.74199   0.00000  Uiso   1.00
C658   C     0.31204   0.54055   0.75801   0.00000  Uiso   1.00
C659   C     0.31203   0.45944   0.74204   0.00000  Uiso   1.00
C660   C     0.02131   0.54056   0.75796   0.00000  Uiso   1.00
C661   C     0.18104   0.53807   0.54706   0.00000  Uiso   1.00
C662   C     0.18110   0.46188   0.95300   0.00000  Uiso   1.00
C663   C     0.15200   0.53805   0.95290   0.00000  Uiso   1.00
C664   C     0.15196   0.46190   0.54704   0.00000  Uiso   1.00
C665   C     0.18084   0.53819   0.59305   0.00000  Uiso   1.00
C666   C     0.18094   0.46178   0.90701   0.00000  Uiso   1.00
C667   C     0.15231   0.53818   0.90692   0.00000  Uiso   1.00
C668   C     0.15222   0.46180   0.59303   0.00000  Uiso   1.00
C669   C     0.16656   0.50000   0.61601   0.00000  Uiso   1.00
C670   C     0.16666   0.49999   0.88399   0.00000  Uiso   1.00
C671   C     0.16650   0.49998   0.52405   0.00000  Uiso   1.00
C672   C     0.16652   0.49996   0.97595   0.00000  Uiso   1.00
C673   C     0.29086   0.49999   0.75004   0.00000  Uiso   1.00
C674   C     0.04247   0.50001   0.74996   0.00000  Uiso   1.00
H675   H     0.21396   0.37552   0.79904   0.00000  Uiso   1.00
H676   H     0.11937   0.62448   0.70098   0.00000  Uiso   1.00
H677   H     0.11937   0.37555   0.70097   0.00000  Uiso   1.00
H678   H     0.21397   0.62445   0.79902   0.00000  Uiso   1.00
H679   H     0.19289   0.56742   0.52948   0.00000  Uiso   1.00
H680   H     0.19293   0.43252   0.97063   0.00000  Uiso   1.00
H681   H     0.14013   0.56740   0.97045   0.00000  Uiso   1.00
H682   H     0.14010   0.43255   0.52943   0.00000  Uiso   1.00
N683   N     0.16667   0.61907   0.75000   0.00000  Uiso   1.00
N684   N     0.16667   0.38093   0.75000   0.00000  Uiso   1.00
O685   O     0.10559   0.53821   0.74999   0.00000  Uiso   1.00
O686   O     0.22774   0.46179   0.75000   0.00000  Uiso   1.00
O687   O     0.22774   0.53821   0.75000   0.00000  Uiso   1.00
O688   O     0.10559   0.46179   0.74999   0.00000  Uiso   1.00
O689   O     0.16666   0.53822   0.68453   0.00000  Uiso   1.00
O690   O     0.16667   0.46178   0.81547   0.00000  Uiso   1.00
O691   O     0.16667   0.53822   0.81547   0.00000  Uiso   1.00
O692   O     0.16666   0.46178   0.68453   0.00000  Uiso   1.00
Zn693  Zn    0.16667   0.55104   0.75000   0.00000  Uiso   1.00
Zn694  Zn    0.16667   0.44896   0.75000   0.00000  Uiso   1.00
H695   H     0.19234   0.56777   0.61058   0.00000  Uiso   1.00
H696   H     0.19246   0.43222   0.88952   0.00000  Uiso   1.00
H697   H     0.14084   0.56776   0.88936   0.00000  Uiso   1.00
H698   H     0.14074   0.43224   0.61055   0.00000  Uiso   1.00
H699   H     0.03750   0.42793   0.73548   0.00000  Uiso   1.00
H700   H     0.29584   0.57207   0.76452   0.00000  Uiso   1.00
H701   H     0.29580   0.42792   0.73558   0.00000  Uiso   1.00
H702   H     0.03753   0.57208   0.76442   0.00000  Uiso   1.00
C703   C     0.41995   0.50000   0.74997   0.00000  Uiso   1.00
C704   C     0.58005   0.50000   0.75003   0.00000  Uiso   1.00
C705   C     0.49996   0.50000   0.66390   0.00000  Uiso   1.00
C706   C     0.50002   0.50000   0.83610   0.00000  Uiso   1.00
C707   C     0.52629   0.35732   0.77725   0.00000  Uiso   1.00
C708   C     0.47371   0.64268   0.72275   0.00000  Uiso   1.00
C709   C     0.47371   0.35734   0.72275   0.00000  Uiso   1.00
C710   C     0.52629   0.64267   0.77725   0.00000  Uiso   1.00
C711   C     0.35462   0.45945   0.74199   0.00000  Uiso   1.00
C712   C     0.64538   0.54055   0.75801   0.00000  Uiso   1.00
C713   C     0.64536   0.45944   0.74204   0.00000  Uiso   1.00
C714   C     0.35464   0.54056   0.75796   0.00000  Uiso   1.00
C715   C     0.51438   0.53807   0.54706   0.00000  Uiso   1.00
C716   C     0.51443   0.46188   0.95300   0.00000  Uiso   1.00
C717   C     0.48534   0.53805   0.95290   0.00000  Uiso   1.00
C718   C     0.48529   0.46190   0.54704   0.00000  Uiso   1.00
C719   C     0.51417   0.53819   0.59305   0.00000  Uiso   1.00
C720   C     0.51427   0.46178   0.90701   0.00000  Uiso   1.00
C721   C     0.48564   0.53818   0.90692   0.00000  Uiso   1.00
C722   C     0.48555   0.46180   0.59303   0.00000  Uiso   1.00
C723   C     0.49989   0.50000   0.61601   0.00000  Uiso   1.00
C724   C     0.49999   0.49999   0.88399   0.00000  Uiso   1.00
C725   C     0.49983   0.49998   0.52405   0.00000  Uiso   1.00
C726   C     0.49985   0.49996   0.97595   0.00000  Uiso   1.00
C727   C     0.62420   0.49999   0.75004   0.00000  Uiso   1.00
C728   C     0.37580   0.50001   0.74996   0.00000  Uiso   1.00
H729   H     0.54729   0.37552   0.79904   0.00000  Uiso   1.00
H730   H     0.45270   0.62448   0.70098   0.00000  Uiso   1.00
H731   H     0.45270   0.37555   0.70097   0.00000  Uiso   1.00
H732   H     0.54731   0.62445   0.79902   0.00000  Uiso   1.00
H733   H     0.52622   0.56742   0.52948   0.00000  Uiso   1.00
H734   H     0.52626   0.43252   0.97063   0.00000  Uiso   1.00
H735   H     0.47346   0.56740   0.97045   0.00000  Uiso   1.00
H736   H     0.47344   0.43255   0.52943   0.00000  Uiso   1.00
N737   N     0.50000   0.61907   0.75000   0.00000  Uiso   1.00
N738   N     0.50000   0.38093   0.75000   0.00000  Uiso   1.00
O739   O     0.43892   0.53821   0.74999   0.00000  Uiso   1.00
O740   O     0.56108   0.46179   0.75000   0.00000  Uiso   1.00
O741   O     0.56108   0.53821   0.75000   0.00000  Uiso   1.00
O742   O     0.43892   0.46179   0.74999   0.00000  Uiso   1.00
O743   O     0.50000   0.53822   0.68453   0.00000  Uiso   1.00
O744   O     0.50000   0.46178   0.81547   0.00000  Uiso   1.00
O745   O     0.50000   0.53822   0.81547   0.00000  Uiso   1.00
O746   O     0.50000   0.46178   0.68453   0.00000  Uiso   1.00
Zn747  Zn    0.50000   0.55104   0.75000   0.00000  Uiso   1.00
Zn748  Zn    0.50000   0.44896   0.75000   0.00000  Uiso   1.00
H749   H     0.52567   0.56777   0.61058   0.00000  Uiso   1.00
H750   H     0.52579   0.43222   0.88952   0.00000  Uiso   1.00
H751   H     0.47418   0.56776   0.88936   0.00000  Uiso   1.00
H752   H     0.47407   0.43224   0.61055   0.00000  Uiso   1.00
H753   H     0.37083   0.42793   0.73548   0.00000  Uiso   1.00
H754   H     0.62917   0.57207   0.76452   0.00000  Uiso   1.00
H755   H     0.62914   0.42792   0.73558   0.00000  Uiso   1.00
H756   H     0.37086   0.57208   0.76442   0.00000  Uiso   1.00
C757   C     0.75328   0.50000   0.74997   0.00000  Uiso   1.00
C758   C     0.91339   0.50000   0.75003   0.00000  Uiso   1.00
C759   C     0.83330   0.50000   0.66390   0.00000  Uiso   1.00
C760   C     0.83336   0.50000   0.83610   0.00000  Uiso   1.00
C761   C     0.85962   0.35732   0.77725   0.00000  Uiso   1.00
C762   C     0.80704   0.64268   0.72275   0.00000  Uiso   1.00
C763   C     0.80704   0.35734   0.72275   0.00000  Uiso   1.00
C764   C     0.85963   0.64267   0.77725   0.00000  Uiso   1.00
C765   C     0.68796   0.45945   0.74199   0.00000  Uiso   1.00
C766   C     0.97871   0.54055   0.75801   0.00000  Uiso   1.00
C767   C     0.97869   0.45944   0.74204   0.00000  Uiso   1.00
C768   C     0.68797   0.54056   0.75796   0.00000  Uiso   1.00
C769   C     0.84771   0.53807   0.54706   0.00000  Uiso   1.00
C770   C     0.84776   0.46188   0.95300   0.00000  Uiso   1.00
C771   C     0.81867   0.53805   0.95290   0.00000  Uiso   1.00
C772   C     0.81863   0.46190   0.54704   0.00000  Uiso   1.00
C773   C     0.84751   0.53819   0.59305   0.00000  Uiso   1.00
C774   C     0.84761   0.46178   0.90701   0.00000  Uiso   1.00
C775   C     0.81898   0.53818   0.90692   0.00000  Uiso   1.00
C776   C     0.81889   0.46180   0.59303   0.00000  Uiso   1.00
C777   C     0.83323   0.50000   0.61601   0.00000  Uiso   1.00
C778   C     0.83333   0.49999   0.88399   0.00000  Uiso   1.00
C779   C     0.83316   0.49998   0.52405   0.00000  Uiso   1.00
C780   C     0.83318   0.49996   0.97595   0.00000  Uiso   1.00
C781   C     0.95753   0.49999   0.75004   0.00000  Uiso   1.00
C782   C     0.70914   0.50001   0.74996   0.00000  Uiso   1.00
H783   H     0.88062   0.37552   0.79904   0.00000  Uiso   1.00
H784   H     0.78603   0.62448   0.70098   0.00000  Uiso   1.00
H785   H     0.78604   0.37555   0.70097   0.00000  Uiso   1.00
H786   H     0.88064   0.62445   0.79902   0.00000  Uiso   1.00
H787   H     0.85956   0.56742   0.52948   0.00000  Uiso   1.00
H788   H     0.85960   0.43252   0.97063   0.00000  Uiso   1.00
H789   H     0.80679   0.56740   0.97045   0.00000  Uiso   1.00
H790   H     0.80677   0.43255   0.52943   0.00000  Uiso   1.00
N791   N     0.83333   0.61907   0.75000   0.00000  Uiso   1.00
N792   N     0.83333   0.38093   0.75000   0.00000  Uiso   1.00
O793   O     0.77226   0.53821   0.74999   0.00000  Uiso   1.00
O794   O     0.89441   0.46179   0.75000   0.00000  Uiso   1.00
O795   O     0.89441   0.53821   0.75000   0.00000  Uiso   1.00
O796   O     0.77226   0.46179   0.74999   0.00000  Uiso   1.00
O797   O     0.83333   0.53822   0.68453   0.00000  Uiso   1.00
O798   O     0.83334   0.46178   0.81547   0.00000  Uiso   1.00
O799   O     0.83334   0.53822   0.81547   0.00000  Uiso   1.00
O800   O     0.83333   0.46178   0.68453   0.00000  Uiso   1.00
Zn801  Zn    0.83333   0.55104   0.75000   0.00000  Uiso   1.00
Zn802  Zn    0.83333   0.44896   0.75000   0.00000  Uiso   1.00
H803   H     0.85901   0.56777   0.61058   0.00000  Uiso   1.00
H804   H     0.85913   0.43222   0.88952   0.00000  Uiso   1.00
H805   H     0.80751   0.56776   0.88936   0.00000  Uiso   1.00
H806   H     0.80741   0.43224   0.61055   0.00000  Uiso   1.00
H807   H     0.70416   0.42793   0.73548   0.00000  Uiso   1.00
H808   H     0.96250   0.57207   0.76452   0.00000  Uiso   1.00
H809   H     0.96247   0.42792   0.73558   0.00000  Uiso   1.00
H810   H     0.70420   0.57208   0.76442   0.00000  Uiso   1.00
C811   C     0.08661   0.83334   0.74997   0.00000  Uiso   1.00
C812   C     0.24672   0.83333   0.75003   0.00000  Uiso   1.00
C813   C     0.16663   0.83333   0.66390   0.00000  Uiso   1.00
C814   C     0.16669   0.83333   0.83610   0.00000  Uiso   1.00
C815   C     0.19296   0.69065   0.77725   0.00000  Uiso   1.00
C816   C     0.14037   0.97602   0.72275   0.00000  Uiso   1.00
C817   C     0.14038   0.69067   0.72275   0.00000  Uiso   1.00
C818   C     0.19296   0.97600   0.77725   0.00000  Uiso   1.00
C819   C     0.02129   0.79279   0.74199   0.00000  Uiso   1.00
C820   C     0.31204   0.87388   0.75801   0.00000  Uiso   1.00
C821   C     0.31203   0.79278   0.74204   0.00000  Uiso   1.00
C822   C     0.02131   0.87389   0.75796   0.00000  Uiso   1.00
C823   C     0.18104   0.87140   0.54706   0.00000  Uiso   1.00
C824   C     0.18110   0.79521   0.95300   0.00000  Uiso   1.00
C825   C     0.15200   0.87139   0.95290   0.00000  Uiso   1.00
C826   C     0.15196   0.79523   0.54704   0.00000  Uiso   1.00
C827   C     0.18084   0.87153   0.59305   0.00000  Uiso   1.00
C828   C     0.18094   0.79512   0.90701   0.00000  Uiso   1.00
C829   C     0.15231   0.87152   0.90692   0.00000  Uiso   1.00
C830   C     0.15222   0.79513   0.59303   0.00000  Uiso   1.00
C831   C     0.16656   0.83333   0.61601   0.00000  Uiso   1.00
C832   C     0.16666   0.83333   0.88399   0.00000  Uiso   1.00
C833   C     0.16650   0.83331   0.52405   0.00000  Uiso   1.00
C834   C     0.16652   0.83329   0.97595   0.00000  Uiso   1.00
C835   C     0.29086   0.83333   0.75004   0.00000  Uiso   1.00
C836   C     0.04247   0.83334   0.74996   0.00000  Uiso   1.00
H837   H     0.21396   0.70886   0.79904   0.00000  Uiso   1.00
H838   H     0.11937   0.95782   0.70098   0.00000  Uiso   1.00
H839   H     0.11937   0.70888   0.70097   0.00000  Uiso   1.00
H840   H     0.21397   0.95779   0.79902   0.00000  Uiso   1.00
H841   H     0.19289   0.90075   0.52948   0.00000  Uiso   1.00
H842   H     0.19293   0.76586   0.97063   0.00000  Uiso   1.00
H843   H     0.14013   0.90074   0.97045   0.00000  Uiso   1.00
H844   H     0.14010   0.76588   0.52943   0.00000  Uiso   1.00
N845   N     0.16667   0.95240   0.75000   0.00000  Uiso   1.00
N846   N     0.16667   0.71427   0.75000   0.00000  Uiso   1.00
O847   O     0.10559   0.87154   0.74999   0.00000  Uiso   1.00
O848   O     0.22774   0.79513   0.75000   0.00000  Uiso   1.00
O849   O     0.22774   0.87154   0.75000   0.00000  Uiso   1.00
O850   O     0.10559   0.79513   0.74999   0.00000  Uiso   1.00
O851   O     0.16666   0.87155   0.68453   0.00000  Uiso   1.00
O852   O     0.16667   0.79511   0.81547   0.00000  Uiso   1.00
O853   O     0.16667   0.87155   0.81547   0.00000  Uiso   1.00
O854   O     0.16666   0.79511   0.68453   0.00000  Uiso   1.00
Zn855  Zn    0.16667   0.88437   0.75000   0.00000  Uiso   1.00
Zn856  Zn    0.16667   0.78229   0.75000   0.00000  Uiso   1.00
H857   H     0.19234   0.90110   0.61058   0.00000  Uiso   1.00
H858   H     0.19246   0.76555   0.88952   0.00000  Uiso   1.00
H859   H     0.14084   0.90109   0.88936   0.00000  Uiso   1.00
H860   H     0.14074   0.76557   0.61055   0.00000  Uiso   1.00
H861   H     0.03750   0.76127   0.73548   0.00000  Uiso   1.00
H862   H     0.29584   0.90540   0.76452   0.00000  Uiso   1.00
H863   H     0.29580   0.76125   0.73558   0.00000  Uiso   1.00
H864   H     0.03753   0.90542   0.76442   0.00000  Uiso   1.00
C865   C     0.41995   0.83334   0.74997   0.00000  Uiso   1.00
C866   C     0.58005   0.83333   0.75003   0.00000  Uiso   1.00
C867   C     0.49996   0.83333   0.66390   0.00000  Uiso   1.00
C868   C     0.50002   0.83333   0.83610   0.00000  Uiso   1.00
C869   C     0.52629   0.69065   0.77725   0.00000  Uiso   1.00
C870   C     0.47371   0.97602   0.72275   0.00000  Uiso   1.00
C871   C     0.47371   0.69067   0.72275   0.00000  Uiso   1.00
C872   C     0.52629   0.97600   0.77725   0.00000  Uiso   1.00
C873   C     0.35462   0.79279   0.74199   0.00000  Uiso   1.00
C874   C     0.64538   0.87388   0.75801   0.00000  Uiso   1.00
C875   C     0.64536   0.79278   0.74204   0.00000  Uiso   1.00
C876   C     0.35464   0.87389   0.75796   0.00000  Uiso   1.00
C877   C     0.51438   0.87140   0.54706   0.00000  Uiso   1.00
C878   C     0.51443   0.79521   0.95300   0.00000  Uiso   1.00
C879   C     0.48534   0.87139   0.95290   0.00000  Uiso   1.00
C880   C     0.48529   0.79523   0.54704   0.00000  Uiso   1.00
C881   C     0.51417   0.87153   0.59305   0.00000  Uiso   1.00
C882   C     0.51427   0.79512   0.90701   0.00000  Uiso   1.00
C883   C     0.48564   0.87152   0.90692   0.00000  Uiso   1.00
C884   C     0.48555   0.79513   0.59303   0.00000  Uiso   1.00
C885   C     0.49989   0.83333   0.61601   0.00000  Uiso   1.00
C886   C     0.49999   0.83333   0.88399   0.00000  Uiso   1.00
C887   C     0.49983   0.83331   0.52405   0.00000  Uiso   1.00
C888   C     0.49985   0.83329   0.97595   0.00000  Uiso   1.00
C889   C     0.62420   0.83333   0.75004   0.00000  Uiso   1.00
C890   C     0.37580   0.83334   0.74996   0.00000  Uiso   1.00
H891   H     0.54729   0.70886   0.79904   0.00000  Uiso   1.00
H892   H     0.45270   0.95782   0.70098   0.00000  Uiso   1.00
H893   H     0.45270   0.70888   0.70097   0.00000  Uiso   1.00
H894   H     0.54731   0.95779   0.79902   0.00000  Uiso   1.00
H895   H     0.52622   0.90075   0.52948   0.00000  Uiso   1.00
H896   H     0.52626   0.76586   0.97063   0.00000  Uiso   1.00
H897   H     0.47346   0.90074   0.97045   0.00000  Uiso   1.00
H898   H     0.47344   0.76588   0.52943   0.00000  Uiso   1.00
N899   N     0.50000   0.95240   0.75000   0.00000  Uiso   1.00
N900   N     0.50000   0.71427   0.75000   0.00000  Uiso   1.00
O901   O     0.43892   0.87154   0.74999   0.00000  Uiso   1.00
O902   O     0.56108   0.79513   0.75000   0.00000  Uiso   1.00
O903   O     0.56108   0.87154   0.75000   0.00000  Uiso   1.00
O904   O     0.43892   0.79513   0.74999   0.00000  Uiso   1.00
O905   O     0.50000   0.87155   0.68453   0.00000  Uiso   1.00
O906   O     0.50000   0.79511   0.81547   0.00000  Uiso   1.00
O907   O     0.50000   0.87155   0.81547   0.00000  Uiso   1.00
O908   O     0.50000   0.79511   0.68453   0.00000  Uiso   1.00
Zn909  Zn    0.50000   0.88437   0.75000   0.00000  Uiso   1.00
Zn910  Zn    0.50000   0.78229   0.75000   0.00000  Uiso   1.00
H911   H     0.52567   0.90110   0.61058   0.00000  Uiso   1.00
H912   H     0.52579   0.76555   0.88952   0.00000  Uiso   1.00
H913   H     0.47418   0.90109   0.88936   0.00000  Uiso   1.00
H914   H     0.47407   0.76557   0.61055   0.00000  Uiso   1.00
H915   H     0.37083   0.76127   0.73548   0.00000  Uiso   1.00
H916   H     0.62917   0.90540   0.76452   0.00000  Uiso   1.00
H917   H     0.62914   0.76125   0.73558   0.00000  Uiso   1.00
H918   H     0.37086   0.90542   0.76442   0.00000  Uiso   1.00
C919   C     0.75328   0.83334   0.74997   0.00000  Uiso   1.00
C920   C     0.91339   0.83333   0.75003   0.00000  Uiso   1.00
C921   C     0.83330   0.83333   0.66390   0.00000  Uiso   1.00
C922   C     0.83336   0.83333   0.83610   0.00000  Uiso   1.00
C923   C     0.85962   0.69065   0.77725   0.00000  Uiso   1.00
C924   C     0.80704   0.97602   0.72275   0.00000  Uiso   1.00
C925   C     0.80704   0.69067   0.72275   0.00000  Uiso   1.00
C926   C     0.85963   0.97600   0.77725   0.00000  Uiso   1.00
C927   C     0.68796   0.79279   0.74199   0.00000  Uiso   1.00
C928   C     0.97871   0.87388   0.75801   0.00000  Uiso   1.00
C929   C     0.97869   0.79278   0.74204   0.00000  Uiso   1.00
C930   C     0.68797   0.87389   0.75796   0.00000  Uiso   1.00
C931   C     0.84771   0.87140   0.54706   0.00000  Uiso   1.00
C932   C     0.84776   0.79521   0.95300   0.00000  Uiso   1.00
C933   C     0.81867   0.87139   0.95290   0.00000  Uiso   1.00
C934   C     0.81863   0.79523   0.54704   0.00000  Uiso   1.00
C935   C     0.84751   0.87153   0.59305   0.00000  Uiso   1.00
C936   C     0.84761   0.79512   0.90701   0.00000  Uiso   1.00
C937   C     0.81898   0.87152   0.90692   0.00000  Uiso   1.00
C938   C     0.81889   0.79513   0.59303   0.00000  Uiso   1.00
C939   C     0.83323   0.83333   0.61601   0.00000  Uiso   1.00
C940   C     0.83333   0.83333   0.88399   0.00000  Uiso   1.00
C941   C     0.83316   0.83331   0.52405   0.00000  Uiso   1.00
C942   C     0.83318   0.83329   0.97595   0.00000  Uiso   1.00
C943   C     0.95753   0.83333   0.75004   0.00000  Uiso   1.00
C944   C     0.70914   0.83334   0.74996   0.00000  Uiso   1.00
H945   H     0.88062   0.70886   0.79904   0.00000  Uiso   1.00
H946   H     0.78603   0.95782   0.70098   0.00000  Uiso   1.00
H947   H     0.78604   0.70888   0.70097   0.00000  Uiso   1.00
H948   H     0.88064   0.95779   0.79902   0.00000  Uiso   1.00
H949   H     0.85956   0.90075   0.52948   0.00000  Uiso   1.00
H950   H     0.85960   0.76586   0.97063   0.00000  Uiso   1.00
H951   H     0.80679   0.90074   0.97045   0.00000  Uiso   1.00
H952   H     0.80677   0.76588   0.52943   0.00000  Uiso   1.00
N953   N     0.83333   0.95240   0.75000   0.00000  Uiso   1.00
N954   N     0.83333   0.71427   0.75000   0.00000  Uiso   1.00
O955   O     0.77226   0.87154   0.74999   0.00000  Uiso   1.00
O956   O     0.89441   0.79513   0.75000   0.00000  Uiso   1.00
O957   O     0.89441   0.87154   0.75000   0.00000  Uiso   1.00
O958   O     0.77226   0.79513   0.74999   0.00000  Uiso   1.00
O959   O     0.83333   0.87155   0.68453   0.00000  Uiso   1.00
O960   O     0.83334   0.79511   0.81547   0.00000  Uiso   1.00
O961   O     0.83334   0.87155   0.81547   0.00000  Uiso   1.00
O962   O     0.83333   0.79511   0.68453   0.00000  Uiso   1.00
Zn963  Zn    0.83333   0.88437   0.75000   0.00000  Uiso   1.00
Zn964  Zn    0.83333   0.78229   0.75000   0.00000  Uiso   1.00
H965   H     0.85901   0.90110   0.61058   0.00000  Uiso   1.00
H966   H     0.85913   0.76555   0.88952   0.00000  Uiso   1.00
H967   H     0.80751   0.90109   0.88936   0.00000  Uiso   1.00
H968   H     0.80741   0.76557   0.61055   0.00000  Uiso   1.00
H969   H     0.70416   0.76127   0.73548   0.00000  Uiso   1.00
H970   H     0.96250   0.90540   0.76452   0.00000  Uiso   1.00
H971   H     0.96247   0.76125   0.73558   0.00000  Uiso   1.00
H972   H     0.70420   0.90542   0.76442   0.00000  Uiso   1.00
loop_
_geom_bond_atom_site_label_1
_geom_bond_atom_site_label_2
_geom_bond_distance
_geom_bond_site_symmetry_2
_ccdc_geom_bond_type
C1     C26     1.420   .     S
C1     O40     1.282   .     A
C1     O37     1.282   .     A
C2     C25     1.420   .     S
C2     O38     1.282   .     A
C2     O39     1.282   .     A
C3     O44     1.286   .     A
C3     C21     1.437   .     S
C3     O41     1.286   .     A
C4     O43     1.286   .     A
C4     C22     1.437   .     S
C4     O42     1.286   .     A
C5     N36     1.366   .     A
C5     H27     1.082   .     S
C5     C332    1.416   1_545 S
C6     N35     1.366   .     A
C6     H28     1.082   .     S
C6     C169    1.416   .     S
C7     H29     1.082   .     S
C7     N36     1.366   .     A
C7     C330    1.416   1_545 S
C8     H30     1.082   .     S
C8     N35     1.366   .     A
C8     C167    1.416   .     S
C9     C26     1.397   .     A
C9     H51     1.084   .     S
C9     C119    1.370   1_455 S
C10    H52     1.084   .     S
C10    C25     1.397   .     A
C10    C66     1.370   .     S
C11    H53     1.084   .     S
C11    C25     1.397   .     A
C11    C63     1.370   .     S
C12    H54     1.084   .     S
C12    C26     1.397   .     A
C12    C118    1.370   1_455 S
C13    C17     1.380   .     A
C13    C23     1.399   .     A
C13    H31     1.083   .     S
C14    C18     1.381   .     A
C14    H32     1.083   .     S
C14    C24     1.399   .     A
C15    C19     1.380   .     A
C15    C24     1.399   .     A
C15    H33     1.083   .     S
C16    C23     1.399   .     A
C16    C20     1.381   .     A
C16    H34     1.083   .     S
C17    C21     1.399   .     A
C17    H47     1.084   .     S
C18    H48     1.084   .     S
C18    C22     1.399   .     A
C19    C22     1.399   .     A
C19    H49     1.084   .     S
C20    C21     1.399   .     A
C20    H50     1.084   .     S
C23    C510    1.444   1_554 S
C24    C509    1.444   .     S
N35    Zn45    2.007   .     S
N36    Zn46    2.007   .     S
O37    Zn45    2.000   .     S
O38    Zn46    2.000   .     S
O39    Zn45    2.000   .     S
O40    Zn46    2.000   .     S
O41    Zn45    2.001   .     S
O42    Zn46    2.001   .     S
O43    Zn45    2.001   .     S
O44    Zn46    2.001   .     S
C55    C80     1.420   .     S
C55    O94     1.282   .     A
C55    O91     1.282   .     A
C56    C79     1.420   .     S
C56    O92     1.282   .     A
C56    O93     1.282   .     A
C57    O98     1.286   .     A
C57    C75     1.437   .     S
C57    O95     1.286   .     A
C58    O97     1.286   .     A
C58    C76     1.437   .     S
C58    O96     1.286   .     A
C59    N90     1.366   .     A
C59    H81     1.082   .     S
C59    C386    1.416   1_545 S
C60    N89     1.366   .     A
C60    H82     1.082   .     S
C60    C223    1.416   .     S
C61    H83     1.082   .     S
C61    N90     1.366   .     A
C61    C384    1.416   1_545 S
C62    H84     1.082   .     S
C62    N89     1.366   .     A
C62    C221    1.416   .     S
C63    C80     1.397   .     A
C63    H105    1.084   .     S
C64    H106    1.084   .     S
C64    C79     1.397   .     A
C64    C120    1.370   .     S
C65    H107    1.084   .     S
C65    C79     1.397   .     A
C65    C117    1.370   .     S
C66    H108    1.084   .     S
C66    C80     1.397   .     A
C67    C71     1.380   .     A
C67    C77     1.399   .     A
C67    H85     1.083   .     S
C68    C72     1.381   .     A
C68    H86     1.083   .     S
C68    C78     1.399   .     A
C69    C73     1.380   .     A
C69    C78     1.399   .     A
C69    H87     1.083   .     S
C70    C77     1.399   .     A
C70    C74     1.381   .     A
C70    H88     1.083   .     S
C71    C75     1.399   .     A
C71    H101    1.084   .     S
C72    H102    1.084   .     S
C72    C76     1.399   .     A
C73    C76     1.399   .     A
C73    H103    1.084   .     S
C74    C75     1.399   .     A
C74    H104    1.084   .     S
C77    C564    1.444   1_554 S
C78    C563    1.444   .     S
N89    Zn99    2.007   .     S
N90    Zn100   2.007   .     S
O91    Zn99    2.000   .     S
O92    Zn100   2.000   .     S
O93    Zn99    2.000   .     S
O94    Zn100   2.000   .     S
O95    Zn99    2.001   .     S
O96    Zn100   2.001   .     S
O97    Zn99    2.001   .     S
O98    Zn100   2.001   .     S
C109   C134    1.420   .     S
C109   O148    1.282   .     A
C109   O145    1.282   .     A
C110   C133    1.420   .     S
C110   O146    1.282   .     A
C110   O147    1.282   .     A
C111   O152    1.286   .     A
C111   C129    1.437   .     S
C111   O149    1.286   .     A
C112   O151    1.286   .     A
C112   C130    1.437   .     S
C112   O150    1.286   .     A
C113   N144    1.366   .     A
C113   H135    1.082   .     S
C113   C440    1.416   1_545 S
C114   N143    1.366   .     A
C114   H136    1.082   .     S
C114   C277    1.416   .     S
C115   H137    1.082   .     S
C115   N144    1.366   .     A
C115   C438    1.416   1_545 S
C116   H138    1.082   .     S
C116   N143    1.366   .     A
C116   C275    1.416   .     S
C117   C134    1.397   .     A
C117   H159    1.084   .     S
C118   H160    1.084   .     S
C118   C133    1.397   .     A
C118   C12     1.370   1_655 S
C119   H161    1.084   .     S
C119   C133    1.397   .     A
C119   C9      1.370   1_655 S
C120   H162    1.084   .     S
C120   C134    1.397   .     A
C121   C125    1.380   .     A
C121   C131    1.399   .     A
C121   H139    1.083   .     S
C122   C126    1.381   .     A
C122   H140    1.083   .     S
C122   C132    1.399   .     A
C123   C127    1.380   .     A
C123   C132    1.399   .     A
C123   H141    1.083   .     S
C124   C131    1.399   .     A
C124   C128    1.381   .     A
C124   H142    1.083   .     S
C125   C129    1.399   .     A
C125   H155    1.084   .     S
C126   H156    1.084   .     S
C126   C130    1.399   .     A
C127   C130    1.399   .     A
C127   H157    1.084   .     S
C128   C129    1.399   .     A
C128   H158    1.084   .     S
C131   C618    1.444   1_554 S
C132   C617    1.444   .     S
N143   Zn153   2.007   .     S
N144   Zn154   2.007   .     S
O145   Zn153   2.000   .     S
O146   Zn154   2.000   .     S
O147   Zn153   2.000   .     S
O148   Zn154   2.000   .     S
O149   Zn153   2.001   .     S
O150   Zn154   2.001   .     S
O151   Zn153   2.001   .     S
O152   Zn154   2.001   .     S
C163   C188    1.420   .     S
C163   O202    1.282   .     A
C163   O199    1.282   .     A
C164   C187    1.420   .     S
C164   O200    1.282   .     A
C164   O201    1.282   .     A
C165   O206    1.286   .     A
C165   C183    1.437   .     S
C165   O203    1.286   .     A
C166   O205    1.286   .     A
C166   C184    1.437   .     S
C166   O204    1.286   .     A
C167   N198    1.366   .     A
C167   H189    1.082   .     S
C168   N197    1.366   .     A
C168   H190    1.082   .     S
C168   C331    1.416   .     S
C169   H191    1.082   .     S
C169   N198    1.366   .     A
C170   H192    1.082   .     S
C170   N197    1.366   .     A
C170   C329    1.416   .     S
C171   C188    1.397   .     A
C171   H213    1.084   .     S
C171   C281    1.370   1_455 S
C172   H214    1.084   .     S
C172   C187    1.397   .     A
C172   C228    1.370   .     S
C173   H215    1.084   .     S
C173   C187    1.397   .     A
C173   C225    1.370   .     S
C174   H216    1.084   .     S
C174   C188    1.397   .     A
C174   C280    1.370   1_455 S
C175   C179    1.380   .     A
C175   C185    1.399   .     A
C175   H193    1.083   .     S
C176   C180    1.381   .     A
C176   H194    1.083   .     S
C176   C186    1.399   .     A
C177   C181    1.380   .     A
C177   C186    1.399   .     A
C177   H195    1.083   .     S
C178   C185    1.399   .     A
C178   C182    1.381   .     A
C178   H196    1.083   .     S
C179   C183    1.399   .     A
C179   H209    1.084   .     S
C180   H210    1.084   .     S
C180   C184    1.399   .     A
C181   C184    1.399   .     A
C181   H211    1.084   .     S
C182   C183    1.399   .     A
C182   H212    1.084   .     S
C185   C672    1.444   1_554 S
C186   C671    1.444   .     S
N197   Zn207   2.007   .     S
N198   Zn208   2.007   .     S
O199   Zn207   2.000   .     S
O200   Zn208   2.000   .     S
O201   Zn207   2.000   .     S
O202   Zn208   2.000   .     S
O203   Zn207   2.001   .     S
O204   Zn208   2.001   .     S
O205   Zn207   2.001   .     S
O206   Zn208   2.001   .     S
C217   C242    1.420   .     S
C217   O256    1.282   .     A
C217   O253    1.282   .     A
C218   C241    1.420   .     S
C218   O254    1.282   .     A
C218   O255    1.282   .     A
C219   O260    1.286   .     A
C219   C237    1.437   .     S
C219   O257    1.286   .     A
C220   O259    1.286   .     A
C220   C238    1.437   .     S
C220   O258    1.286   .     A
C221   N252    1.366   .     A
C221   H243    1.082   .     S
C222   N251    1.366   .     A
C222   H244    1.082   .     S
C222   C385    1.416   .     S
C223   H245    1.082   .     S
C223   N252    1.366   .     A
C224   H246    1.082   .     S
C224   N251    1.366   .     A
C224   C383    1.416   .     S
C225   C242    1.397   .     A
C225   H267    1.084   .     S
C226   H268    1.084   .     S
C226   C241    1.397   .     A
C226   C282    1.370   .     S
C227   H269    1.084   .     S
C227   C241    1.397   .     A
C227   C279    1.370   .     S
C228   H270    1.084   .     S
C228   C242    1.397   .     A
C229   C233    1.380   .     A
C229   C239    1.399   .     A
C229   H247    1.083   .     S
C230   C234    1.381   .     A
C230   H248    1.083   .     S
C230   C240    1.399   .     A
C231   C235    1.380   .     A
C231   C240    1.399   .     A
C231   H249    1.083   .     S
C232   C239    1.399   .     A
C232   C236    1.381   .     A
C232   H250    1.083   .     S
C233   C237    1.399   .     A
C233   H263    1.084   .     S
C234   H264    1.084   .     S
C234   C238    1.399   .     A
C235   C238    1.399   .     A
C235   H265    1.084   .     S
C236   C237    1.399   .     A
C236   H266    1.084   .     S
C239   C726    1.444   1_554 S
C240   C725    1.444   .     S
N251   Zn261   2.007   .     S
N252   Zn262   2.007   .     S
O253   Zn261   2.000   .     S
O254   Zn262   2.000   .     S
O255   Zn261   2.000   .     S
O256   Zn262   2.000   .     S
O257   Zn261   2.001   .     S
O258   Zn262   2.001   .     S
O259   Zn261   2.001   .     S
O260   Zn262   2.001   .     S
C271   C296    1.420   .     S
C271   O310    1.282   .     A
C271   O307    1.282   .     A
C272   C295    1.420   .     S
C272   O308    1.282   .     A
C272   O309    1.282   .     A
C273   O314    1.286   .     A
C273   C291    1.437   .     S
C273   O311    1.286   .     A
C274   O313    1.286   .     A
C274   C292    1.437   .     S
C274   O312    1.286   .     A
C275   N306    1.366   .     A
C275   H297    1.082   .     S
C276   N305    1.366   .     A
C276   H298    1.082   .     S
C276   C439    1.416   .     S
C277   H299    1.082   .     S
C277   N306    1.366   .     A
C278   H300    1.082   .     S
C278   N305    1.366   .     A
C278   C437    1.416   .     S
C279   C296    1.397   .     A
C279   H321    1.084   .     S
C280   H322    1.084   .     S
C280   C295    1.397   .     A
C280   C174    1.370   1_655 S
C281   H323    1.084   .     S
C281   C295    1.397   .     A
C281   C171    1.370   1_655 S
C282   H324    1.084   .     S
C282   C296    1.397   .     A
C283   C287    1.380   .     A
C283   C293    1.399   .     A
C283   H301    1.083   .     S
C284   C288    1.381   .     A
C284   H302    1.083   .     S
C284   C294    1.399   .     A
C285   C289    1.380   .     A
C285   C294    1.399   .     A
C285   H303    1.083   .     S
C286   C293    1.399   .     A
C286   C290    1.381   .     A
C286   H304    1.083   .     S
C287   C291    1.399   .     A
C287   H317    1.084   .     S
C288   H318    1.084   .     S
C288   C292    1.399   .     A
C289   C292    1.399   .     A
C289   H319    1.084   .     S
C290   C291    1.399   .     A
C290   H320    1.084   .     S
C293   C780    1.444   1_554 S
C294   C779    1.444   .     S
N305   Zn315   2.007   .     S
N306   Zn316   2.007   .     S
O307   Zn315   2.000   .     S
O308   Zn316   2.000   .     S
O309   Zn315   2.000   .     S
O310   Zn316   2.000   .     S
O311   Zn315   2.001   .     S
O312   Zn316   2.001   .     S
O313   Zn315   2.001   .     S
O314   Zn316   2.001   .     S
C325   C350    1.420   .     S
C325   O364    1.282   .     A
C325   O361    1.282   .     A
C326   C349    1.420   .     S
C326   O362    1.282   .     A
C326   O363    1.282   .     A
C327   O368    1.286   .     A
C327   C345    1.437   .     S
C327   O365    1.286   .     A
C328   O367    1.286   .     A
C328   C346    1.437   .     S
C328   O366    1.286   .     A
C329   N360    1.366   .     A
C329   H351    1.082   .     S
C330   N359    1.366   .     A
C330   H352    1.082   .     S
C330   C7      1.416   1_565 S
C331   H353    1.082   .     S
C331   N360    1.366   .     A
C332   H354    1.082   .     S
C332   N359    1.366   .     A
C332   C5      1.416   1_565 S
C333   C350    1.397   .     A
C333   H375    1.084   .     S
C333   C443    1.370   1_455 S
C334   H376    1.084   .     S
C334   C349    1.397   .     A
C334   C390    1.370   .     S
C335   H377    1.084   .     S
C335   C349    1.397   .     A
C335   C387    1.370   .     S
C336   H378    1.084   .     S
C336   C350    1.397   .     A
C336   C442    1.370   1_455 S
C337   C341    1.380   .     A
C337   C347    1.399   .     A
C337   H355    1.083   .     S
C338   C342    1.381   .     A
C338   H356    1.083   .     S
C338   C348    1.399   .     A
C339   C343    1.380   .     A
C339   C348    1.399   .     A
C339   H357    1.083   .     S
C340   C347    1.399   .     A
C340   C344    1.381   .     A
C340   H358    1.083   .     S
C341   C345    1.399   .     A
C341   H371    1.084   .     S
C342   H372    1.084   .     S
C342   C346    1.399   .     A
C343   C346    1.399   .     A
C343   H373    1.084   .     S
C344   C345    1.399   .     A
C344   H374    1.084   .     S
C347   C834    1.444   1_554 S
C348   C833    1.444   .     S
N359   Zn369   2.007   .     S
N360   Zn370   2.007   .     S
O361   Zn369   2.000   .     S
O362   Zn370   2.000   .     S
O363   Zn369   2.000   .     S
O364   Zn370   2.000   .     S
O365   Zn369   2.001   .     S
O366   Zn370   2.001   .     S
O367   Zn369   2.001   .     S
O368   Zn370   2.001   .     S
C379   C404    1.420   .     S
C379   O418    1.282   .     A
C379   O415    1.282   .     A
C380   C403    1.420   .     S
C380   O416    1.282   .     A
C380   O417    1.282   .     A
C381   O422    1.286   .     A
C381   C399    1.437   .     S
C381   O419    1.286   .     A
C382   O421    1.286   .     A
C382   C400    1.437   .     S
C382   O420    1.286   .     A
C383   N414    1.366   .     A
C383   H405    1.082   .     S
C384   N413    1.366   .     A
C384   H406    1.082   .     S
C384   C61     1.416   1_565 S
C385   H407    1.082   .     S
C385   N414    1.366   .     A
C386   H408    1.082   .     S
C386   N413    1.366   .     A
C386   C59     1.416   1_565 S
C387   C404    1.397   .     A
C387   H429    1.084   .     S
C388   H430    1.084   .     S
C388   C403    1.397   .     A
C388   C444    1.370   .     S
C389   H431    1.084   .     S
C389   C403    1.397   .     A
C389   C441    1.370   .     S
C390   H432    1.084   .     S
C390   C404    1.397   .     A
C391   C395    1.380   .     A
C391   C401    1.399   .     A
C391   H409    1.083   .     S
C392   C396    1.381   .     A
C392   H410    1.083   .     S
C392   C402    1.399   .     A
C393   C397    1.380   .     A
C393   C402    1.399   .     A
C393   H411    1.083   .     S
C394   C401    1.399   .     A
C394   C398    1.381   .     A
C394   H412    1.083   .     S
C395   C399    1.399   .     A
C395   H425    1.084   .     S
C396   H426    1.084   .     S
C396   C400    1.399   .     A
C397   C400    1.399   .     A
C397   H427    1.084   .     S
C398   C399    1.399   .     A
C398   H428    1.084   .     S
C401   C888    1.444   1_554 S
C402   C887    1.444   .     S
N413   Zn423   2.007   .     S
N414   Zn424   2.007   .     S
O415   Zn423   2.000   .     S
O416   Zn424   2.000   .     S
O417   Zn423   2.000   .     S
O418   Zn424   2.000   .     S
O419   Zn423   2.001   .     S
O420   Zn424   2.001   .     S
O421   Zn423   2.001   .     S
O422   Zn424   2.001   .     S
C433   C458    1.420   .     S
C433   O472    1.282   .     A
C433   O469    1.282   .     A
C434   C457    1.420   .     S
C434   O470    1.282   .     A
C434   O471    1.282   .     A
C435   O476    1.286   .     A
C435   C453    1.437   .     S
C435   O473    1.286   .     A
C436   O475    1.286   .     A
C436   C454    1.437   .     S
C436   O474    1.286   .     A
C437   N468    1.366   .     A
C437   H459    1.082   .     S
C438   N467    1.366   .     A
C438   H460    1.082   .     S
C438   C115    1.416   1_565 S
C439   H461    1.082   .     S
C439   N468    1.366   .     A
C440   H462    1.082   .     S
C440   N467    1.366   .     A
C440   C113    1.416   1_565 S
C441   C458    1.397   .     A
C441   H483    1.084   .     S
C442   H484    1.084   .     S
C442   C457    1.397   .     A
C442   C336    1.370   1_655 S
C443   H485    1.084   .     S
C443   C457    1.397   .     A
C443   C333    1.370   1_655 S
C444   H486    1.084   .     S
C444   C458    1.397   .     A
C445   C449    1.380   .     A
C445   C455    1.399   .     A
C445   H463    1.083   .     S
C446   C450    1.381   .     A
C446   H464    1.083   .     S
C446   C456    1.399   .     A
C447   C451    1.380   .     A
C447   C456    1.399   .     A
C447   H465    1.083   .     S
C448   C455    1.399   .     A
C448   C452    1.381   .     A
C448   H466    1.083   .     S
C449   C453    1.399   .     A
C449   H479    1.084   .     S
C450   H480    1.084   .     S
C450   C454    1.399   .     A
C451   C454    1.399   .     A
C451   H481    1.084   .     S
C452   C453    1.399   .     A
C452   H482    1.084   .     S
C455   C942    1.444   1_554 S
C456   C941    1.444   .     S
N467   Zn477   2.007   .     S
N468   Zn478   2.007   .     S
O469   Zn477   2.000   .     S
O470   Zn478   2.000   .     S
O471   Zn477   2.000   .     S
O472   Zn478   2.000   .     S
O473   Zn477   2.001   .     S
O474   Zn478   2.001   .     S
O475   Zn477   2.001   .     S
O476   Zn478   2.001   .     S
C487   C512    1.420   .     S
C487   O526    1.282   .     A
C487   O523    1.282   .     A
C488   C511    1.420   .     S
C488   O524    1.282   .     A
C488   O525    1.282   .     A
C489   O530    1.286   .     A
C489   C507    1.437   .     S
C489   O527    1.286   .     A
C490   O529    1.286   .     A
C490   C508    1.437   .     S
C490   O528    1.286   .     A
C491   N522    1.366   .     A
C491   H513    1.082   .     S
C491   C818    1.416   1_545 S
C492   N521    1.366   .     A
C492   H514    1.082   .     S
C492   C655    1.416   .     S
C493   H515    1.082   .     S
C493   N522    1.366   .     A
C493   C816    1.416   1_545 S
C494   H516    1.082   .     S
C494   N521    1.366   .     A
C494   C653    1.416   .     S
C495   C512    1.397   .     A
C495   H537    1.084   .     S
C495   C605    1.370   1_455 S
C496   H538    1.084   .     S
C496   C511    1.397   .     A
C496   C552    1.370   .     S
C497   H539    1.084   .     S
C497   C511    1.397   .     A
C497   C549    1.370   .     S
C498   H540    1.084   .     S
C498   C512    1.397   .     A
C498   C604    1.370   1_455 S
C499   C503    1.380   .     A
C499   C509    1.399   .     A
C499   H517    1.083   .     S
C500   C504    1.381   .     A
C500   H518    1.083   .     S
C500   C510    1.399   .     A
C501   C505    1.380   .     A
C501   C510    1.399   .     A
C501   H519    1.083   .     S
C502   C509    1.399   .     A
C502   C506    1.381   .     A
C502   H520    1.083   .     S
C503   C507    1.399   .     A
C503   H533    1.084   .     S
C504   H534    1.084   .     S
C504   C508    1.399   .     A
C505   C508    1.399   .     A
C505   H535    1.084   .     S
C506   C507    1.399   .     A
C506   H536    1.084   .     S
C510   C23     1.444   1_556 S
N521   Zn531   2.007   .     S
N522   Zn532   2.007   .     S
O523   Zn531   2.000   .     S
O524   Zn532   2.000   .     S
O525   Zn531   2.000   .     S
O526   Zn532   2.000   .     S
O527   Zn531   2.001   .     S
O528   Zn532   2.001   .     S
O529   Zn531   2.001   .     S
O530   Zn532   2.001   .     S
C541   C566    1.420   .     S
C541   O580    1.282   .     A
C541   O577    1.282   .     A
C542   C565    1.420   .     S
C542   O578    1.282   .     A
C542   O579    1.282   .     A
C543   O584    1.286   .     A
C543   C561    1.437   .     S
C543   O581    1.286   .     A
C544   O583    1.286   .     A
C544   C562    1.437   .     S
C544   O582    1.286   .     A
C545   N576    1.366   .     A
C545   H567    1.082   .     S
C545   C872    1.416   1_545 S
C546   N575    1.366   .     A
C546   H568    1.082   .     S
C546   C709    1.416   .     S
C547   H569    1.082   .     S
C547   N576    1.366   .     A
C547   C870    1.416   1_545 S
C548   H570    1.082   .     S
C548   N575    1.366   .     A
C548   C707    1.416   .     S
C549   C566    1.397   .     A
C549   H591    1.084   .     S
C550   H592    1.084   .     S
C550   C565    1.397   .     A
C550   C606    1.370   .     S
C551   H593    1.084   .     S
C551   C565    1.397   .     A
C551   C603    1.370   .     S
C552   H594    1.084   .     S
C552   C566    1.397   .     A
C553   C557    1.380   .     A
C553   C563    1.399   .     A
C553   H571    1.083   .     S
C554   C558    1.381   .     A
C554   H572    1.083   .     S
C554   C564    1.399   .     A
C555   C559    1.380   .     A
C555   C564    1.399   .     A
C555   H573    1.083   .     S
C556   C563    1.399   .     A
C556   C560    1.381   .     A
C556   H574    1.083   .     S
C557   C561    1.399   .     A
C557   H587    1.084   .     S
C558   H588    1.084   .     S
C558   C562    1.399   .     A
C559   C562    1.399   .     A
C559   H589    1.084   .     S
C560   C561    1.399   .     A
C560   H590    1.084   .     S
C564   C77     1.444   1_556 S
N575   Zn585   2.007   .     S
N576   Zn586   2.007   .     S
O577   Zn585   2.000   .     S
O578   Zn586   2.000   .     S
O579   Zn585   2.000   .     S
O580   Zn586   2.000   .     S
O581   Zn585   2.001   .     S
O582   Zn586   2.001   .     S
O583   Zn585   2.001   .     S
O584   Zn586   2.001   .     S
C595   C620    1.420   .     S
C595   O634    1.282   .     A
C595   O631    1.282   .     A
C596   C619    1.420   .     S
C596   O632    1.282   .     A
C596   O633    1.282   .     A
C597   O638    1.286   .     A
C597   C615    1.437   .     S
C597   O635    1.286   .     A
C598   O637    1.286   .     A
C598   C616    1.437   .     S
C598   O636    1.286   .     A
C599   N630    1.366   .     A
C599   H621    1.082   .     S
C599   C926    1.416   1_545 S
C600   N629    1.366   .     A
C600   H622    1.082   .     S
C600   C763    1.416   .     S
C601   H623    1.082   .     S
C601   N630    1.366   .     A
C601   C924    1.416   1_545 S
C602   H624    1.082   .     S
C602   N629    1.366   .     A
C602   C761    1.416   .     S
C603   C620    1.397   .     A
C603   H645    1.084   .     S
C604   H646    1.084   .     S
C604   C619    1.397   .     A
C604   C498    1.370   1_655 S
C605   H647    1.084   .     S
C605   C619    1.397   .     A
C605   C495    1.370   1_655 S
C606   H648    1.084   .     S
C606   C620    1.397   .     A
C607   C611    1.380   .     A
C607   C617    1.399   .     A
C607   H625    1.083   .     S
C608   C612    1.381   .     A
C608   H626    1.083   .     S
C608   C618    1.399   .     A
C609   C613    1.380   .     A
C609   C618    1.399   .     A
C609   H627    1.083   .     S
C610   C617    1.399   .     A
C610   C614    1.381   .     A
C610   H628    1.083   .     S
C611   C615    1.399   .     A
C611   H641    1.084   .     S
C612   H642    1.084   .     S
C612   C616    1.399   .     A
C613   C616    1.399   .     A
C613   H643    1.084   .     S
C614   C615    1.399   .     A
C614   H644    1.084   .     S
C618   C131    1.444   1_556 S
N629   Zn639   2.007   .     S
N630   Zn640   2.007   .     S
O631   Zn639   2.000   .     S
O632   Zn640   2.000   .     S
O633   Zn639   2.000   .     S
O634   Zn640   2.000   .     S
O635   Zn639   2.001   .     S
O636   Zn640   2.001   .     S
O637   Zn639   2.001   .     S
O638   Zn640   2.001   .     S
C649   C674    1.420   .     S
C649   O688    1.282   .     A
C649   O685    1.282   .     A
C650   C673    1.420   .     S
C650   O686    1.282   .     A
C650   O687    1.282   .     A
C651   O692    1.286   .     A
C651   C669    1.437   .     S
C651   O689    1.286   .     A
C652   O691    1.286   .     A
C652   C670    1.437   .     S
C652   O690    1.286   .     A
C653   N684    1.366   .     A
C653   H675    1.082   .     S
C654   N683    1.366   .     A
C654   H676    1.082   .     S
C654   C817    1.416   .     S
C655   H677    1.082   .     S
C655   N684    1.366   .     A
C656   H678    1.082   .     S
C656   N683    1.366   .     A
C656   C815    1.416   .     S
C657   C674    1.397   .     A
C657   H699    1.084   .     S
C657   C767    1.370   1_455 S
C658   H700    1.084   .     S
C658   C673    1.397   .     A
C658   C714    1.370   .     S
C659   H701    1.084   .     S
C659   C673    1.397   .     A
C659   C711    1.370   .     S
C660   H702    1.084   .     S
C660   C674    1.397   .     A
C660   C766    1.370   1_455 S
C661   C665    1.380   .     A
C661   C671    1.399   .     A
C661   H679    1.083   .     S
C662   C666    1.381   .     A
C662   H680    1.083   .     S
C662   C672    1.399   .     A
C663   C667    1.380   .     A
C663   C672    1.399   .     A
C663   H681    1.083   .     S
C664   C671    1.399   .     A
C664   C668    1.381   .     A
C664   H682    1.083   .     S
C665   C669    1.399   .     A
C665   H695    1.084   .     S
C666   H696    1.084   .     S
C666   C670    1.399   .     A
C667   C670    1.399   .     A
C667   H697    1.084   .     S
C668   C669    1.399   .     A
C668   H698    1.084   .     S
C672   C185    1.444   1_556 S
N683   Zn693   2.007   .     S
N684   Zn694   2.007   .     S
O685   Zn693   2.000   .     S
O686   Zn694   2.000   .     S
O687   Zn693   2.000   .     S
O688   Zn694   2.000   .     S
O689   Zn693   2.001   .     S
O690   Zn694   2.001   .     S
O691   Zn693   2.001   .     S
O692   Zn694   2.001   .     S
C703   C728    1.420   .     S
C703   O742    1.282   .     A
C703   O739    1.282   .     A
C704   C727    1.420   .     S
C704   O740    1.282   .     A
C704   O741    1.282   .     A
C705   O746    1.286   .     A
C705   C723    1.437   .     S
C705   O743    1.286   .     A
C706   O745    1.286   .     A
C706   C724    1.437   .     S
C706   O744    1.286   .     A
C707   N738    1.366   .     A
C707   H729    1.082   .     S
C708   N737    1.366   .     A
C708   H730    1.082   .     S
C708   C871    1.416   .     S
C709   H731    1.082   .     S
C709   N738    1.366   .     A
C710   H732    1.082   .     S
C710   N737    1.366   .     A
C710   C869    1.416   .     S
C711   C728    1.397   .     A
C711   H753    1.084   .     S
C712   H754    1.084   .     S
C712   C727    1.397   .     A
C712   C768    1.370   .     S
C713   H755    1.084   .     S
C713   C727    1.397   .     A
C713   C765    1.370   .     S
C714   H756    1.084   .     S
C714   C728    1.397   .     A
C715   C719    1.380   .     A
C715   C725    1.399   .     A
C715   H733    1.083   .     S
C716   C720    1.381   .     A
C716   H734    1.083   .     S
C716   C726    1.399   .     A
C717   C721    1.380   .     A
C717   C726    1.399   .     A
C717   H735    1.083   .     S
C718   C725    1.399   .     A
C718   C722    1.381   .     A
C718   H736    1.083   .     S
C719   C723    1.399   .     A
C719   H749    1.084   .     S
C720   H750    1.084   .     S
C720   C724    1.399   .     A
C721   C724    1.399   .     A
C721   H751    1.084   .     S
C722   C723    1.399   .     A
C722   H752    1.084   .     S
C726   C239    1.444   1_556 S
N737   Zn747   2.007   .     S
N738   Zn748   2.007   .     S
O739   Zn747   2.000   .     S
O740   Zn748   2.000   .     S
O741   Zn747   2.000   .     S
O742   Zn748   2.000   .     S
O743   Zn747   2.001   .     S
O744   Zn748   2.001   .     S
O745   Zn747   2.001   .     S
O746   Zn748   2.001   .     S
C757   C782    1.420   .     S
C757   O796    1.282   .     A
C757   O793    1.282   .     A
C758   C781    1.420   .     S
C758   O794    1.282   .     A
C758   O795    1.282   .     A
C759   O800    1.286   .     A
C759   C777    1.437   .     S
C759   O797    1.286   .     A
C760   O799    1.286   .     A
C760   C778    1.437   .     S
C760   O798    1.286   .     A
C761   N792    1.366   .     A
C761   H783    1.082   .     S
C762   N791    1.366   .     A
C762   H784    1.082   .     S
C762   C925    1.416   .     S
C763   H785    1.082   .     S
C763   N792    1.366   .     A
C764   H786    1.082   .     S
C764   N791    1.366   .     A
C764   C923    1.416   .     S
C765   C782    1.397   .     A
C765   H807    1.084   .     S
C766   H808    1.084   .     S
C766   C781    1.397   .     A
C766   C660    1.370   1_655 S
C767   H809    1.084   .     S
C767   C781    1.397   .     A
C767   C657    1.370   1_655 S
C768   H810    1.084   .     S
C768   C782    1.397   .     A
C769   C773    1.380   .     A
C769   C779    1.399   .     A
C769   H787    1.083   .     S
C770   C774    1.381   .     A
C770   H788    1.083   .     S
C770   C780    1.399   .     A
C771   C775    1.380   .     A
C771   C780    1.399   .     A
C771   H789    1.083   .     S
C772   C779    1.399   .     A
C772   C776    1.381   .     A
C772   H790    1.083   .     S
C773   C777    1.399   .     A
C773   H803    1.084   .     S
C774   H804    1.084   .     S
C774   C778    1.399   .     A
C775   C778    1.399   .     A
C775   H805    1.084   .     S
C776   C777    1.399   .     A
C776   H806    1.084   .     S
C780   C293    1.444   1_556 S
N791   Zn801   2.007   .     S
N792   Zn802   2.007   .     S
O793   Zn801   2.000   .     S
O794   Zn802   2.000   .     S
O795   Zn801   2.000   .     S
O796   Zn802   2.000   .     S
O797   Zn801   2.001   .     S
O798   Zn802   2.001   .     S
O799   Zn801   2.001   .     S
O800   Zn802   2.001   .     S
C811   C836    1.420   .     S
C811   O850    1.282   .     A
C811   O847    1.282   .     A
C812   C835    1.420   .     S
C812   O848    1.282   .     A
C812   O849    1.282   .     A
C813   O854    1.286   .     A
C813   C831    1.437   .     S
C813   O851    1.286   .     A
C814   O853    1.286   .     A
C814   C832    1.437   .     S
C814   O852    1.286   .     A
C815   N846    1.366   .     A
C815   H837    1.082   .     S
C816   N845    1.366   .     A
C816   H838    1.082   .     S
C816   C493    1.416   1_565 S
C817   H839    1.082   .     S
C817   N846    1.366   .     A
C818   H840    1.082   .     S
C818   N845    1.366   .     A
C818   C491    1.416   1_565 S
C819   C836    1.397   .     A
C819   H861    1.084   .     S
C819   C929    1.370   1_455 S
C820   H862    1.084   .     S
C820   C835    1.397   .     A
C820   C876    1.370   .     S
C821   H863    1.084   .     S
C821   C835    1.397   .     A
C821   C873    1.370   .     S
C822   H864    1.084   .     S
C822   C836    1.397   .     A
C822   C928    1.370   1_455 S
C823   C827    1.380   .     A
C823   C833    1.399   .     A
C823   H841    1.083   .     S
C824   C828    1.381   .     A
C824   H842    1.083   .     S
C824   C834    1.399   .     A
C825   C829    1.380   .     A
C825   C834    1.399   .     A
C825   H843    1.083   .     S
C826   C833    1.399   .     A
C826   C830    1.381   .     A
C826   H844    1.083   .     S
C827   C831    1.399   .     A
C827   H857    1.084   .     S
C828   H858    1.084   .     S
C828   C832    1.399   .     A
C829   C832    1.399   .     A
C829   H859    1.084   .     S
C830   C831    1.399   .     A
C830   H860    1.084   .     S
C834   C347    1.444   1_556 S
N845   Zn855   2.007   .     S
N846   Zn856   2.007   .     S
O847   Zn855   2.000   .     S
O848   Zn856   2.000   .     S
O849   Zn855   2.000   .     S
O850   Zn856   2.000   .     S
O851   Zn855   2.001   .     S
O852   Zn856   2.001   .     S
O853   Zn855   2.001   .     S
O854   Zn856   2.001   .     S
C865   C890    1.420   .     S
C865   O904    1.282   .     A
C865   O901    1.282   .     A
C866   C889    1.420   .     S
C866   O902    1.282   .     A
C866   O903    1.282   .     A
C867   O908    1.286   .     A
C867   C885    1.437   .     S
C867   O905    1.286   .     A
C868   O907    1.286   .     A
C868   C886    1.437   .     S
C868   O906    1.286   .     A
C869   N900    1.366   .     A
C869   H891    1.082   .     S
C870   N899    1.366   .     A
C870   H892    1.082   .     S
C870   C547    1.416   1_565 S
C871   H893    1.082   .     S
C871   N900    1.366   .     A
C872   H894    1.082   .     S
C872   N899    1.366   .     A
C872   C545    1.416   1_565 S
C873   C890    1.397   .     A
C873   H915    1.084   .     S
C874   H916    1.084   .     S
C874   C889    1.397   .     A
C874   C930    1.370   .     S
C875   H917    1.084   .     S
C875   C889    1.397   .     A
C875   C927    1.370   .     S
C876   H918    1.084   .     S
C876   C890    1.397   .     A
C877   C881    1.380   .     A
C877   C887    1.399   .     A
C877   H895    1.083   .     S
C878   C882    1.381   .     A
C878   H896    1.083   .     S
C878   C888    1.399   .     A
C879   C883    1.380   .     A
C879   C888    1.399   .     A
C879   H897    1.083   .     S
C880   C887    1.399   .     A
C880   C884    1.381   .     A
C880   H898    1.083   .     S
C881   C885    1.399   .     A
C881   H911    1.084   .     S
C882   H912    1.084   .     S
C882   C886    1.399   .     A
C883   C886    1.399   .     A
C883   H913    1.084   .     S
C884   C885    1.399   .     A
C884   H914    1.084   .     S
C888   C401    1.444   1_556 S
N899   Zn909   2.007   .     S
N900   Zn910   2.007   .     S
O901   Zn909   2.000   .     S
O902   Zn910   2.000   .     S
O903   Zn909   2.000   .     S
O904   Zn910   2.000   .     S
O905   Zn909   2.001   .     S
O906   Zn910   2.001   .     S
O907   Zn909   2.001   .     S
O908   Zn910   2.001   .     S
C919   C944    1.420   .     S
C919   O958    1.282   .     A
C919   O955    1.282   .     A
C920   C943    1.420   .     S
C920   O956    1.282   .     A
C920   O957    1.282   .     A
C921   O962    1.286   .     A
C921   C939    1.437   .     S
C921   O959    1.286   .     A
C922   O961    1.286   .     A
C922   C940    1.437   .     S
C922   O960    1.286   .     A
C923   N954    1.366   .     A
C923   H945    1.082   .     S
C924   N953    1.366   .     A
C924   H946    1.082   .     S
C924   C601    1.416   1_565 S
C925   H947    1.082   .     S
C925   N954    1.366   .     A
C926   H948    1.082   .     S
C926   N953    1.366   .     A
C926   C599    1.416   1_565 S
C927   C944    1.397   .     A
C927   H969    1.084   .     S
C928   H970    1.084   .     S
C928   C943    1.397   .     A
C928   C822    1.370   1_655 S
C929   H971    1.084   .     S
C929   C943    1.397   .     A
C929   C819    1.370   1_655 S
C930   H972    1.084   .     S
C930   C944    1.397   .     A
C931   C935    1.380   .     A
C931   C941    1.399   .     A
C931   H949    1.083   .     S
C932   C936    1.381   .     A
C932   H950    1.083   .     S
C932   C942    1.399   .     A
C933   C937    1.380   .     A
C933   C942    1.399   .     A
C933   H951    1.083   .     S
C934   C941    1.399   .     A
C934   C938    1.381   .     A
C934   H952    1.083   .     S
C935   C939    1.399   .     A
C935   H965    1.084   .     S
C936   H966    1.084   .     S
C936   C940    1.399   .     A
C937   C940    1.399   .     A
C937   H967    1.084   .     S
C938   C939    1.399   .     A
C938   H968    1.084   .     S
C942   C455    1.444   1_556 S
N953   Zn963   2.007   .     S
N954   Zn964   2.007   .     S
O955   Zn963   2.000   .     S
O956   Zn964   2.000   .     S
O957   Zn963   2.000   .     S
O958   Zn964   2.000   .     S
O959   Zn963   2.001   .     S
O960   Zn964   2.001   .     S
O961   Zn963   2.001   .     S
O962   Zn964   2.001   .     S
