data_str_m3_o1_o17_pcu_sym.29
_audit_creation_date              2020-01-03
_audit_creation_method            'Materials Studio'
_symmetry_space_group_name_H-M    'P1'
_symmetry_Int_Tables_number       1
_symmetry_cell_setting            triclinic
loop_
_symmetry_equiv_pos_as_xyz
  x,y,z
_cell_length_a                    31.8895
_cell_length_b                    30.2417
_cell_length_c                    29.7154
_cell_angle_alpha                 89.5817
_cell_angle_beta                  92.8106
_cell_angle_gamma                 88.8173
loop_
_atom_site_label
_atom_site_type_symbol
_atom_site_fract_x
_atom_site_fract_y
_atom_site_fract_z
_atom_site_U_iso_or_equiv
_atom_site_adp_type
_atom_site_occupancy
C1     C     0.08695   0.16707   0.25028   0.00000  Uiso   1.00
C2     C     0.04275   0.16781   0.25122   0.00000  Uiso   1.00
C3     C     0.19453   0.02243   0.27732   0.00000  Uiso   1.00
C4     C     0.14638   0.31098   0.21593   0.00000  Uiso   1.00
C5     C     0.14015   0.02440   0.22130   0.00000  Uiso   1.00
C6     C     0.18901   0.30906   0.28261   0.00000  Uiso   1.00
C7     C     0.16602   0.16681   0.16390   0.00000  Uiso   1.00
C8     C     0.16736   0.16654   0.33612   0.00000  Uiso   1.00
C9     C     0.20655   0.16530   0.40868   0.00000  Uiso   1.00
C10    C     0.12665   0.16981   0.09150   0.00000  Uiso   1.00
C11    C     0.16832   0.16631   0.38385   0.00000  Uiso   1.00
C12    C     0.24642   0.16635   0.25012   0.00000  Uiso   1.00
C13    C     0.16494   0.16724   0.11618   0.00000  Uiso   1.00
C14    C     0.13023   0.16926   0.40385   0.00000  Uiso   1.00
C15    C     0.20295   0.16399   0.09615   0.00000  Uiso   1.00
C16    C     0.12914   0.17244   0.45023   0.00000  Uiso   1.00
C17    C     0.20403   0.16167   0.04975   0.00000  Uiso   1.00
C18    C     0.16715   0.16695   0.47655   0.00000  Uiso   1.00
C19    C     0.16600   0.16758   0.02349   0.00000  Uiso   1.00
C20    C     0.20622   0.16076   0.45575   0.00000  Uiso   1.00
C21    C     0.12694   0.17416   0.04432   0.00000  Uiso   1.00
C22    C     0.09108   0.18209   0.47039   0.00000  Uiso   1.00
C23    C     0.09022   0.18484   0.01724   0.00000  Uiso   1.00
C24    C     0.24214   0.15235   0.02949   0.00000  Uiso   1.00
C25    C     0.23610   0.04068   0.29444   0.00000  Uiso   1.00
C26    C     0.23445   0.06287   0.34040   0.00000  Uiso   1.00
C27    C     0.14285   0.29440   0.16789   0.00000  Uiso   1.00
C28    C     0.10152   0.27184   0.15572   0.00000  Uiso   1.00
C29    C     0.10350   0.04740   0.19563   0.00000  Uiso   1.00
C30    C     0.06334   0.04207   0.22090   0.00000  Uiso   1.00
C31    C     0.20723   0.28623   0.32504   0.00000  Uiso   1.00
C32    C     0.17487   0.28636   0.36145   0.00000  Uiso   1.00
C33    C     0.24300   0.15016   0.48265   0.00000  Uiso   1.00
C34    C     0.02356   0.13628   0.27730   0.00000  Uiso   1.00
C35    C     0.30990   0.19839   0.22476   0.00000  Uiso   1.00
C36    C     0.31389   0.13532   0.27654   0.00000  Uiso   1.00
C37    C     0.01958   0.19929   0.22547   0.00000  Uiso   1.00
C38    C     0.29069   0.16615   0.25002   0.00000  Uiso   1.00
Cl39   Cl    0.25250   0.17830   0.38023   0.00000  Uiso   1.00
Cl40   Cl    0.08041   0.16016   0.12081   0.00000  Uiso   1.00
Cl41   Cl    0.04425   0.19341   0.43710   0.00000  Uiso   1.00
Cl42   Cl    0.28907   0.14092   0.06258   0.00000  Uiso   1.00
Cl43   Cl    0.04452   0.20881   0.03945   0.00000  Uiso   1.00
Cl44   Cl    0.28864   0.12655   0.45995   0.00000  Uiso   1.00
H45    H     0.10178   0.17101   0.38236   0.00000  Uiso   1.00
H46    H     0.26076   0.01422   0.29635   0.00000  Uiso   1.00
H47    H     0.24960   0.06106   0.26860   0.00000  Uiso   1.00
H48    H     0.10135   0.26104   0.12009   0.00000  Uiso   1.00
H49    H     0.09756   0.24261   0.17721   0.00000  Uiso   1.00
H50    H     0.07437   0.29474   0.15944   0.00000  Uiso   1.00
H51    H     0.14616   0.32201   0.14359   0.00000  Uiso   1.00
H52    H     0.17088   0.27445   0.16040   0.00000  Uiso   1.00
H53    H     0.06833   0.05218   0.25653   0.00000  Uiso   1.00
H54    H     0.03766   0.06282   0.20464   0.00000  Uiso   1.00
H55    H     0.05365   0.00703   0.22049   0.00000  Uiso   1.00
H56    H     0.23138   0.16156   0.11762   0.00000  Uiso   1.00
H57    H     0.10927   0.08239   0.18973   0.00000  Uiso   1.00
H58    H     0.09776   0.03467   0.16117   0.00000  Uiso   1.00
H59    H     0.14375   0.27533   0.34801   0.00000  Uiso   1.00
H60    H     0.18599   0.26433   0.38981   0.00000  Uiso   1.00
H61    H     0.17069   0.32031   0.37469   0.00000  Uiso   1.00
H62    H     0.21985   0.25316   0.31737   0.00000  Uiso   1.00
H63    H     0.23506   0.30232   0.34053   0.00000  Uiso   1.00
H64    H     0.04181   0.11289   0.29843   0.00000  Uiso   1.00
H65    H     0.29167   0.22241   0.20434   0.00000  Uiso   1.00
H66    H     0.29903   0.11143   0.29732   0.00000  Uiso   1.00
H67    H     0.03453   0.22382   0.20543   0.00000  Uiso   1.00
H68    H     0.26115   0.05082   0.36295   0.00000  Uiso   1.00
H69    H     0.23760   0.09893   0.33641   0.00000  Uiso   1.00
H70    H     0.20480   0.05601   0.35701   0.00000  Uiso   1.00
N71    N     0.16667   0.28573   0.25000   0.00000  Uiso   1.00
N72    N     0.16667   0.04760   0.25000   0.00000  Uiso   1.00
O73    O     0.10559   0.20487   0.25000   0.00000  Uiso   1.00
O74    O     0.22774   0.12846   0.25001   0.00000  Uiso   1.00
O75    O     0.22774   0.20487   0.25001   0.00000  Uiso   1.00
O76    O     0.10559   0.12846   0.25000   0.00000  Uiso   1.00
O77    O     0.16666   0.20489   0.18393   0.00000  Uiso   1.00
O78    O     0.16667   0.12844   0.31608   0.00000  Uiso   1.00
O79    O     0.16667   0.20489   0.31608   0.00000  Uiso   1.00
O80    O     0.16666   0.12844   0.18393   0.00000  Uiso   1.00
Zn81   Zn    0.16667   0.21771   0.25000   0.00000  Uiso   1.00
Zn82   Zn    0.16667   0.11563   0.25000   0.00000  Uiso   1.00
C83    C     0.42028   0.16707   0.25028   0.00000  Uiso   1.00
C84    C     0.37608   0.16781   0.25122   0.00000  Uiso   1.00
C85    C     0.52787   0.02243   0.27732   0.00000  Uiso   1.00
C86    C     0.47971   0.31098   0.21593   0.00000  Uiso   1.00
C87    C     0.47348   0.02440   0.22130   0.00000  Uiso   1.00
C88    C     0.52234   0.30906   0.28261   0.00000  Uiso   1.00
C89    C     0.49935   0.16681   0.16390   0.00000  Uiso   1.00
C90    C     0.50069   0.16654   0.33612   0.00000  Uiso   1.00
C91    C     0.53988   0.16530   0.40868   0.00000  Uiso   1.00
C92    C     0.45999   0.16981   0.09150   0.00000  Uiso   1.00
C93    C     0.50165   0.16631   0.38385   0.00000  Uiso   1.00
C94    C     0.57975   0.16635   0.25012   0.00000  Uiso   1.00
C95    C     0.49827   0.16724   0.11618   0.00000  Uiso   1.00
C96    C     0.46356   0.16926   0.40385   0.00000  Uiso   1.00
C97    C     0.53629   0.16399   0.09615   0.00000  Uiso   1.00
C98    C     0.46247   0.17244   0.45023   0.00000  Uiso   1.00
C99    C     0.53737   0.16167   0.04975   0.00000  Uiso   1.00
C100   C     0.50048   0.16695   0.47655   0.00000  Uiso   1.00
C101   C     0.49934   0.16758   0.02349   0.00000  Uiso   1.00
C102   C     0.53956   0.16076   0.45575   0.00000  Uiso   1.00
C103   C     0.46027   0.17416   0.04432   0.00000  Uiso   1.00
C104   C     0.42441   0.18209   0.47039   0.00000  Uiso   1.00
C105   C     0.42355   0.18484   0.01724   0.00000  Uiso   1.00
C106   C     0.57547   0.15235   0.02949   0.00000  Uiso   1.00
C107   C     0.56943   0.04068   0.29444   0.00000  Uiso   1.00
C108   C     0.56779   0.06287   0.34040   0.00000  Uiso   1.00
C109   C     0.47618   0.29440   0.16789   0.00000  Uiso   1.00
C110   C     0.43485   0.27184   0.15572   0.00000  Uiso   1.00
C111   C     0.43683   0.04740   0.19563   0.00000  Uiso   1.00
C112   C     0.39667   0.04207   0.22090   0.00000  Uiso   1.00
C113   C     0.54056   0.28623   0.32504   0.00000  Uiso   1.00
C114   C     0.50820   0.28636   0.36145   0.00000  Uiso   1.00
C115   C     0.57633   0.15016   0.48265   0.00000  Uiso   1.00
C116   C     0.35689   0.13628   0.27730   0.00000  Uiso   1.00
C117   C     0.64324   0.19839   0.22476   0.00000  Uiso   1.00
C118   C     0.64722   0.13532   0.27654   0.00000  Uiso   1.00
C119   C     0.35291   0.19929   0.22547   0.00000  Uiso   1.00
C120   C     0.62402   0.16615   0.25002   0.00000  Uiso   1.00
Cl121  Cl    0.58584   0.17830   0.38023   0.00000  Uiso   1.00
Cl122  Cl    0.41374   0.16016   0.12081   0.00000  Uiso   1.00
Cl123  Cl    0.37759   0.19341   0.43710   0.00000  Uiso   1.00
Cl124  Cl    0.62240   0.14092   0.06258   0.00000  Uiso   1.00
Cl125  Cl    0.37786   0.20881   0.03945   0.00000  Uiso   1.00
Cl126  Cl    0.62197   0.12655   0.45995   0.00000  Uiso   1.00
H127   H     0.43512   0.17101   0.38236   0.00000  Uiso   1.00
H128   H     0.59409   0.01422   0.29635   0.00000  Uiso   1.00
H129   H     0.58294   0.06106   0.26860   0.00000  Uiso   1.00
H130   H     0.43468   0.26104   0.12009   0.00000  Uiso   1.00
H131   H     0.43090   0.24261   0.17721   0.00000  Uiso   1.00
H132   H     0.40771   0.29474   0.15944   0.00000  Uiso   1.00
H133   H     0.47950   0.32201   0.14359   0.00000  Uiso   1.00
H134   H     0.50421   0.27445   0.16040   0.00000  Uiso   1.00
H135   H     0.40166   0.05218   0.25653   0.00000  Uiso   1.00
H136   H     0.37099   0.06282   0.20464   0.00000  Uiso   1.00
H137   H     0.38699   0.00703   0.22049   0.00000  Uiso   1.00
H138   H     0.56472   0.16156   0.11762   0.00000  Uiso   1.00
H139   H     0.44261   0.08239   0.18973   0.00000  Uiso   1.00
H140   H     0.43109   0.03467   0.16117   0.00000  Uiso   1.00
H141   H     0.47708   0.27533   0.34801   0.00000  Uiso   1.00
H142   H     0.51932   0.26433   0.38981   0.00000  Uiso   1.00
H143   H     0.50403   0.32031   0.37469   0.00000  Uiso   1.00
H144   H     0.55319   0.25316   0.31737   0.00000  Uiso   1.00
H145   H     0.56839   0.30232   0.34053   0.00000  Uiso   1.00
H146   H     0.37514   0.11289   0.29843   0.00000  Uiso   1.00
H147   H     0.62500   0.22241   0.20434   0.00000  Uiso   1.00
H148   H     0.63236   0.11143   0.29732   0.00000  Uiso   1.00
H149   H     0.36787   0.22382   0.20543   0.00000  Uiso   1.00
H150   H     0.59448   0.05082   0.36295   0.00000  Uiso   1.00
H151   H     0.57093   0.09893   0.33641   0.00000  Uiso   1.00
H152   H     0.53814   0.05601   0.35701   0.00000  Uiso   1.00
N153   N     0.50000   0.28573   0.25000   0.00000  Uiso   1.00
N154   N     0.50000   0.04760   0.25000   0.00000  Uiso   1.00
O155   O     0.43892   0.20487   0.25000   0.00000  Uiso   1.00
O156   O     0.56108   0.12846   0.25001   0.00000  Uiso   1.00
O157   O     0.56108   0.20487   0.25001   0.00000  Uiso   1.00
O158   O     0.43892   0.12846   0.25000   0.00000  Uiso   1.00
O159   O     0.49999   0.20489   0.18393   0.00000  Uiso   1.00
O160   O     0.50001   0.12844   0.31608   0.00000  Uiso   1.00
O161   O     0.50001   0.20489   0.31608   0.00000  Uiso   1.00
O162   O     0.49999   0.12844   0.18393   0.00000  Uiso   1.00
Zn163  Zn    0.50000   0.21771   0.25000   0.00000  Uiso   1.00
Zn164  Zn    0.50000   0.11563   0.25000   0.00000  Uiso   1.00
C165   C     0.75362   0.16707   0.25028   0.00000  Uiso   1.00
C166   C     0.70941   0.16781   0.25122   0.00000  Uiso   1.00
C167   C     0.86120   0.02243   0.27732   0.00000  Uiso   1.00
C168   C     0.81305   0.31098   0.21593   0.00000  Uiso   1.00
C169   C     0.80681   0.02440   0.22130   0.00000  Uiso   1.00
C170   C     0.85568   0.30906   0.28261   0.00000  Uiso   1.00
C171   C     0.83269   0.16681   0.16390   0.00000  Uiso   1.00
C172   C     0.83402   0.16654   0.33612   0.00000  Uiso   1.00
C173   C     0.87322   0.16530   0.40868   0.00000  Uiso   1.00
C174   C     0.79332   0.16981   0.09150   0.00000  Uiso   1.00
C175   C     0.83498   0.16631   0.38385   0.00000  Uiso   1.00
C176   C     0.91308   0.16635   0.25012   0.00000  Uiso   1.00
C177   C     0.83160   0.16724   0.11618   0.00000  Uiso   1.00
C178   C     0.79690   0.16926   0.40385   0.00000  Uiso   1.00
C179   C     0.86962   0.16399   0.09615   0.00000  Uiso   1.00
C180   C     0.79581   0.17244   0.45023   0.00000  Uiso   1.00
C181   C     0.87070   0.16167   0.04975   0.00000  Uiso   1.00
C182   C     0.83382   0.16695   0.47655   0.00000  Uiso   1.00
C183   C     0.83267   0.16758   0.02349   0.00000  Uiso   1.00
C184   C     0.87289   0.16076   0.45575   0.00000  Uiso   1.00
C185   C     0.79361   0.17416   0.04432   0.00000  Uiso   1.00
C186   C     0.75775   0.18209   0.47039   0.00000  Uiso   1.00
C187   C     0.75689   0.18484   0.01724   0.00000  Uiso   1.00
C188   C     0.90880   0.15235   0.02949   0.00000  Uiso   1.00
C189   C     0.90276   0.04068   0.29444   0.00000  Uiso   1.00
C190   C     0.90112   0.06287   0.34040   0.00000  Uiso   1.00
C191   C     0.80951   0.29440   0.16789   0.00000  Uiso   1.00
C192   C     0.76818   0.27184   0.15572   0.00000  Uiso   1.00
C193   C     0.77016   0.04740   0.19563   0.00000  Uiso   1.00
C194   C     0.73001   0.04207   0.22090   0.00000  Uiso   1.00
C195   C     0.87390   0.28623   0.32504   0.00000  Uiso   1.00
C196   C     0.84154   0.28636   0.36145   0.00000  Uiso   1.00
C197   C     0.90967   0.15016   0.48265   0.00000  Uiso   1.00
C198   C     0.69023   0.13628   0.27730   0.00000  Uiso   1.00
C199   C     0.97657   0.19839   0.22476   0.00000  Uiso   1.00
C200   C     0.98056   0.13532   0.27654   0.00000  Uiso   1.00
C201   C     0.68625   0.19929   0.22547   0.00000  Uiso   1.00
C202   C     0.95736   0.16615   0.25002   0.00000  Uiso   1.00
Cl203  Cl    0.91917   0.17830   0.38023   0.00000  Uiso   1.00
Cl204  Cl    0.74707   0.16016   0.12081   0.00000  Uiso   1.00
Cl205  Cl    0.71092   0.19341   0.43710   0.00000  Uiso   1.00
Cl206  Cl    0.95574   0.14092   0.06258   0.00000  Uiso   1.00
Cl207  Cl    0.71119   0.20881   0.03945   0.00000  Uiso   1.00
Cl208  Cl    0.95530   0.12655   0.45995   0.00000  Uiso   1.00
H209   H     0.76845   0.17101   0.38236   0.00000  Uiso   1.00
H210   H     0.92743   0.01422   0.29635   0.00000  Uiso   1.00
H211   H     0.91627   0.06106   0.26860   0.00000  Uiso   1.00
H212   H     0.76802   0.26104   0.12009   0.00000  Uiso   1.00
H213   H     0.76423   0.24261   0.17721   0.00000  Uiso   1.00
H214   H     0.74104   0.29474   0.15944   0.00000  Uiso   1.00
H215   H     0.81283   0.32201   0.14359   0.00000  Uiso   1.00
H216   H     0.83754   0.27445   0.16040   0.00000  Uiso   1.00
H217   H     0.73499   0.05218   0.25653   0.00000  Uiso   1.00
H218   H     0.70433   0.06282   0.20464   0.00000  Uiso   1.00
H219   H     0.72032   0.00703   0.22049   0.00000  Uiso   1.00
H220   H     0.89805   0.16156   0.11762   0.00000  Uiso   1.00
H221   H     0.77594   0.08239   0.18973   0.00000  Uiso   1.00
H222   H     0.76443   0.03467   0.16117   0.00000  Uiso   1.00
H223   H     0.81041   0.27533   0.34801   0.00000  Uiso   1.00
H224   H     0.85266   0.26433   0.38981   0.00000  Uiso   1.00
H225   H     0.83736   0.32031   0.37469   0.00000  Uiso   1.00
H226   H     0.88652   0.25316   0.31737   0.00000  Uiso   1.00
H227   H     0.90173   0.30232   0.34053   0.00000  Uiso   1.00
H228   H     0.70847   0.11289   0.29843   0.00000  Uiso   1.00
H229   H     0.95833   0.22241   0.20434   0.00000  Uiso   1.00
H230   H     0.96570   0.11143   0.29732   0.00000  Uiso   1.00
H231   H     0.70120   0.22382   0.20543   0.00000  Uiso   1.00
H232   H     0.92781   0.05082   0.36295   0.00000  Uiso   1.00
H233   H     0.90426   0.09893   0.33641   0.00000  Uiso   1.00
H234   H     0.87147   0.05601   0.35701   0.00000  Uiso   1.00
N235   N     0.83333   0.28573   0.25000   0.00000  Uiso   1.00
N236   N     0.83333   0.04760   0.25000   0.00000  Uiso   1.00
O237   O     0.77226   0.20487   0.25000   0.00000  Uiso   1.00
O238   O     0.89441   0.12846   0.25001   0.00000  Uiso   1.00
O239   O     0.89441   0.20487   0.25001   0.00000  Uiso   1.00
O240   O     0.77226   0.12846   0.25000   0.00000  Uiso   1.00
O241   O     0.83333   0.20489   0.18393   0.00000  Uiso   1.00
O242   O     0.83334   0.12844   0.31608   0.00000  Uiso   1.00
O243   O     0.83334   0.20489   0.31608   0.00000  Uiso   1.00
O244   O     0.83333   0.12844   0.18393   0.00000  Uiso   1.00
Zn245  Zn    0.83333   0.21771   0.25000   0.00000  Uiso   1.00
Zn246  Zn    0.83333   0.11563   0.25000   0.00000  Uiso   1.00
C247   C     0.08695   0.50040   0.25028   0.00000  Uiso   1.00
C248   C     0.04275   0.50114   0.25122   0.00000  Uiso   1.00
C249   C     0.19453   0.35576   0.27732   0.00000  Uiso   1.00
C250   C     0.14638   0.64431   0.21593   0.00000  Uiso   1.00
C251   C     0.14015   0.35774   0.22130   0.00000  Uiso   1.00
C252   C     0.18901   0.64239   0.28261   0.00000  Uiso   1.00
C253   C     0.16602   0.50015   0.16390   0.00000  Uiso   1.00
C254   C     0.16736   0.49988   0.33612   0.00000  Uiso   1.00
C255   C     0.20655   0.49863   0.40868   0.00000  Uiso   1.00
C256   C     0.12665   0.50315   0.09150   0.00000  Uiso   1.00
C257   C     0.16832   0.49964   0.38385   0.00000  Uiso   1.00
C258   C     0.24642   0.49969   0.25012   0.00000  Uiso   1.00
C259   C     0.16494   0.50057   0.11618   0.00000  Uiso   1.00
C260   C     0.13023   0.50259   0.40385   0.00000  Uiso   1.00
C261   C     0.20295   0.49732   0.09615   0.00000  Uiso   1.00
C262   C     0.12914   0.50577   0.45023   0.00000  Uiso   1.00
C263   C     0.20403   0.49500   0.04975   0.00000  Uiso   1.00
C264   C     0.16715   0.50029   0.47655   0.00000  Uiso   1.00
C265   C     0.16600   0.50092   0.02349   0.00000  Uiso   1.00
C266   C     0.20622   0.49410   0.45575   0.00000  Uiso   1.00
C267   C     0.12694   0.50750   0.04432   0.00000  Uiso   1.00
C268   C     0.09108   0.51542   0.47039   0.00000  Uiso   1.00
C269   C     0.09022   0.51817   0.01724   0.00000  Uiso   1.00
C270   C     0.24214   0.48568   0.02949   0.00000  Uiso   1.00
C271   C     0.23610   0.37401   0.29444   0.00000  Uiso   1.00
C272   C     0.23445   0.39620   0.34040   0.00000  Uiso   1.00
C273   C     0.14285   0.62773   0.16789   0.00000  Uiso   1.00
C274   C     0.10152   0.60517   0.15572   0.00000  Uiso   1.00
C275   C     0.10350   0.38073   0.19563   0.00000  Uiso   1.00
C276   C     0.06334   0.37541   0.22090   0.00000  Uiso   1.00
C277   C     0.20723   0.61956   0.32504   0.00000  Uiso   1.00
C278   C     0.17487   0.61969   0.36145   0.00000  Uiso   1.00
C279   C     0.24300   0.48350   0.48265   0.00000  Uiso   1.00
C280   C     0.02356   0.46961   0.27730   0.00000  Uiso   1.00
C281   C     0.30990   0.53172   0.22476   0.00000  Uiso   1.00
C282   C     0.31389   0.46866   0.27654   0.00000  Uiso   1.00
C283   C     0.01958   0.53263   0.22547   0.00000  Uiso   1.00
C284   C     0.29069   0.49949   0.25002   0.00000  Uiso   1.00
Cl285  Cl    0.25250   0.51163   0.38023   0.00000  Uiso   1.00
Cl286  Cl    0.08041   0.49349   0.12081   0.00000  Uiso   1.00
Cl287  Cl    0.04425   0.52674   0.43710   0.00000  Uiso   1.00
Cl288  Cl    0.28907   0.47426   0.06258   0.00000  Uiso   1.00
Cl289  Cl    0.04452   0.54215   0.03945   0.00000  Uiso   1.00
Cl290  Cl    0.28864   0.45988   0.45995   0.00000  Uiso   1.00
H291   H     0.10178   0.50434   0.38236   0.00000  Uiso   1.00
H292   H     0.26076   0.34755   0.29635   0.00000  Uiso   1.00
H293   H     0.24960   0.39440   0.26860   0.00000  Uiso   1.00
H294   H     0.10135   0.59437   0.12009   0.00000  Uiso   1.00
H295   H     0.09756   0.57594   0.17721   0.00000  Uiso   1.00
H296   H     0.07437   0.62807   0.15944   0.00000  Uiso   1.00
H297   H     0.14616   0.65534   0.14359   0.00000  Uiso   1.00
H298   H     0.17088   0.60779   0.16040   0.00000  Uiso   1.00
H299   H     0.06833   0.38552   0.25653   0.00000  Uiso   1.00
H300   H     0.03766   0.39615   0.20464   0.00000  Uiso   1.00
H301   H     0.05365   0.34037   0.22049   0.00000  Uiso   1.00
H302   H     0.23138   0.49489   0.11762   0.00000  Uiso   1.00
H303   H     0.10927   0.41572   0.18973   0.00000  Uiso   1.00
H304   H     0.09776   0.36800   0.16117   0.00000  Uiso   1.00
H305   H     0.14375   0.60866   0.34801   0.00000  Uiso   1.00
H306   H     0.18599   0.59766   0.38981   0.00000  Uiso   1.00
H307   H     0.17069   0.65364   0.37469   0.00000  Uiso   1.00
H308   H     0.21985   0.58650   0.31737   0.00000  Uiso   1.00
H309   H     0.23506   0.63566   0.34053   0.00000  Uiso   1.00
H310   H     0.04181   0.44622   0.29843   0.00000  Uiso   1.00
H311   H     0.29167   0.55574   0.20434   0.00000  Uiso   1.00
H312   H     0.29903   0.44477   0.29732   0.00000  Uiso   1.00
H313   H     0.03453   0.55715   0.20543   0.00000  Uiso   1.00
H314   H     0.26115   0.38415   0.36295   0.00000  Uiso   1.00
H315   H     0.23760   0.43226   0.33641   0.00000  Uiso   1.00
H316   H     0.20480   0.38935   0.35701   0.00000  Uiso   1.00
N317   N     0.16667   0.61907   0.25000   0.00000  Uiso   1.00
N318   N     0.16667   0.38093   0.25000   0.00000  Uiso   1.00
O319   O     0.10559   0.53821   0.25000   0.00000  Uiso   1.00
O320   O     0.22774   0.46179   0.25001   0.00000  Uiso   1.00
O321   O     0.22774   0.53821   0.25001   0.00000  Uiso   1.00
O322   O     0.10559   0.46179   0.25000   0.00000  Uiso   1.00
O323   O     0.16666   0.53823   0.18393   0.00000  Uiso   1.00
O324   O     0.16667   0.46177   0.31608   0.00000  Uiso   1.00
O325   O     0.16667   0.53823   0.31608   0.00000  Uiso   1.00
O326   O     0.16666   0.46177   0.18393   0.00000  Uiso   1.00
Zn327  Zn    0.16667   0.55104   0.25000   0.00000  Uiso   1.00
Zn328  Zn    0.16667   0.44896   0.25000   0.00000  Uiso   1.00
C329   C     0.42028   0.50040   0.25028   0.00000  Uiso   1.00
C330   C     0.37608   0.50114   0.25122   0.00000  Uiso   1.00
C331   C     0.52787   0.35576   0.27732   0.00000  Uiso   1.00
C332   C     0.47971   0.64431   0.21593   0.00000  Uiso   1.00
C333   C     0.47348   0.35774   0.22130   0.00000  Uiso   1.00
C334   C     0.52234   0.64239   0.28261   0.00000  Uiso   1.00
C335   C     0.49935   0.50015   0.16390   0.00000  Uiso   1.00
C336   C     0.50069   0.49988   0.33612   0.00000  Uiso   1.00
C337   C     0.53988   0.49863   0.40868   0.00000  Uiso   1.00
C338   C     0.45999   0.50315   0.09150   0.00000  Uiso   1.00
C339   C     0.50165   0.49964   0.38385   0.00000  Uiso   1.00
C340   C     0.57975   0.49969   0.25012   0.00000  Uiso   1.00
C341   C     0.49827   0.50057   0.11618   0.00000  Uiso   1.00
C342   C     0.46356   0.50259   0.40385   0.00000  Uiso   1.00
C343   C     0.53629   0.49732   0.09615   0.00000  Uiso   1.00
C344   C     0.46247   0.50577   0.45023   0.00000  Uiso   1.00
C345   C     0.53737   0.49500   0.04975   0.00000  Uiso   1.00
C346   C     0.50048   0.50029   0.47655   0.00000  Uiso   1.00
C347   C     0.49934   0.50092   0.02349   0.00000  Uiso   1.00
C348   C     0.53956   0.49410   0.45575   0.00000  Uiso   1.00
C349   C     0.46027   0.50750   0.04432   0.00000  Uiso   1.00
C350   C     0.42441   0.51542   0.47039   0.00000  Uiso   1.00
C351   C     0.42355   0.51817   0.01724   0.00000  Uiso   1.00
C352   C     0.57547   0.48568   0.02949   0.00000  Uiso   1.00
C353   C     0.56943   0.37401   0.29444   0.00000  Uiso   1.00
C354   C     0.56779   0.39620   0.34040   0.00000  Uiso   1.00
C355   C     0.47618   0.62773   0.16789   0.00000  Uiso   1.00
C356   C     0.43485   0.60517   0.15572   0.00000  Uiso   1.00
C357   C     0.43683   0.38073   0.19563   0.00000  Uiso   1.00
C358   C     0.39667   0.37541   0.22090   0.00000  Uiso   1.00
C359   C     0.54056   0.61956   0.32504   0.00000  Uiso   1.00
C360   C     0.50820   0.61969   0.36145   0.00000  Uiso   1.00
C361   C     0.57633   0.48350   0.48265   0.00000  Uiso   1.00
C362   C     0.35689   0.46961   0.27730   0.00000  Uiso   1.00
C363   C     0.64324   0.53172   0.22476   0.00000  Uiso   1.00
C364   C     0.64722   0.46866   0.27654   0.00000  Uiso   1.00
C365   C     0.35291   0.53263   0.22547   0.00000  Uiso   1.00
C366   C     0.62402   0.49949   0.25002   0.00000  Uiso   1.00
Cl367  Cl    0.58584   0.51163   0.38023   0.00000  Uiso   1.00
Cl368  Cl    0.41374   0.49349   0.12081   0.00000  Uiso   1.00
Cl369  Cl    0.37759   0.52674   0.43710   0.00000  Uiso   1.00
Cl370  Cl    0.62240   0.47426   0.06258   0.00000  Uiso   1.00
Cl371  Cl    0.37786   0.54215   0.03945   0.00000  Uiso   1.00
Cl372  Cl    0.62197   0.45988   0.45995   0.00000  Uiso   1.00
H373   H     0.43512   0.50434   0.38236   0.00000  Uiso   1.00
H374   H     0.59409   0.34755   0.29635   0.00000  Uiso   1.00
H375   H     0.58294   0.39440   0.26860   0.00000  Uiso   1.00
H376   H     0.43468   0.59437   0.12009   0.00000  Uiso   1.00
H377   H     0.43090   0.57594   0.17721   0.00000  Uiso   1.00
H378   H     0.40771   0.62807   0.15944   0.00000  Uiso   1.00
H379   H     0.47950   0.65534   0.14359   0.00000  Uiso   1.00
H380   H     0.50421   0.60779   0.16040   0.00000  Uiso   1.00
H381   H     0.40166   0.38552   0.25653   0.00000  Uiso   1.00
H382   H     0.37099   0.39615   0.20464   0.00000  Uiso   1.00
H383   H     0.38699   0.34037   0.22049   0.00000  Uiso   1.00
H384   H     0.56472   0.49489   0.11762   0.00000  Uiso   1.00
H385   H     0.44261   0.41572   0.18973   0.00000  Uiso   1.00
H386   H     0.43109   0.36800   0.16117   0.00000  Uiso   1.00
H387   H     0.47708   0.60866   0.34801   0.00000  Uiso   1.00
H388   H     0.51932   0.59766   0.38981   0.00000  Uiso   1.00
H389   H     0.50403   0.65364   0.37469   0.00000  Uiso   1.00
H390   H     0.55319   0.58650   0.31737   0.00000  Uiso   1.00
H391   H     0.56839   0.63566   0.34053   0.00000  Uiso   1.00
H392   H     0.37514   0.44622   0.29843   0.00000  Uiso   1.00
H393   H     0.62500   0.55574   0.20434   0.00000  Uiso   1.00
H394   H     0.63236   0.44477   0.29732   0.00000  Uiso   1.00
H395   H     0.36787   0.55715   0.20543   0.00000  Uiso   1.00
H396   H     0.59448   0.38415   0.36295   0.00000  Uiso   1.00
H397   H     0.57093   0.43226   0.33641   0.00000  Uiso   1.00
H398   H     0.53814   0.38935   0.35701   0.00000  Uiso   1.00
N399   N     0.50000   0.61907   0.25000   0.00000  Uiso   1.00
N400   N     0.50000   0.38093   0.25000   0.00000  Uiso   1.00
O401   O     0.43892   0.53821   0.25000   0.00000  Uiso   1.00
O402   O     0.56108   0.46179   0.25001   0.00000  Uiso   1.00
O403   O     0.56108   0.53821   0.25001   0.00000  Uiso   1.00
O404   O     0.43892   0.46179   0.25000   0.00000  Uiso   1.00
O405   O     0.49999   0.53823   0.18393   0.00000  Uiso   1.00
O406   O     0.50001   0.46177   0.31608   0.00000  Uiso   1.00
O407   O     0.50001   0.53823   0.31608   0.00000  Uiso   1.00
O408   O     0.49999   0.46177   0.18393   0.00000  Uiso   1.00
Zn409  Zn    0.50000   0.55104   0.25000   0.00000  Uiso   1.00
Zn410  Zn    0.50000   0.44896   0.25000   0.00000  Uiso   1.00
C411   C     0.75362   0.50040   0.25028   0.00000  Uiso   1.00
C412   C     0.70941   0.50114   0.25122   0.00000  Uiso   1.00
C413   C     0.86120   0.35576   0.27732   0.00000  Uiso   1.00
C414   C     0.81305   0.64431   0.21593   0.00000  Uiso   1.00
C415   C     0.80681   0.35774   0.22130   0.00000  Uiso   1.00
C416   C     0.85568   0.64239   0.28261   0.00000  Uiso   1.00
C417   C     0.83269   0.50015   0.16390   0.00000  Uiso   1.00
C418   C     0.83402   0.49988   0.33612   0.00000  Uiso   1.00
C419   C     0.87322   0.49863   0.40868   0.00000  Uiso   1.00
C420   C     0.79332   0.50315   0.09150   0.00000  Uiso   1.00
C421   C     0.83498   0.49964   0.38385   0.00000  Uiso   1.00
C422   C     0.91308   0.49969   0.25012   0.00000  Uiso   1.00
C423   C     0.83160   0.50057   0.11618   0.00000  Uiso   1.00
C424   C     0.79690   0.50259   0.40385   0.00000  Uiso   1.00
C425   C     0.86962   0.49732   0.09615   0.00000  Uiso   1.00
C426   C     0.79581   0.50577   0.45023   0.00000  Uiso   1.00
C427   C     0.87070   0.49500   0.04975   0.00000  Uiso   1.00
C428   C     0.83382   0.50029   0.47655   0.00000  Uiso   1.00
C429   C     0.83267   0.50092   0.02349   0.00000  Uiso   1.00
C430   C     0.87289   0.49410   0.45575   0.00000  Uiso   1.00
C431   C     0.79361   0.50750   0.04432   0.00000  Uiso   1.00
C432   C     0.75775   0.51542   0.47039   0.00000  Uiso   1.00
C433   C     0.75689   0.51817   0.01724   0.00000  Uiso   1.00
C434   C     0.90880   0.48568   0.02949   0.00000  Uiso   1.00
C435   C     0.90276   0.37401   0.29444   0.00000  Uiso   1.00
C436   C     0.90112   0.39620   0.34040   0.00000  Uiso   1.00
C437   C     0.80951   0.62773   0.16789   0.00000  Uiso   1.00
C438   C     0.76818   0.60517   0.15572   0.00000  Uiso   1.00
C439   C     0.77016   0.38073   0.19563   0.00000  Uiso   1.00
C440   C     0.73001   0.37541   0.22090   0.00000  Uiso   1.00
C441   C     0.87390   0.61956   0.32504   0.00000  Uiso   1.00
C442   C     0.84154   0.61969   0.36145   0.00000  Uiso   1.00
C443   C     0.90967   0.48350   0.48265   0.00000  Uiso   1.00
C444   C     0.69023   0.46961   0.27730   0.00000  Uiso   1.00
C445   C     0.97657   0.53172   0.22476   0.00000  Uiso   1.00
C446   C     0.98056   0.46866   0.27654   0.00000  Uiso   1.00
C447   C     0.68625   0.53263   0.22547   0.00000  Uiso   1.00
C448   C     0.95736   0.49949   0.25002   0.00000  Uiso   1.00
Cl449  Cl    0.91917   0.51163   0.38023   0.00000  Uiso   1.00
Cl450  Cl    0.74707   0.49349   0.12081   0.00000  Uiso   1.00
Cl451  Cl    0.71092   0.52674   0.43710   0.00000  Uiso   1.00
Cl452  Cl    0.95574   0.47426   0.06258   0.00000  Uiso   1.00
Cl453  Cl    0.71119   0.54215   0.03945   0.00000  Uiso   1.00
Cl454  Cl    0.95530   0.45988   0.45995   0.00000  Uiso   1.00
H455   H     0.76845   0.50434   0.38236   0.00000  Uiso   1.00
H456   H     0.92743   0.34755   0.29635   0.00000  Uiso   1.00
H457   H     0.91627   0.39440   0.26860   0.00000  Uiso   1.00
H458   H     0.76802   0.59437   0.12009   0.00000  Uiso   1.00
H459   H     0.76423   0.57594   0.17721   0.00000  Uiso   1.00
H460   H     0.74104   0.62807   0.15944   0.00000  Uiso   1.00
H461   H     0.81283   0.65534   0.14359   0.00000  Uiso   1.00
H462   H     0.83754   0.60779   0.16040   0.00000  Uiso   1.00
H463   H     0.73499   0.38552   0.25653   0.00000  Uiso   1.00
H464   H     0.70433   0.39615   0.20464   0.00000  Uiso   1.00
H465   H     0.72032   0.34037   0.22049   0.00000  Uiso   1.00
H466   H     0.89805   0.49489   0.11762   0.00000  Uiso   1.00
H467   H     0.77594   0.41572   0.18973   0.00000  Uiso   1.00
H468   H     0.76443   0.36800   0.16117   0.00000  Uiso   1.00
H469   H     0.81041   0.60866   0.34801   0.00000  Uiso   1.00
H470   H     0.85266   0.59766   0.38981   0.00000  Uiso   1.00
H471   H     0.83736   0.65364   0.37469   0.00000  Uiso   1.00
H472   H     0.88652   0.58650   0.31737   0.00000  Uiso   1.00
H473   H     0.90173   0.63566   0.34053   0.00000  Uiso   1.00
H474   H     0.70847   0.44622   0.29843   0.00000  Uiso   1.00
H475   H     0.95833   0.55574   0.20434   0.00000  Uiso   1.00
H476   H     0.96570   0.44477   0.29732   0.00000  Uiso   1.00
H477   H     0.70120   0.55715   0.20543   0.00000  Uiso   1.00
H478   H     0.92781   0.38415   0.36295   0.00000  Uiso   1.00
H479   H     0.90426   0.43226   0.33641   0.00000  Uiso   1.00
H480   H     0.87147   0.38935   0.35701   0.00000  Uiso   1.00
N481   N     0.83333   0.61907   0.25000   0.00000  Uiso   1.00
N482   N     0.83333   0.38093   0.25000   0.00000  Uiso   1.00
O483   O     0.77226   0.53821   0.25000   0.00000  Uiso   1.00
O484   O     0.89441   0.46179   0.25001   0.00000  Uiso   1.00
O485   O     0.89441   0.53821   0.25001   0.00000  Uiso   1.00
O486   O     0.77226   0.46179   0.25000   0.00000  Uiso   1.00
O487   O     0.83333   0.53823   0.18393   0.00000  Uiso   1.00
O488   O     0.83334   0.46177   0.31608   0.00000  Uiso   1.00
O489   O     0.83334   0.53823   0.31608   0.00000  Uiso   1.00
O490   O     0.83333   0.46177   0.18393   0.00000  Uiso   1.00
Zn491  Zn    0.83333   0.55104   0.25000   0.00000  Uiso   1.00
Zn492  Zn    0.83333   0.44896   0.25000   0.00000  Uiso   1.00
C493   C     0.08695   0.83373   0.25028   0.00000  Uiso   1.00
C494   C     0.04275   0.83447   0.25122   0.00000  Uiso   1.00
C495   C     0.19453   0.68909   0.27732   0.00000  Uiso   1.00
C496   C     0.14638   0.97764   0.21593   0.00000  Uiso   1.00
C497   C     0.14015   0.69107   0.22130   0.00000  Uiso   1.00
C498   C     0.18901   0.97573   0.28261   0.00000  Uiso   1.00
C499   C     0.16602   0.83348   0.16390   0.00000  Uiso   1.00
C500   C     0.16736   0.83321   0.33612   0.00000  Uiso   1.00
C501   C     0.20655   0.83197   0.40868   0.00000  Uiso   1.00
C502   C     0.12665   0.83648   0.09150   0.00000  Uiso   1.00
C503   C     0.16832   0.83297   0.38385   0.00000  Uiso   1.00
C504   C     0.24642   0.83302   0.25012   0.00000  Uiso   1.00
C505   C     0.16494   0.83391   0.11618   0.00000  Uiso   1.00
C506   C     0.13023   0.83592   0.40385   0.00000  Uiso   1.00
C507   C     0.20295   0.83065   0.09615   0.00000  Uiso   1.00
C508   C     0.12914   0.83911   0.45023   0.00000  Uiso   1.00
C509   C     0.20403   0.82833   0.04975   0.00000  Uiso   1.00
C510   C     0.16715   0.83362   0.47655   0.00000  Uiso   1.00
C511   C     0.16600   0.83425   0.02349   0.00000  Uiso   1.00
C512   C     0.20622   0.82743   0.45575   0.00000  Uiso   1.00
C513   C     0.12694   0.84083   0.04432   0.00000  Uiso   1.00
C514   C     0.09108   0.84875   0.47039   0.00000  Uiso   1.00
C515   C     0.09022   0.85151   0.01724   0.00000  Uiso   1.00
C516   C     0.24214   0.81902   0.02949   0.00000  Uiso   1.00
C517   C     0.23610   0.70734   0.29444   0.00000  Uiso   1.00
C518   C     0.23445   0.72954   0.34040   0.00000  Uiso   1.00
C519   C     0.14285   0.96106   0.16789   0.00000  Uiso   1.00
C520   C     0.10152   0.93850   0.15572   0.00000  Uiso   1.00
C521   C     0.10350   0.71406   0.19563   0.00000  Uiso   1.00
C522   C     0.06334   0.70874   0.22090   0.00000  Uiso   1.00
C523   C     0.20723   0.95289   0.32504   0.00000  Uiso   1.00
C524   C     0.17487   0.95302   0.36145   0.00000  Uiso   1.00
C525   C     0.24300   0.81683   0.48265   0.00000  Uiso   1.00
C526   C     0.02356   0.80295   0.27730   0.00000  Uiso   1.00
C527   C     0.30990   0.86506   0.22476   0.00000  Uiso   1.00
C528   C     0.31389   0.80199   0.27654   0.00000  Uiso   1.00
C529   C     0.01958   0.86596   0.22547   0.00000  Uiso   1.00
C530   C     0.29069   0.83282   0.25002   0.00000  Uiso   1.00
Cl531  Cl    0.25250   0.84496   0.38023   0.00000  Uiso   1.00
Cl532  Cl    0.08041   0.82682   0.12081   0.00000  Uiso   1.00
Cl533  Cl    0.04425   0.86007   0.43710   0.00000  Uiso   1.00
Cl534  Cl    0.28907   0.80759   0.06258   0.00000  Uiso   1.00
Cl535  Cl    0.04452   0.87548   0.03945   0.00000  Uiso   1.00
Cl536  Cl    0.28864   0.79321   0.45995   0.00000  Uiso   1.00
H537   H     0.10178   0.83768   0.38236   0.00000  Uiso   1.00
H538   H     0.26076   0.68088   0.29635   0.00000  Uiso   1.00
H539   H     0.24960   0.72773   0.26860   0.00000  Uiso   1.00
H540   H     0.10135   0.92771   0.12009   0.00000  Uiso   1.00
H541   H     0.09756   0.90928   0.17721   0.00000  Uiso   1.00
H542   H     0.07437   0.96141   0.15944   0.00000  Uiso   1.00
H543   H     0.14616   0.98867   0.14359   0.00000  Uiso   1.00
H544   H     0.17088   0.94112   0.16040   0.00000  Uiso   1.00
H545   H     0.06833   0.71885   0.25653   0.00000  Uiso   1.00
H546   H     0.03766   0.72949   0.20464   0.00000  Uiso   1.00
H547   H     0.05365   0.67370   0.22049   0.00000  Uiso   1.00
H548   H     0.23138   0.82823   0.11762   0.00000  Uiso   1.00
H549   H     0.10927   0.74906   0.18973   0.00000  Uiso   1.00
H550   H     0.09776   0.70134   0.16117   0.00000  Uiso   1.00
H551   H     0.14375   0.94199   0.34801   0.00000  Uiso   1.00
H552   H     0.18599   0.93100   0.38981   0.00000  Uiso   1.00
H553   H     0.17069   0.98698   0.37469   0.00000  Uiso   1.00
H554   H     0.21985   0.91983   0.31737   0.00000  Uiso   1.00
H555   H     0.23506   0.96899   0.34053   0.00000  Uiso   1.00
H556   H     0.04181   0.77956   0.29843   0.00000  Uiso   1.00
H557   H     0.29167   0.88907   0.20434   0.00000  Uiso   1.00
H558   H     0.29903   0.77810   0.29732   0.00000  Uiso   1.00
H559   H     0.03453   0.89048   0.20543   0.00000  Uiso   1.00
H560   H     0.26115   0.71748   0.36295   0.00000  Uiso   1.00
H561   H     0.23760   0.76559   0.33641   0.00000  Uiso   1.00
H562   H     0.20480   0.72268   0.35701   0.00000  Uiso   1.00
N563   N     0.16667   0.95240   0.25000   0.00000  Uiso   1.00
N564   N     0.16667   0.71427   0.25000   0.00000  Uiso   1.00
O565   O     0.10559   0.87154   0.25000   0.00000  Uiso   1.00
O566   O     0.22774   0.79513   0.25001   0.00000  Uiso   1.00
O567   O     0.22774   0.87154   0.25001   0.00000  Uiso   1.00
O568   O     0.10559   0.79513   0.25000   0.00000  Uiso   1.00
O569   O     0.16666   0.87156   0.18393   0.00000  Uiso   1.00
O570   O     0.16667   0.79511   0.31608   0.00000  Uiso   1.00
O571   O     0.16667   0.87156   0.31608   0.00000  Uiso   1.00
O572   O     0.16666   0.79511   0.18393   0.00000  Uiso   1.00
Zn573  Zn    0.16667   0.88437   0.25000   0.00000  Uiso   1.00
Zn574  Zn    0.16667   0.78229   0.25000   0.00000  Uiso   1.00
C575   C     0.42028   0.83373   0.25028   0.00000  Uiso   1.00
C576   C     0.37608   0.83447   0.25122   0.00000  Uiso   1.00
C577   C     0.52787   0.68909   0.27732   0.00000  Uiso   1.00
C578   C     0.47971   0.97764   0.21593   0.00000  Uiso   1.00
C579   C     0.47348   0.69107   0.22130   0.00000  Uiso   1.00
C580   C     0.52234   0.97573   0.28261   0.00000  Uiso   1.00
C581   C     0.49935   0.83348   0.16390   0.00000  Uiso   1.00
C582   C     0.50069   0.83321   0.33612   0.00000  Uiso   1.00
C583   C     0.53988   0.83197   0.40868   0.00000  Uiso   1.00
C584   C     0.45999   0.83648   0.09150   0.00000  Uiso   1.00
C585   C     0.50165   0.83297   0.38385   0.00000  Uiso   1.00
C586   C     0.57975   0.83302   0.25012   0.00000  Uiso   1.00
C587   C     0.49827   0.83391   0.11618   0.00000  Uiso   1.00
C588   C     0.46356   0.83592   0.40385   0.00000  Uiso   1.00
C589   C     0.53629   0.83065   0.09615   0.00000  Uiso   1.00
C590   C     0.46247   0.83911   0.45023   0.00000  Uiso   1.00
C591   C     0.53737   0.82833   0.04975   0.00000  Uiso   1.00
C592   C     0.50048   0.83362   0.47655   0.00000  Uiso   1.00
C593   C     0.49934   0.83425   0.02349   0.00000  Uiso   1.00
C594   C     0.53956   0.82743   0.45575   0.00000  Uiso   1.00
C595   C     0.46027   0.84083   0.04432   0.00000  Uiso   1.00
C596   C     0.42441   0.84875   0.47039   0.00000  Uiso   1.00
C597   C     0.42355   0.85151   0.01724   0.00000  Uiso   1.00
C598   C     0.57547   0.81902   0.02949   0.00000  Uiso   1.00
C599   C     0.56943   0.70734   0.29444   0.00000  Uiso   1.00
C600   C     0.56779   0.72954   0.34040   0.00000  Uiso   1.00
C601   C     0.47618   0.96106   0.16789   0.00000  Uiso   1.00
C602   C     0.43485   0.93850   0.15572   0.00000  Uiso   1.00
C603   C     0.43683   0.71406   0.19563   0.00000  Uiso   1.00
C604   C     0.39667   0.70874   0.22090   0.00000  Uiso   1.00
C605   C     0.54056   0.95289   0.32504   0.00000  Uiso   1.00
C606   C     0.50820   0.95302   0.36145   0.00000  Uiso   1.00
C607   C     0.57633   0.81683   0.48265   0.00000  Uiso   1.00
C608   C     0.35689   0.80295   0.27730   0.00000  Uiso   1.00
C609   C     0.64324   0.86506   0.22476   0.00000  Uiso   1.00
C610   C     0.64722   0.80199   0.27654   0.00000  Uiso   1.00
C611   C     0.35291   0.86596   0.22547   0.00000  Uiso   1.00
C612   C     0.62402   0.83282   0.25002   0.00000  Uiso   1.00
Cl613  Cl    0.58584   0.84496   0.38023   0.00000  Uiso   1.00
Cl614  Cl    0.41374   0.82682   0.12081   0.00000  Uiso   1.00
Cl615  Cl    0.37759   0.86007   0.43710   0.00000  Uiso   1.00
Cl616  Cl    0.62240   0.80759   0.06258   0.00000  Uiso   1.00
Cl617  Cl    0.37786   0.87548   0.03945   0.00000  Uiso   1.00
Cl618  Cl    0.62197   0.79321   0.45995   0.00000  Uiso   1.00
H619   H     0.43512   0.83768   0.38236   0.00000  Uiso   1.00
H620   H     0.59409   0.68088   0.29635   0.00000  Uiso   1.00
H621   H     0.58294   0.72773   0.26860   0.00000  Uiso   1.00
H622   H     0.43468   0.92771   0.12009   0.00000  Uiso   1.00
H623   H     0.43090   0.90928   0.17721   0.00000  Uiso   1.00
H624   H     0.40771   0.96141   0.15944   0.00000  Uiso   1.00
H625   H     0.47950   0.98867   0.14359   0.00000  Uiso   1.00
H626   H     0.50421   0.94112   0.16040   0.00000  Uiso   1.00
H627   H     0.40166   0.71885   0.25653   0.00000  Uiso   1.00
H628   H     0.37099   0.72949   0.20464   0.00000  Uiso   1.00
H629   H     0.38699   0.67370   0.22049   0.00000  Uiso   1.00
H630   H     0.56472   0.82823   0.11762   0.00000  Uiso   1.00
H631   H     0.44261   0.74906   0.18973   0.00000  Uiso   1.00
H632   H     0.43109   0.70134   0.16117   0.00000  Uiso   1.00
H633   H     0.47708   0.94199   0.34801   0.00000  Uiso   1.00
H634   H     0.51932   0.93100   0.38981   0.00000  Uiso   1.00
H635   H     0.50403   0.98698   0.37469   0.00000  Uiso   1.00
H636   H     0.55319   0.91983   0.31737   0.00000  Uiso   1.00
H637   H     0.56839   0.96899   0.34053   0.00000  Uiso   1.00
H638   H     0.37514   0.77956   0.29843   0.00000  Uiso   1.00
H639   H     0.62500   0.88907   0.20434   0.00000  Uiso   1.00
H640   H     0.63236   0.77810   0.29732   0.00000  Uiso   1.00
H641   H     0.36787   0.89048   0.20543   0.00000  Uiso   1.00
H642   H     0.59448   0.71748   0.36295   0.00000  Uiso   1.00
H643   H     0.57093   0.76559   0.33641   0.00000  Uiso   1.00
H644   H     0.53814   0.72268   0.35701   0.00000  Uiso   1.00
N645   N     0.50000   0.95240   0.25000   0.00000  Uiso   1.00
N646   N     0.50000   0.71427   0.25000   0.00000  Uiso   1.00
O647   O     0.43892   0.87154   0.25000   0.00000  Uiso   1.00
O648   O     0.56108   0.79513   0.25001   0.00000  Uiso   1.00
O649   O     0.56108   0.87154   0.25001   0.00000  Uiso   1.00
O650   O     0.43892   0.79513   0.25000   0.00000  Uiso   1.00
O651   O     0.49999   0.87156   0.18393   0.00000  Uiso   1.00
O652   O     0.50001   0.79511   0.31608   0.00000  Uiso   1.00
O653   O     0.50001   0.87156   0.31608   0.00000  Uiso   1.00
O654   O     0.49999   0.79511   0.18393   0.00000  Uiso   1.00
Zn655  Zn    0.50000   0.88437   0.25000   0.00000  Uiso   1.00
Zn656  Zn    0.50000   0.78229   0.25000   0.00000  Uiso   1.00
C657   C     0.75362   0.83373   0.25028   0.00000  Uiso   1.00
C658   C     0.70941   0.83447   0.25122   0.00000  Uiso   1.00
C659   C     0.86120   0.68909   0.27732   0.00000  Uiso   1.00
C660   C     0.81305   0.97764   0.21593   0.00000  Uiso   1.00
C661   C     0.80681   0.69107   0.22130   0.00000  Uiso   1.00
C662   C     0.85568   0.97573   0.28261   0.00000  Uiso   1.00
C663   C     0.83269   0.83348   0.16390   0.00000  Uiso   1.00
C664   C     0.83402   0.83321   0.33612   0.00000  Uiso   1.00
C665   C     0.87322   0.83197   0.40868   0.00000  Uiso   1.00
C666   C     0.79332   0.83648   0.09150   0.00000  Uiso   1.00
C667   C     0.83498   0.83297   0.38385   0.00000  Uiso   1.00
C668   C     0.91308   0.83302   0.25012   0.00000  Uiso   1.00
C669   C     0.83160   0.83391   0.11618   0.00000  Uiso   1.00
C670   C     0.79690   0.83592   0.40385   0.00000  Uiso   1.00
C671   C     0.86962   0.83065   0.09615   0.00000  Uiso   1.00
C672   C     0.79581   0.83911   0.45023   0.00000  Uiso   1.00
C673   C     0.87070   0.82833   0.04975   0.00000  Uiso   1.00
C674   C     0.83382   0.83362   0.47655   0.00000  Uiso   1.00
C675   C     0.83267   0.83425   0.02349   0.00000  Uiso   1.00
C676   C     0.87289   0.82743   0.45575   0.00000  Uiso   1.00
C677   C     0.79361   0.84083   0.04432   0.00000  Uiso   1.00
C678   C     0.75775   0.84875   0.47039   0.00000  Uiso   1.00
C679   C     0.75689   0.85151   0.01724   0.00000  Uiso   1.00
C680   C     0.90880   0.81902   0.02949   0.00000  Uiso   1.00
C681   C     0.90276   0.70734   0.29444   0.00000  Uiso   1.00
C682   C     0.90112   0.72954   0.34040   0.00000  Uiso   1.00
C683   C     0.80951   0.96106   0.16789   0.00000  Uiso   1.00
C684   C     0.76818   0.93850   0.15572   0.00000  Uiso   1.00
C685   C     0.77016   0.71406   0.19563   0.00000  Uiso   1.00
C686   C     0.73001   0.70874   0.22090   0.00000  Uiso   1.00
C687   C     0.87390   0.95289   0.32504   0.00000  Uiso   1.00
C688   C     0.84154   0.95302   0.36145   0.00000  Uiso   1.00
C689   C     0.90967   0.81683   0.48265   0.00000  Uiso   1.00
C690   C     0.69023   0.80295   0.27730   0.00000  Uiso   1.00
C691   C     0.97657   0.86506   0.22476   0.00000  Uiso   1.00
C692   C     0.98056   0.80199   0.27654   0.00000  Uiso   1.00
C693   C     0.68625   0.86596   0.22547   0.00000  Uiso   1.00
C694   C     0.95736   0.83282   0.25002   0.00000  Uiso   1.00
Cl695  Cl    0.91917   0.84496   0.38023   0.00000  Uiso   1.00
Cl696  Cl    0.74707   0.82682   0.12081   0.00000  Uiso   1.00
Cl697  Cl    0.71092   0.86007   0.43710   0.00000  Uiso   1.00
Cl698  Cl    0.95574   0.80759   0.06258   0.00000  Uiso   1.00
Cl699  Cl    0.71119   0.87548   0.03945   0.00000  Uiso   1.00
Cl700  Cl    0.95530   0.79321   0.45995   0.00000  Uiso   1.00
H701   H     0.76845   0.83768   0.38236   0.00000  Uiso   1.00
H702   H     0.92743   0.68088   0.29635   0.00000  Uiso   1.00
H703   H     0.91627   0.72773   0.26860   0.00000  Uiso   1.00
H704   H     0.76802   0.92771   0.12009   0.00000  Uiso   1.00
H705   H     0.76423   0.90928   0.17721   0.00000  Uiso   1.00
H706   H     0.74104   0.96141   0.15944   0.00000  Uiso   1.00
H707   H     0.81283   0.98867   0.14359   0.00000  Uiso   1.00
H708   H     0.83754   0.94112   0.16040   0.00000  Uiso   1.00
H709   H     0.73499   0.71885   0.25653   0.00000  Uiso   1.00
H710   H     0.70433   0.72949   0.20464   0.00000  Uiso   1.00
H711   H     0.72032   0.67370   0.22049   0.00000  Uiso   1.00
H712   H     0.89805   0.82823   0.11762   0.00000  Uiso   1.00
H713   H     0.77594   0.74906   0.18973   0.00000  Uiso   1.00
H714   H     0.76443   0.70134   0.16117   0.00000  Uiso   1.00
H715   H     0.81041   0.94199   0.34801   0.00000  Uiso   1.00
H716   H     0.85266   0.93100   0.38981   0.00000  Uiso   1.00
H717   H     0.83736   0.98698   0.37469   0.00000  Uiso   1.00
H718   H     0.88652   0.91983   0.31737   0.00000  Uiso   1.00
H719   H     0.90173   0.96899   0.34053   0.00000  Uiso   1.00
H720   H     0.70847   0.77956   0.29843   0.00000  Uiso   1.00
H721   H     0.95833   0.88907   0.20434   0.00000  Uiso   1.00
H722   H     0.96570   0.77810   0.29732   0.00000  Uiso   1.00
H723   H     0.70120   0.89048   0.20543   0.00000  Uiso   1.00
H724   H     0.92781   0.71748   0.36295   0.00000  Uiso   1.00
H725   H     0.90426   0.76559   0.33641   0.00000  Uiso   1.00
H726   H     0.87147   0.72268   0.35701   0.00000  Uiso   1.00
N727   N     0.83333   0.95240   0.25000   0.00000  Uiso   1.00
N728   N     0.83333   0.71427   0.25000   0.00000  Uiso   1.00
O729   O     0.77226   0.87154   0.25000   0.00000  Uiso   1.00
O730   O     0.89441   0.79513   0.25001   0.00000  Uiso   1.00
O731   O     0.89441   0.87154   0.25001   0.00000  Uiso   1.00
O732   O     0.77226   0.79513   0.25000   0.00000  Uiso   1.00
O733   O     0.83333   0.87156   0.18393   0.00000  Uiso   1.00
O734   O     0.83334   0.79511   0.31608   0.00000  Uiso   1.00
O735   O     0.83334   0.87156   0.31608   0.00000  Uiso   1.00
O736   O     0.83333   0.79511   0.18393   0.00000  Uiso   1.00
Zn737  Zn    0.83333   0.88437   0.25000   0.00000  Uiso   1.00
Zn738  Zn    0.83333   0.78229   0.25000   0.00000  Uiso   1.00
C739   C     0.08695   0.16707   0.75028   0.00000  Uiso   1.00
C740   C     0.04275   0.16781   0.75122   0.00000  Uiso   1.00
C741   C     0.19453   0.02243   0.77732   0.00000  Uiso   1.00
C742   C     0.14638   0.31098   0.71593   0.00000  Uiso   1.00
C743   C     0.14015   0.02440   0.72130   0.00000  Uiso   1.00
C744   C     0.18901   0.30906   0.78261   0.00000  Uiso   1.00
C745   C     0.16602   0.16681   0.66390   0.00000  Uiso   1.00
C746   C     0.16736   0.16654   0.83612   0.00000  Uiso   1.00
C747   C     0.20655   0.16530   0.90868   0.00000  Uiso   1.00
C748   C     0.12665   0.16981   0.59150   0.00000  Uiso   1.00
C749   C     0.16832   0.16631   0.88385   0.00000  Uiso   1.00
C750   C     0.24642   0.16635   0.75012   0.00000  Uiso   1.00
C751   C     0.16494   0.16724   0.61618   0.00000  Uiso   1.00
C752   C     0.13023   0.16926   0.90385   0.00000  Uiso   1.00
C753   C     0.20295   0.16399   0.59615   0.00000  Uiso   1.00
C754   C     0.12914   0.17244   0.95023   0.00000  Uiso   1.00
C755   C     0.20403   0.16167   0.54975   0.00000  Uiso   1.00
C756   C     0.16715   0.16695   0.97655   0.00000  Uiso   1.00
C757   C     0.16600   0.16758   0.52349   0.00000  Uiso   1.00
C758   C     0.20622   0.16076   0.95575   0.00000  Uiso   1.00
C759   C     0.12694   0.17416   0.54432   0.00000  Uiso   1.00
C760   C     0.09108   0.18209   0.97039   0.00000  Uiso   1.00
C761   C     0.09022   0.18484   0.51724   0.00000  Uiso   1.00
C762   C     0.24214   0.15235   0.52949   0.00000  Uiso   1.00
C763   C     0.23610   0.04068   0.79444   0.00000  Uiso   1.00
C764   C     0.23445   0.06287   0.84040   0.00000  Uiso   1.00
C765   C     0.14285   0.29440   0.66789   0.00000  Uiso   1.00
C766   C     0.10152   0.27184   0.65572   0.00000  Uiso   1.00
C767   C     0.10350   0.04740   0.69563   0.00000  Uiso   1.00
C768   C     0.06334   0.04207   0.72090   0.00000  Uiso   1.00
C769   C     0.20723   0.28623   0.82504   0.00000  Uiso   1.00
C770   C     0.17487   0.28636   0.86145   0.00000  Uiso   1.00
C771   C     0.24300   0.15016   0.98265   0.00000  Uiso   1.00
C772   C     0.02356   0.13628   0.77730   0.00000  Uiso   1.00
C773   C     0.30990   0.19839   0.72476   0.00000  Uiso   1.00
C774   C     0.31389   0.13532   0.77654   0.00000  Uiso   1.00
C775   C     0.01958   0.19929   0.72547   0.00000  Uiso   1.00
C776   C     0.29069   0.16615   0.75002   0.00000  Uiso   1.00
Cl777  Cl    0.25250   0.17830   0.88023   0.00000  Uiso   1.00
Cl778  Cl    0.08041   0.16016   0.62081   0.00000  Uiso   1.00
Cl779  Cl    0.04425   0.19341   0.93710   0.00000  Uiso   1.00
Cl780  Cl    0.28907   0.14092   0.56258   0.00000  Uiso   1.00
Cl781  Cl    0.04452   0.20881   0.53945   0.00000  Uiso   1.00
Cl782  Cl    0.28864   0.12655   0.95995   0.00000  Uiso   1.00
H783   H     0.10178   0.17101   0.88236   0.00000  Uiso   1.00
H784   H     0.26076   0.01422   0.79635   0.00000  Uiso   1.00
H785   H     0.24960   0.06106   0.76860   0.00000  Uiso   1.00
H786   H     0.10135   0.26104   0.62009   0.00000  Uiso   1.00
H787   H     0.09756   0.24261   0.67721   0.00000  Uiso   1.00
H788   H     0.07437   0.29474   0.65944   0.00000  Uiso   1.00
H789   H     0.14616   0.32201   0.64359   0.00000  Uiso   1.00
H790   H     0.17088   0.27445   0.66040   0.00000  Uiso   1.00
H791   H     0.06833   0.05218   0.75653   0.00000  Uiso   1.00
H792   H     0.03766   0.06282   0.70464   0.00000  Uiso   1.00
H793   H     0.05365   0.00703   0.72049   0.00000  Uiso   1.00
H794   H     0.23138   0.16156   0.61762   0.00000  Uiso   1.00
H795   H     0.10927   0.08239   0.68973   0.00000  Uiso   1.00
H796   H     0.09776   0.03467   0.66117   0.00000  Uiso   1.00
H797   H     0.14375   0.27533   0.84801   0.00000  Uiso   1.00
H798   H     0.18599   0.26433   0.88981   0.00000  Uiso   1.00
H799   H     0.17069   0.32031   0.87469   0.00000  Uiso   1.00
H800   H     0.21985   0.25316   0.81737   0.00000  Uiso   1.00
H801   H     0.23506   0.30232   0.84053   0.00000  Uiso   1.00
H802   H     0.04181   0.11289   0.79843   0.00000  Uiso   1.00
H803   H     0.29167   0.22241   0.70434   0.00000  Uiso   1.00
H804   H     0.29903   0.11143   0.79732   0.00000  Uiso   1.00
H805   H     0.03453   0.22382   0.70543   0.00000  Uiso   1.00
H806   H     0.26115   0.05082   0.86295   0.00000  Uiso   1.00
H807   H     0.23760   0.09893   0.83641   0.00000  Uiso   1.00
H808   H     0.20480   0.05601   0.85701   0.00000  Uiso   1.00
N809   N     0.16667   0.28573   0.75000   0.00000  Uiso   1.00
N810   N     0.16667   0.04760   0.75000   0.00000  Uiso   1.00
O811   O     0.10559   0.20487   0.75000   0.00000  Uiso   1.00
O812   O     0.22774   0.12846   0.75001   0.00000  Uiso   1.00
O813   O     0.22774   0.20487   0.75001   0.00000  Uiso   1.00
O814   O     0.10559   0.12846   0.75000   0.00000  Uiso   1.00
O815   O     0.16666   0.20489   0.68393   0.00000  Uiso   1.00
O816   O     0.16667   0.12844   0.81608   0.00000  Uiso   1.00
O817   O     0.16667   0.20489   0.81608   0.00000  Uiso   1.00
O818   O     0.16666   0.12844   0.68393   0.00000  Uiso   1.00
Zn819  Zn    0.16667   0.21771   0.75000   0.00000  Uiso   1.00
Zn820  Zn    0.16667   0.11563   0.75000   0.00000  Uiso   1.00
C821   C     0.42028   0.16707   0.75028   0.00000  Uiso   1.00
C822   C     0.37608   0.16781   0.75122   0.00000  Uiso   1.00
C823   C     0.52787   0.02243   0.77732   0.00000  Uiso   1.00
C824   C     0.47971   0.31098   0.71593   0.00000  Uiso   1.00
C825   C     0.47348   0.02440   0.72130   0.00000  Uiso   1.00
C826   C     0.52234   0.30906   0.78261   0.00000  Uiso   1.00
C827   C     0.49935   0.16681   0.66390   0.00000  Uiso   1.00
C828   C     0.50069   0.16654   0.83612   0.00000  Uiso   1.00
C829   C     0.53988   0.16530   0.90868   0.00000  Uiso   1.00
C830   C     0.45999   0.16981   0.59150   0.00000  Uiso   1.00
C831   C     0.50165   0.16631   0.88385   0.00000  Uiso   1.00
C832   C     0.57975   0.16635   0.75012   0.00000  Uiso   1.00
C833   C     0.49827   0.16724   0.61618   0.00000  Uiso   1.00
C834   C     0.46356   0.16926   0.90385   0.00000  Uiso   1.00
C835   C     0.53629   0.16399   0.59615   0.00000  Uiso   1.00
C836   C     0.46247   0.17244   0.95023   0.00000  Uiso   1.00
C837   C     0.53737   0.16167   0.54975   0.00000  Uiso   1.00
C838   C     0.50048   0.16695   0.97655   0.00000  Uiso   1.00
C839   C     0.49934   0.16758   0.52349   0.00000  Uiso   1.00
C840   C     0.53956   0.16076   0.95575   0.00000  Uiso   1.00
C841   C     0.46027   0.17416   0.54432   0.00000  Uiso   1.00
C842   C     0.42441   0.18209   0.97039   0.00000  Uiso   1.00
C843   C     0.42355   0.18484   0.51724   0.00000  Uiso   1.00
C844   C     0.57547   0.15235   0.52949   0.00000  Uiso   1.00
C845   C     0.56943   0.04068   0.79444   0.00000  Uiso   1.00
C846   C     0.56779   0.06287   0.84040   0.00000  Uiso   1.00
C847   C     0.47618   0.29440   0.66789   0.00000  Uiso   1.00
C848   C     0.43485   0.27184   0.65572   0.00000  Uiso   1.00
C849   C     0.43683   0.04740   0.69563   0.00000  Uiso   1.00
C850   C     0.39667   0.04207   0.72090   0.00000  Uiso   1.00
C851   C     0.54056   0.28623   0.82504   0.00000  Uiso   1.00
C852   C     0.50820   0.28636   0.86145   0.00000  Uiso   1.00
C853   C     0.57633   0.15016   0.98265   0.00000  Uiso   1.00
C854   C     0.35689   0.13628   0.77730   0.00000  Uiso   1.00
C855   C     0.64324   0.19839   0.72476   0.00000  Uiso   1.00
C856   C     0.64722   0.13532   0.77654   0.00000  Uiso   1.00
C857   C     0.35291   0.19929   0.72547   0.00000  Uiso   1.00
C858   C     0.62402   0.16615   0.75002   0.00000  Uiso   1.00
Cl859  Cl    0.58584   0.17830   0.88023   0.00000  Uiso   1.00
Cl860  Cl    0.41374   0.16016   0.62081   0.00000  Uiso   1.00
Cl861  Cl    0.37759   0.19341   0.93710   0.00000  Uiso   1.00
Cl862  Cl    0.62240   0.14092   0.56258   0.00000  Uiso   1.00
Cl863  Cl    0.37786   0.20881   0.53945   0.00000  Uiso   1.00
Cl864  Cl    0.62197   0.12655   0.95995   0.00000  Uiso   1.00
H865   H     0.43512   0.17101   0.88236   0.00000  Uiso   1.00
H866   H     0.59409   0.01422   0.79635   0.00000  Uiso   1.00
H867   H     0.58294   0.06106   0.76860   0.00000  Uiso   1.00
H868   H     0.43468   0.26104   0.62009   0.00000  Uiso   1.00
H869   H     0.43090   0.24261   0.67721   0.00000  Uiso   1.00
H870   H     0.40771   0.29474   0.65944   0.00000  Uiso   1.00
H871   H     0.47950   0.32201   0.64359   0.00000  Uiso   1.00
H872   H     0.50421   0.27445   0.66040   0.00000  Uiso   1.00
H873   H     0.40166   0.05218   0.75653   0.00000  Uiso   1.00
H874   H     0.37099   0.06282   0.70464   0.00000  Uiso   1.00
H875   H     0.38699   0.00703   0.72049   0.00000  Uiso   1.00
H876   H     0.56472   0.16156   0.61762   0.00000  Uiso   1.00
H877   H     0.44261   0.08239   0.68973   0.00000  Uiso   1.00
H878   H     0.43109   0.03467   0.66117   0.00000  Uiso   1.00
H879   H     0.47708   0.27533   0.84801   0.00000  Uiso   1.00
H880   H     0.51932   0.26433   0.88981   0.00000  Uiso   1.00
H881   H     0.50403   0.32031   0.87469   0.00000  Uiso   1.00
H882   H     0.55319   0.25316   0.81737   0.00000  Uiso   1.00
H883   H     0.56839   0.30232   0.84053   0.00000  Uiso   1.00
H884   H     0.37514   0.11289   0.79843   0.00000  Uiso   1.00
H885   H     0.62500   0.22241   0.70434   0.00000  Uiso   1.00
H886   H     0.63236   0.11143   0.79732   0.00000  Uiso   1.00
H887   H     0.36787   0.22382   0.70543   0.00000  Uiso   1.00
H888   H     0.59448   0.05082   0.86295   0.00000  Uiso   1.00
H889   H     0.57093   0.09893   0.83641   0.00000  Uiso   1.00
H890   H     0.53814   0.05601   0.85701   0.00000  Uiso   1.00
N891   N     0.50000   0.28573   0.75000   0.00000  Uiso   1.00
N892   N     0.50000   0.04760   0.75000   0.00000  Uiso   1.00
O893   O     0.43892   0.20487   0.75000   0.00000  Uiso   1.00
O894   O     0.56108   0.12846   0.75001   0.00000  Uiso   1.00
O895   O     0.56108   0.20487   0.75001   0.00000  Uiso   1.00
O896   O     0.43892   0.12846   0.75000   0.00000  Uiso   1.00
O897   O     0.49999   0.20489   0.68393   0.00000  Uiso   1.00
O898   O     0.50001   0.12844   0.81608   0.00000  Uiso   1.00
O899   O     0.50001   0.20489   0.81608   0.00000  Uiso   1.00
O900   O     0.49999   0.12844   0.68393   0.00000  Uiso   1.00
Zn901  Zn    0.50000   0.21771   0.75000   0.00000  Uiso   1.00
Zn902  Zn    0.50000   0.11563   0.75000   0.00000  Uiso   1.00
C903   C     0.75362   0.16707   0.75028   0.00000  Uiso   1.00
C904   C     0.70941   0.16781   0.75122   0.00000  Uiso   1.00
C905   C     0.86120   0.02243   0.77732   0.00000  Uiso   1.00
C906   C     0.81305   0.31098   0.71593   0.00000  Uiso   1.00
C907   C     0.80681   0.02440   0.72130   0.00000  Uiso   1.00
C908   C     0.85568   0.30906   0.78261   0.00000  Uiso   1.00
C909   C     0.83269   0.16681   0.66390   0.00000  Uiso   1.00
C910   C     0.83402   0.16654   0.83612   0.00000  Uiso   1.00
C911   C     0.87322   0.16530   0.90868   0.00000  Uiso   1.00
C912   C     0.79332   0.16981   0.59150   0.00000  Uiso   1.00
C913   C     0.83498   0.16631   0.88385   0.00000  Uiso   1.00
C914   C     0.91308   0.16635   0.75012   0.00000  Uiso   1.00
C915   C     0.83160   0.16724   0.61618   0.00000  Uiso   1.00
C916   C     0.79690   0.16926   0.90385   0.00000  Uiso   1.00
C917   C     0.86962   0.16399   0.59615   0.00000  Uiso   1.00
C918   C     0.79581   0.17244   0.95023   0.00000  Uiso   1.00
C919   C     0.87070   0.16167   0.54975   0.00000  Uiso   1.00
C920   C     0.83382   0.16695   0.97655   0.00000  Uiso   1.00
C921   C     0.83267   0.16758   0.52349   0.00000  Uiso   1.00
C922   C     0.87289   0.16076   0.95575   0.00000  Uiso   1.00
C923   C     0.79361   0.17416   0.54432   0.00000  Uiso   1.00
C924   C     0.75775   0.18209   0.97039   0.00000  Uiso   1.00
C925   C     0.75689   0.18484   0.51724   0.00000  Uiso   1.00
C926   C     0.90880   0.15235   0.52949   0.00000  Uiso   1.00
C927   C     0.90276   0.04068   0.79444   0.00000  Uiso   1.00
C928   C     0.90112   0.06287   0.84040   0.00000  Uiso   1.00
C929   C     0.80951   0.29440   0.66789   0.00000  Uiso   1.00
C930   C     0.76818   0.27184   0.65572   0.00000  Uiso   1.00
C931   C     0.77016   0.04740   0.69563   0.00000  Uiso   1.00
C932   C     0.73001   0.04207   0.72090   0.00000  Uiso   1.00
C933   C     0.87390   0.28623   0.82504   0.00000  Uiso   1.00
C934   C     0.84154   0.28636   0.86145   0.00000  Uiso   1.00
C935   C     0.90967   0.15016   0.98265   0.00000  Uiso   1.00
C936   C     0.69023   0.13628   0.77730   0.00000  Uiso   1.00
C937   C     0.97657   0.19839   0.72476   0.00000  Uiso   1.00
C938   C     0.98056   0.13532   0.77654   0.00000  Uiso   1.00
C939   C     0.68625   0.19929   0.72547   0.00000  Uiso   1.00
C940   C     0.95736   0.16615   0.75002   0.00000  Uiso   1.00
Cl941  Cl    0.91917   0.17830   0.88023   0.00000  Uiso   1.00
Cl942  Cl    0.74707   0.16016   0.62081   0.00000  Uiso   1.00
Cl943  Cl    0.71092   0.19341   0.93710   0.00000  Uiso   1.00
Cl944  Cl    0.95574   0.14092   0.56258   0.00000  Uiso   1.00
Cl945  Cl    0.71119   0.20881   0.53945   0.00000  Uiso   1.00
Cl946  Cl    0.95530   0.12655   0.95995   0.00000  Uiso   1.00
H947   H     0.76845   0.17101   0.88236   0.00000  Uiso   1.00
H948   H     0.92743   0.01422   0.79635   0.00000  Uiso   1.00
H949   H     0.91627   0.06106   0.76860   0.00000  Uiso   1.00
H950   H     0.76802   0.26104   0.62009   0.00000  Uiso   1.00
H951   H     0.76423   0.24261   0.67721   0.00000  Uiso   1.00
H952   H     0.74104   0.29474   0.65944   0.00000  Uiso   1.00
H953   H     0.81283   0.32201   0.64359   0.00000  Uiso   1.00
H954   H     0.83754   0.27445   0.66040   0.00000  Uiso   1.00
H955   H     0.73499   0.05218   0.75653   0.00000  Uiso   1.00
H956   H     0.70433   0.06282   0.70464   0.00000  Uiso   1.00
H957   H     0.72032   0.00703   0.72049   0.00000  Uiso   1.00
H958   H     0.89805   0.16156   0.61762   0.00000  Uiso   1.00
H959   H     0.77594   0.08239   0.68973   0.00000  Uiso   1.00
H960   H     0.76443   0.03467   0.66117   0.00000  Uiso   1.00
H961   H     0.81041   0.27533   0.84801   0.00000  Uiso   1.00
H962   H     0.85266   0.26433   0.88981   0.00000  Uiso   1.00
H963   H     0.83736   0.32031   0.87469   0.00000  Uiso   1.00
H964   H     0.88652   0.25316   0.81737   0.00000  Uiso   1.00
H965   H     0.90173   0.30232   0.84053   0.00000  Uiso   1.00
H966   H     0.70847   0.11289   0.79843   0.00000  Uiso   1.00
H967   H     0.95833   0.22241   0.70434   0.00000  Uiso   1.00
H968   H     0.96570   0.11143   0.79732   0.00000  Uiso   1.00
H969   H     0.70120   0.22382   0.70543   0.00000  Uiso   1.00
H970   H     0.92781   0.05082   0.86295   0.00000  Uiso   1.00
H971   H     0.90426   0.09893   0.83641   0.00000  Uiso   1.00
H972   H     0.87147   0.05601   0.85701   0.00000  Uiso   1.00
N973   N     0.83333   0.28573   0.75000   0.00000  Uiso   1.00
N974   N     0.83333   0.04760   0.75000   0.00000  Uiso   1.00
O975   O     0.77226   0.20487   0.75000   0.00000  Uiso   1.00
O976   O     0.89441   0.12846   0.75001   0.00000  Uiso   1.00
O977   O     0.89441   0.20487   0.75001   0.00000  Uiso   1.00
O978   O     0.77226   0.12846   0.75000   0.00000  Uiso   1.00
O979   O     0.83333   0.20489   0.68393   0.00000  Uiso   1.00
O980   O     0.83334   0.12844   0.81608   0.00000  Uiso   1.00
O981   O     0.83334   0.20489   0.81608   0.00000  Uiso   1.00
O982   O     0.83333   0.12844   0.68393   0.00000  Uiso   1.00
Zn983  Zn    0.83333   0.21771   0.75000   0.00000  Uiso   1.00
Zn984  Zn    0.83333   0.11563   0.75000   0.00000  Uiso   1.00
C985   C     0.08695   0.50040   0.75028   0.00000  Uiso   1.00
C986   C     0.04275   0.50114   0.75122   0.00000  Uiso   1.00
C987   C     0.19453   0.35576   0.77732   0.00000  Uiso   1.00
C988   C     0.14638   0.64431   0.71593   0.00000  Uiso   1.00
C989   C     0.14015   0.35774   0.72130   0.00000  Uiso   1.00
C990   C     0.18901   0.64239   0.78261   0.00000  Uiso   1.00
C991   C     0.16602   0.50015   0.66390   0.00000  Uiso   1.00
C992   C     0.16736   0.49988   0.83612   0.00000  Uiso   1.00
C993   C     0.20655   0.49863   0.90868   0.00000  Uiso   1.00
C994   C     0.12665   0.50315   0.59150   0.00000  Uiso   1.00
C995   C     0.16832   0.49964   0.88385   0.00000  Uiso   1.00
C996   C     0.24642   0.49969   0.75012   0.00000  Uiso   1.00
C997   C     0.16494   0.50057   0.61618   0.00000  Uiso   1.00
C998   C     0.13023   0.50259   0.90385   0.00000  Uiso   1.00
C999   C     0.20295   0.49732   0.59615   0.00000  Uiso   1.00
C1000  C     0.12914   0.50577   0.95023   0.00000  Uiso   1.00
C1001  C     0.20403   0.49500   0.54975   0.00000  Uiso   1.00
C1002  C     0.16715   0.50029   0.97655   0.00000  Uiso   1.00
C1003  C     0.16600   0.50092   0.52349   0.00000  Uiso   1.00
C1004  C     0.20622   0.49410   0.95575   0.00000  Uiso   1.00
C1005  C     0.12694   0.50750   0.54432   0.00000  Uiso   1.00
C1006  C     0.09108   0.51542   0.97039   0.00000  Uiso   1.00
C1007  C     0.09022   0.51817   0.51724   0.00000  Uiso   1.00
C1008  C     0.24214   0.48568   0.52949   0.00000  Uiso   1.00
C1009  C     0.23610   0.37401   0.79444   0.00000  Uiso   1.00
C1010  C     0.23445   0.39620   0.84040   0.00000  Uiso   1.00
C1011  C     0.14285   0.62773   0.66789   0.00000  Uiso   1.00
C1012  C     0.10152   0.60517   0.65572   0.00000  Uiso   1.00
C1013  C     0.10350   0.38073   0.69563   0.00000  Uiso   1.00
C1014  C     0.06334   0.37541   0.72090   0.00000  Uiso   1.00
C1015  C     0.20723   0.61956   0.82504   0.00000  Uiso   1.00
C1016  C     0.17487   0.61969   0.86145   0.00000  Uiso   1.00
C1017  C     0.24300   0.48350   0.98265   0.00000  Uiso   1.00
C1018  C     0.02356   0.46961   0.77730   0.00000  Uiso   1.00
C1019  C     0.30990   0.53172   0.72476   0.00000  Uiso   1.00
C1020  C     0.31389   0.46866   0.77654   0.00000  Uiso   1.00
C1021  C     0.01958   0.53263   0.72547   0.00000  Uiso   1.00
C1022  C     0.29069   0.49949   0.75002   0.00000  Uiso   1.00
Cl1023 Cl    0.25250   0.51163   0.88023   0.00000  Uiso   1.00
Cl1024 Cl    0.08041   0.49349   0.62081   0.00000  Uiso   1.00
Cl1025 Cl    0.04425   0.52674   0.93710   0.00000  Uiso   1.00
Cl1026 Cl    0.28907   0.47426   0.56258   0.00000  Uiso   1.00
Cl1027 Cl    0.04452   0.54215   0.53945   0.00000  Uiso   1.00
Cl1028 Cl    0.28864   0.45988   0.95995   0.00000  Uiso   1.00
H1029  H     0.10178   0.50434   0.88236   0.00000  Uiso   1.00
H1030  H     0.26076   0.34755   0.79635   0.00000  Uiso   1.00
H1031  H     0.24960   0.39440   0.76860   0.00000  Uiso   1.00
H1032  H     0.10135   0.59437   0.62009   0.00000  Uiso   1.00
H1033  H     0.09756   0.57594   0.67721   0.00000  Uiso   1.00
H1034  H     0.07437   0.62807   0.65944   0.00000  Uiso   1.00
H1035  H     0.14616   0.65534   0.64359   0.00000  Uiso   1.00
H1036  H     0.17088   0.60779   0.66040   0.00000  Uiso   1.00
H1037  H     0.06833   0.38552   0.75653   0.00000  Uiso   1.00
H1038  H     0.03766   0.39615   0.70464   0.00000  Uiso   1.00
H1039  H     0.05365   0.34037   0.72049   0.00000  Uiso   1.00
H1040  H     0.23138   0.49489   0.61762   0.00000  Uiso   1.00
H1041  H     0.10927   0.41572   0.68973   0.00000  Uiso   1.00
H1042  H     0.09776   0.36800   0.66117   0.00000  Uiso   1.00
H1043  H     0.14375   0.60866   0.84801   0.00000  Uiso   1.00
H1044  H     0.18599   0.59766   0.88981   0.00000  Uiso   1.00
H1045  H     0.17069   0.65364   0.87469   0.00000  Uiso   1.00
H1046  H     0.21985   0.58650   0.81737   0.00000  Uiso   1.00
H1047  H     0.23506   0.63566   0.84053   0.00000  Uiso   1.00
H1048  H     0.04181   0.44622   0.79843   0.00000  Uiso   1.00
H1049  H     0.29167   0.55574   0.70434   0.00000  Uiso   1.00
H1050  H     0.29903   0.44477   0.79732   0.00000  Uiso   1.00
H1051  H     0.03453   0.55715   0.70543   0.00000  Uiso   1.00
H1052  H     0.26115   0.38415   0.86295   0.00000  Uiso   1.00
H1053  H     0.23760   0.43226   0.83641   0.00000  Uiso   1.00
H1054  H     0.20480   0.38935   0.85701   0.00000  Uiso   1.00
N1055  N     0.16667   0.61907   0.75000   0.00000  Uiso   1.00
N1056  N     0.16667   0.38093   0.75000   0.00000  Uiso   1.00
O1057  O     0.10559   0.53821   0.75000   0.00000  Uiso   1.00
O1058  O     0.22774   0.46179   0.75001   0.00000  Uiso   1.00
O1059  O     0.22774   0.53821   0.75001   0.00000  Uiso   1.00
O1060  O     0.10559   0.46179   0.75000   0.00000  Uiso   1.00
O1061  O     0.16666   0.53823   0.68393   0.00000  Uiso   1.00
O1062  O     0.16667   0.46177   0.81608   0.00000  Uiso   1.00
O1063  O     0.16667   0.53823   0.81608   0.00000  Uiso   1.00
O1064  O     0.16666   0.46177   0.68393   0.00000  Uiso   1.00
Zn1065 Zn    0.16667   0.55104   0.75000   0.00000  Uiso   1.00
Zn1066 Zn    0.16667   0.44896   0.75000   0.00000  Uiso   1.00
C1067  C     0.42028   0.50040   0.75028   0.00000  Uiso   1.00
C1068  C     0.37608   0.50114   0.75122   0.00000  Uiso   1.00
C1069  C     0.52787   0.35576   0.77732   0.00000  Uiso   1.00
C1070  C     0.47971   0.64431   0.71593   0.00000  Uiso   1.00
C1071  C     0.47348   0.35774   0.72130   0.00000  Uiso   1.00
C1072  C     0.52234   0.64239   0.78261   0.00000  Uiso   1.00
C1073  C     0.49935   0.50015   0.66390   0.00000  Uiso   1.00
C1074  C     0.50069   0.49988   0.83612   0.00000  Uiso   1.00
C1075  C     0.53988   0.49863   0.90868   0.00000  Uiso   1.00
C1076  C     0.45999   0.50315   0.59150   0.00000  Uiso   1.00
C1077  C     0.50165   0.49964   0.88385   0.00000  Uiso   1.00
C1078  C     0.57975   0.49969   0.75012   0.00000  Uiso   1.00
C1079  C     0.49827   0.50057   0.61618   0.00000  Uiso   1.00
C1080  C     0.46356   0.50259   0.90385   0.00000  Uiso   1.00
C1081  C     0.53629   0.49732   0.59615   0.00000  Uiso   1.00
C1082  C     0.46247   0.50577   0.95023   0.00000  Uiso   1.00
C1083  C     0.53737   0.49500   0.54975   0.00000  Uiso   1.00
C1084  C     0.50048   0.50029   0.97655   0.00000  Uiso   1.00
C1085  C     0.49934   0.50092   0.52349   0.00000  Uiso   1.00
C1086  C     0.53956   0.49410   0.95575   0.00000  Uiso   1.00
C1087  C     0.46027   0.50750   0.54432   0.00000  Uiso   1.00
C1088  C     0.42441   0.51542   0.97039   0.00000  Uiso   1.00
C1089  C     0.42355   0.51817   0.51724   0.00000  Uiso   1.00
C1090  C     0.57547   0.48568   0.52949   0.00000  Uiso   1.00
C1091  C     0.56943   0.37401   0.79444   0.00000  Uiso   1.00
C1092  C     0.56779   0.39620   0.84040   0.00000  Uiso   1.00
C1093  C     0.47618   0.62773   0.66789   0.00000  Uiso   1.00
C1094  C     0.43485   0.60517   0.65572   0.00000  Uiso   1.00
C1095  C     0.43683   0.38073   0.69563   0.00000  Uiso   1.00
C1096  C     0.39667   0.37541   0.72090   0.00000  Uiso   1.00
C1097  C     0.54056   0.61956   0.82504   0.00000  Uiso   1.00
C1098  C     0.50820   0.61969   0.86145   0.00000  Uiso   1.00
C1099  C     0.57633   0.48350   0.98265   0.00000  Uiso   1.00
C1100  C     0.35689   0.46961   0.77730   0.00000  Uiso   1.00
C1101  C     0.64324   0.53172   0.72476   0.00000  Uiso   1.00
C1102  C     0.64722   0.46866   0.77654   0.00000  Uiso   1.00
C1103  C     0.35291   0.53263   0.72547   0.00000  Uiso   1.00
C1104  C     0.62402   0.49949   0.75002   0.00000  Uiso   1.00
Cl1105 Cl    0.58584   0.51163   0.88023   0.00000  Uiso   1.00
Cl1106 Cl    0.41374   0.49349   0.62081   0.00000  Uiso   1.00
Cl1107 Cl    0.37759   0.52674   0.93710   0.00000  Uiso   1.00
Cl1108 Cl    0.62240   0.47426   0.56258   0.00000  Uiso   1.00
Cl1109 Cl    0.37786   0.54215   0.53945   0.00000  Uiso   1.00
Cl1110 Cl    0.62197   0.45988   0.95995   0.00000  Uiso   1.00
H1111  H     0.43512   0.50434   0.88236   0.00000  Uiso   1.00
H1112  H     0.59409   0.34755   0.79635   0.00000  Uiso   1.00
H1113  H     0.58294   0.39440   0.76860   0.00000  Uiso   1.00
H1114  H     0.43468   0.59437   0.62009   0.00000  Uiso   1.00
H1115  H     0.43090   0.57594   0.67721   0.00000  Uiso   1.00
H1116  H     0.40771   0.62807   0.65944   0.00000  Uiso   1.00
H1117  H     0.47950   0.65534   0.64359   0.00000  Uiso   1.00
H1118  H     0.50421   0.60779   0.66040   0.00000  Uiso   1.00
H1119  H     0.40166   0.38552   0.75653   0.00000  Uiso   1.00
H1120  H     0.37099   0.39615   0.70464   0.00000  Uiso   1.00
H1121  H     0.38699   0.34037   0.72049   0.00000  Uiso   1.00
H1122  H     0.56472   0.49489   0.61762   0.00000  Uiso   1.00
H1123  H     0.44261   0.41572   0.68973   0.00000  Uiso   1.00
H1124  H     0.43109   0.36800   0.66117   0.00000  Uiso   1.00
H1125  H     0.47708   0.60866   0.84801   0.00000  Uiso   1.00
H1126  H     0.51932   0.59766   0.88981   0.00000  Uiso   1.00
H1127  H     0.50403   0.65364   0.87469   0.00000  Uiso   1.00
H1128  H     0.55319   0.58650   0.81737   0.00000  Uiso   1.00
H1129  H     0.56839   0.63566   0.84053   0.00000  Uiso   1.00
H1130  H     0.37514   0.44622   0.79843   0.00000  Uiso   1.00
H1131  H     0.62500   0.55574   0.70434   0.00000  Uiso   1.00
H1132  H     0.63236   0.44477   0.79732   0.00000  Uiso   1.00
H1133  H     0.36787   0.55715   0.70543   0.00000  Uiso   1.00
H1134  H     0.59448   0.38415   0.86295   0.00000  Uiso   1.00
H1135  H     0.57093   0.43226   0.83641   0.00000  Uiso   1.00
H1136  H     0.53814   0.38935   0.85701   0.00000  Uiso   1.00
N1137  N     0.50000   0.61907   0.75000   0.00000  Uiso   1.00
N1138  N     0.50000   0.38093   0.75000   0.00000  Uiso   1.00
O1139  O     0.43892   0.53821   0.75000   0.00000  Uiso   1.00
O1140  O     0.56108   0.46179   0.75001   0.00000  Uiso   1.00
O1141  O     0.56108   0.53821   0.75001   0.00000  Uiso   1.00
O1142  O     0.43892   0.46179   0.75000   0.00000  Uiso   1.00
O1143  O     0.49999   0.53823   0.68393   0.00000  Uiso   1.00
O1144  O     0.50001   0.46177   0.81608   0.00000  Uiso   1.00
O1145  O     0.50001   0.53823   0.81608   0.00000  Uiso   1.00
O1146  O     0.49999   0.46177   0.68393   0.00000  Uiso   1.00
Zn1147 Zn    0.50000   0.55104   0.75000   0.00000  Uiso   1.00
Zn1148 Zn    0.50000   0.44896   0.75000   0.00000  Uiso   1.00
C1149  C     0.75362   0.50040   0.75028   0.00000  Uiso   1.00
C1150  C     0.70941   0.50114   0.75122   0.00000  Uiso   1.00
C1151  C     0.86120   0.35576   0.77732   0.00000  Uiso   1.00
C1152  C     0.81305   0.64431   0.71593   0.00000  Uiso   1.00
C1153  C     0.80681   0.35774   0.72130   0.00000  Uiso   1.00
C1154  C     0.85568   0.64239   0.78261   0.00000  Uiso   1.00
C1155  C     0.83269   0.50015   0.66390   0.00000  Uiso   1.00
C1156  C     0.83402   0.49988   0.83612   0.00000  Uiso   1.00
C1157  C     0.87322   0.49863   0.90868   0.00000  Uiso   1.00
C1158  C     0.79332   0.50315   0.59150   0.00000  Uiso   1.00
C1159  C     0.83498   0.49964   0.88385   0.00000  Uiso   1.00
C1160  C     0.91308   0.49969   0.75012   0.00000  Uiso   1.00
C1161  C     0.83160   0.50057   0.61618   0.00000  Uiso   1.00
C1162  C     0.79690   0.50259   0.90385   0.00000  Uiso   1.00
C1163  C     0.86962   0.49732   0.59615   0.00000  Uiso   1.00
C1164  C     0.79581   0.50577   0.95023   0.00000  Uiso   1.00
C1165  C     0.87070   0.49500   0.54975   0.00000  Uiso   1.00
C1166  C     0.83382   0.50029   0.97655   0.00000  Uiso   1.00
C1167  C     0.83267   0.50092   0.52349   0.00000  Uiso   1.00
C1168  C     0.87289   0.49410   0.95575   0.00000  Uiso   1.00
C1169  C     0.79361   0.50750   0.54432   0.00000  Uiso   1.00
C1170  C     0.75775   0.51542   0.97039   0.00000  Uiso   1.00
C1171  C     0.75689   0.51817   0.51724   0.00000  Uiso   1.00
C1172  C     0.90880   0.48568   0.52949   0.00000  Uiso   1.00
C1173  C     0.90276   0.37401   0.79444   0.00000  Uiso   1.00
C1174  C     0.90112   0.39620   0.84040   0.00000  Uiso   1.00
C1175  C     0.80951   0.62773   0.66789   0.00000  Uiso   1.00
C1176  C     0.76818   0.60517   0.65572   0.00000  Uiso   1.00
C1177  C     0.77016   0.38073   0.69563   0.00000  Uiso   1.00
C1178  C     0.73001   0.37541   0.72090   0.00000  Uiso   1.00
C1179  C     0.87390   0.61956   0.82504   0.00000  Uiso   1.00
C1180  C     0.84154   0.61969   0.86145   0.00000  Uiso   1.00
C1181  C     0.90967   0.48350   0.98265   0.00000  Uiso   1.00
C1182  C     0.69023   0.46961   0.77730   0.00000  Uiso   1.00
C1183  C     0.97657   0.53172   0.72476   0.00000  Uiso   1.00
C1184  C     0.98056   0.46866   0.77654   0.00000  Uiso   1.00
C1185  C     0.68625   0.53263   0.72547   0.00000  Uiso   1.00
C1186  C     0.95736   0.49949   0.75002   0.00000  Uiso   1.00
Cl1187 Cl    0.91917   0.51163   0.88023   0.00000  Uiso   1.00
Cl1188 Cl    0.74707   0.49349   0.62081   0.00000  Uiso   1.00
Cl1189 Cl    0.71092   0.52674   0.93710   0.00000  Uiso   1.00
Cl1190 Cl    0.95574   0.47426   0.56258   0.00000  Uiso   1.00
Cl1191 Cl    0.71119   0.54215   0.53945   0.00000  Uiso   1.00
Cl1192 Cl    0.95530   0.45988   0.95995   0.00000  Uiso   1.00
H1193  H     0.76845   0.50434   0.88236   0.00000  Uiso   1.00
H1194  H     0.92743   0.34755   0.79635   0.00000  Uiso   1.00
H1195  H     0.91627   0.39440   0.76860   0.00000  Uiso   1.00
H1196  H     0.76802   0.59437   0.62009   0.00000  Uiso   1.00
H1197  H     0.76423   0.57594   0.67721   0.00000  Uiso   1.00
H1198  H     0.74104   0.62807   0.65944   0.00000  Uiso   1.00
H1199  H     0.81283   0.65534   0.64359   0.00000  Uiso   1.00
H1200  H     0.83754   0.60779   0.66040   0.00000  Uiso   1.00
H1201  H     0.73499   0.38552   0.75653   0.00000  Uiso   1.00
H1202  H     0.70433   0.39615   0.70464   0.00000  Uiso   1.00
H1203  H     0.72032   0.34037   0.72049   0.00000  Uiso   1.00
H1204  H     0.89805   0.49489   0.61762   0.00000  Uiso   1.00
H1205  H     0.77594   0.41572   0.68973   0.00000  Uiso   1.00
H1206  H     0.76443   0.36800   0.66117   0.00000  Uiso   1.00
H1207  H     0.81041   0.60866   0.84801   0.00000  Uiso   1.00
H1208  H     0.85266   0.59766   0.88981   0.00000  Uiso   1.00
H1209  H     0.83736   0.65364   0.87469   0.00000  Uiso   1.00
H1210  H     0.88652   0.58650   0.81737   0.00000  Uiso   1.00
H1211  H     0.90173   0.63566   0.84053   0.00000  Uiso   1.00
H1212  H     0.70847   0.44622   0.79843   0.00000  Uiso   1.00
H1213  H     0.95833   0.55574   0.70434   0.00000  Uiso   1.00
H1214  H     0.96570   0.44477   0.79732   0.00000  Uiso   1.00
H1215  H     0.70120   0.55715   0.70543   0.00000  Uiso   1.00
H1216  H     0.92781   0.38415   0.86295   0.00000  Uiso   1.00
H1217  H     0.90426   0.43226   0.83641   0.00000  Uiso   1.00
H1218  H     0.87147   0.38935   0.85701   0.00000  Uiso   1.00
N1219  N     0.83333   0.61907   0.75000   0.00000  Uiso   1.00
N1220  N     0.83333   0.38093   0.75000   0.00000  Uiso   1.00
O1221  O     0.77226   0.53821   0.75000   0.00000  Uiso   1.00
O1222  O     0.89441   0.46179   0.75001   0.00000  Uiso   1.00
O1223  O     0.89441   0.53821   0.75001   0.00000  Uiso   1.00
O1224  O     0.77226   0.46179   0.75000   0.00000  Uiso   1.00
O1225  O     0.83333   0.53823   0.68393   0.00000  Uiso   1.00
O1226  O     0.83334   0.46177   0.81608   0.00000  Uiso   1.00
O1227  O     0.83334   0.53823   0.81608   0.00000  Uiso   1.00
O1228  O     0.83333   0.46177   0.68393   0.00000  Uiso   1.00
Zn1229 Zn    0.83333   0.55104   0.75000   0.00000  Uiso   1.00
Zn1230 Zn    0.83333   0.44896   0.75000   0.00000  Uiso   1.00
C1231  C     0.08695   0.83373   0.75028   0.00000  Uiso   1.00
C1232  C     0.04275   0.83447   0.75122   0.00000  Uiso   1.00
C1233  C     0.19453   0.68909   0.77732   0.00000  Uiso   1.00
C1234  C     0.14638   0.97764   0.71593   0.00000  Uiso   1.00
C1235  C     0.14015   0.69107   0.72130   0.00000  Uiso   1.00
C1236  C     0.18901   0.97573   0.78261   0.00000  Uiso   1.00
C1237  C     0.16602   0.83348   0.66390   0.00000  Uiso   1.00
C1238  C     0.16736   0.83321   0.83612   0.00000  Uiso   1.00
C1239  C     0.20655   0.83197   0.90868   0.00000  Uiso   1.00
C1240  C     0.12665   0.83648   0.59150   0.00000  Uiso   1.00
C1241  C     0.16832   0.83297   0.88385   0.00000  Uiso   1.00
C1242  C     0.24642   0.83302   0.75012   0.00000  Uiso   1.00
C1243  C     0.16494   0.83391   0.61618   0.00000  Uiso   1.00
C1244  C     0.13023   0.83592   0.90385   0.00000  Uiso   1.00
C1245  C     0.20295   0.83065   0.59615   0.00000  Uiso   1.00
C1246  C     0.12914   0.83911   0.95023   0.00000  Uiso   1.00
C1247  C     0.20403   0.82833   0.54975   0.00000  Uiso   1.00
C1248  C     0.16715   0.83362   0.97655   0.00000  Uiso   1.00
C1249  C     0.16600   0.83425   0.52349   0.00000  Uiso   1.00
C1250  C     0.20622   0.82743   0.95575   0.00000  Uiso   1.00
C1251  C     0.12694   0.84083   0.54432   0.00000  Uiso   1.00
C1252  C     0.09108   0.84875   0.97039   0.00000  Uiso   1.00
C1253  C     0.09022   0.85151   0.51724   0.00000  Uiso   1.00
C1254  C     0.24214   0.81902   0.52949   0.00000  Uiso   1.00
C1255  C     0.23610   0.70734   0.79444   0.00000  Uiso   1.00
C1256  C     0.23445   0.72954   0.84040   0.00000  Uiso   1.00
C1257  C     0.14285   0.96106   0.66789   0.00000  Uiso   1.00
C1258  C     0.10152   0.93850   0.65572   0.00000  Uiso   1.00
C1259  C     0.10350   0.71406   0.69563   0.00000  Uiso   1.00
C1260  C     0.06334   0.70874   0.72090   0.00000  Uiso   1.00
C1261  C     0.20723   0.95289   0.82504   0.00000  Uiso   1.00
C1262  C     0.17487   0.95302   0.86145   0.00000  Uiso   1.00
C1263  C     0.24300   0.81683   0.98265   0.00000  Uiso   1.00
C1264  C     0.02356   0.80295   0.77730   0.00000  Uiso   1.00
C1265  C     0.30990   0.86506   0.72476   0.00000  Uiso   1.00
C1266  C     0.31389   0.80199   0.77654   0.00000  Uiso   1.00
C1267  C     0.01958   0.86596   0.72547   0.00000  Uiso   1.00
C1268  C     0.29069   0.83282   0.75002   0.00000  Uiso   1.00
Cl1269 Cl    0.25250   0.84496   0.88023   0.00000  Uiso   1.00
Cl1270 Cl    0.08041   0.82682   0.62081   0.00000  Uiso   1.00
Cl1271 Cl    0.04425   0.86007   0.93710   0.00000  Uiso   1.00
Cl1272 Cl    0.28907   0.80759   0.56258   0.00000  Uiso   1.00
Cl1273 Cl    0.04452   0.87548   0.53945   0.00000  Uiso   1.00
Cl1274 Cl    0.28864   0.79321   0.95995   0.00000  Uiso   1.00
H1275  H     0.10178   0.83768   0.88236   0.00000  Uiso   1.00
H1276  H     0.26076   0.68088   0.79635   0.00000  Uiso   1.00
H1277  H     0.24960   0.72773   0.76860   0.00000  Uiso   1.00
H1278  H     0.10135   0.92771   0.62009   0.00000  Uiso   1.00
H1279  H     0.09756   0.90928   0.67721   0.00000  Uiso   1.00
H1280  H     0.07437   0.96141   0.65944   0.00000  Uiso   1.00
H1281  H     0.14616   0.98867   0.64359   0.00000  Uiso   1.00
H1282  H     0.17088   0.94112   0.66040   0.00000  Uiso   1.00
H1283  H     0.06833   0.71885   0.75653   0.00000  Uiso   1.00
H1284  H     0.03766   0.72949   0.70464   0.00000  Uiso   1.00
H1285  H     0.05365   0.67370   0.72049   0.00000  Uiso   1.00
H1286  H     0.23138   0.82823   0.61762   0.00000  Uiso   1.00
H1287  H     0.10927   0.74906   0.68973   0.00000  Uiso   1.00
H1288  H     0.09776   0.70134   0.66117   0.00000  Uiso   1.00
H1289  H     0.14375   0.94199   0.84801   0.00000  Uiso   1.00
H1290  H     0.18599   0.93100   0.88981   0.00000  Uiso   1.00
H1291  H     0.17069   0.98698   0.87469   0.00000  Uiso   1.00
H1292  H     0.21985   0.91983   0.81737   0.00000  Uiso   1.00
H1293  H     0.23506   0.96899   0.84053   0.00000  Uiso   1.00
H1294  H     0.04181   0.77956   0.79843   0.00000  Uiso   1.00
H1295  H     0.29167   0.88907   0.70434   0.00000  Uiso   1.00
H1296  H     0.29903   0.77810   0.79732   0.00000  Uiso   1.00
H1297  H     0.03453   0.89048   0.70543   0.00000  Uiso   1.00
H1298  H     0.26115   0.71748   0.86295   0.00000  Uiso   1.00
H1299  H     0.23760   0.76559   0.83641   0.00000  Uiso   1.00
H1300  H     0.20480   0.72268   0.85701   0.00000  Uiso   1.00
N1301  N     0.16667   0.95240   0.75000   0.00000  Uiso   1.00
N1302  N     0.16667   0.71427   0.75000   0.00000  Uiso   1.00
O1303  O     0.10559   0.87154   0.75000   0.00000  Uiso   1.00
O1304  O     0.22774   0.79513   0.75001   0.00000  Uiso   1.00
O1305  O     0.22774   0.87154   0.75001   0.00000  Uiso   1.00
O1306  O     0.10559   0.79513   0.75000   0.00000  Uiso   1.00
O1307  O     0.16666   0.87156   0.68393   0.00000  Uiso   1.00
O1308  O     0.16667   0.79511   0.81608   0.00000  Uiso   1.00
O1309  O     0.16667   0.87156   0.81608   0.00000  Uiso   1.00
O1310  O     0.16666   0.79511   0.68393   0.00000  Uiso   1.00
Zn1311 Zn    0.16667   0.88437   0.75000   0.00000  Uiso   1.00
Zn1312 Zn    0.16667   0.78229   0.75000   0.00000  Uiso   1.00
C1313  C     0.42028   0.83373   0.75028   0.00000  Uiso   1.00
C1314  C     0.37608   0.83447   0.75122   0.00000  Uiso   1.00
C1315  C     0.52787   0.68909   0.77732   0.00000  Uiso   1.00
C1316  C     0.47971   0.97764   0.71593   0.00000  Uiso   1.00
C1317  C     0.47348   0.69107   0.72130   0.00000  Uiso   1.00
C1318  C     0.52234   0.97573   0.78261   0.00000  Uiso   1.00
C1319  C     0.49935   0.83348   0.66390   0.00000  Uiso   1.00
C1320  C     0.50069   0.83321   0.83612   0.00000  Uiso   1.00
C1321  C     0.53988   0.83197   0.90868   0.00000  Uiso   1.00
C1322  C     0.45999   0.83648   0.59150   0.00000  Uiso   1.00
C1323  C     0.50165   0.83297   0.88385   0.00000  Uiso   1.00
C1324  C     0.57975   0.83302   0.75012   0.00000  Uiso   1.00
C1325  C     0.49827   0.83391   0.61618   0.00000  Uiso   1.00
C1326  C     0.46356   0.83592   0.90385   0.00000  Uiso   1.00
C1327  C     0.53629   0.83065   0.59615   0.00000  Uiso   1.00
C1328  C     0.46247   0.83911   0.95023   0.00000  Uiso   1.00
C1329  C     0.53737   0.82833   0.54975   0.00000  Uiso   1.00
C1330  C     0.50048   0.83362   0.97655   0.00000  Uiso   1.00
C1331  C     0.49934   0.83425   0.52349   0.00000  Uiso   1.00
C1332  C     0.53956   0.82743   0.95575   0.00000  Uiso   1.00
C1333  C     0.46027   0.84083   0.54432   0.00000  Uiso   1.00
C1334  C     0.42441   0.84875   0.97039   0.00000  Uiso   1.00
C1335  C     0.42355   0.85151   0.51724   0.00000  Uiso   1.00
C1336  C     0.57547   0.81902   0.52949   0.00000  Uiso   1.00
C1337  C     0.56943   0.70734   0.79444   0.00000  Uiso   1.00
C1338  C     0.56779   0.72954   0.84040   0.00000  Uiso   1.00
C1339  C     0.47618   0.96106   0.66789   0.00000  Uiso   1.00
C1340  C     0.43485   0.93850   0.65572   0.00000  Uiso   1.00
C1341  C     0.43683   0.71406   0.69563   0.00000  Uiso   1.00
C1342  C     0.39667   0.70874   0.72090   0.00000  Uiso   1.00
C1343  C     0.54056   0.95289   0.82504   0.00000  Uiso   1.00
C1344  C     0.50820   0.95302   0.86145   0.00000  Uiso   1.00
C1345  C     0.57633   0.81683   0.98265   0.00000  Uiso   1.00
C1346  C     0.35689   0.80295   0.77730   0.00000  Uiso   1.00
C1347  C     0.64324   0.86506   0.72476   0.00000  Uiso   1.00
C1348  C     0.64722   0.80199   0.77654   0.00000  Uiso   1.00
C1349  C     0.35291   0.86596   0.72547   0.00000  Uiso   1.00
C1350  C     0.62402   0.83282   0.75002   0.00000  Uiso   1.00
Cl1351 Cl    0.58584   0.84496   0.88023   0.00000  Uiso   1.00
Cl1352 Cl    0.41374   0.82682   0.62081   0.00000  Uiso   1.00
Cl1353 Cl    0.37759   0.86007   0.93710   0.00000  Uiso   1.00
Cl1354 Cl    0.62240   0.80759   0.56258   0.00000  Uiso   1.00
Cl1355 Cl    0.37786   0.87548   0.53945   0.00000  Uiso   1.00
Cl1356 Cl    0.62197   0.79321   0.95995   0.00000  Uiso   1.00
H1357  H     0.43512   0.83768   0.88236   0.00000  Uiso   1.00
H1358  H     0.59409   0.68088   0.79635   0.00000  Uiso   1.00
H1359  H     0.58294   0.72773   0.76860   0.00000  Uiso   1.00
H1360  H     0.43468   0.92771   0.62009   0.00000  Uiso   1.00
H1361  H     0.43090   0.90928   0.67721   0.00000  Uiso   1.00
H1362  H     0.40771   0.96141   0.65944   0.00000  Uiso   1.00
H1363  H     0.47950   0.98867   0.64359   0.00000  Uiso   1.00
H1364  H     0.50421   0.94112   0.66040   0.00000  Uiso   1.00
H1365  H     0.40166   0.71885   0.75653   0.00000  Uiso   1.00
H1366  H     0.37099   0.72949   0.70464   0.00000  Uiso   1.00
H1367  H     0.38699   0.67370   0.72049   0.00000  Uiso   1.00
H1368  H     0.56472   0.82823   0.61762   0.00000  Uiso   1.00
H1369  H     0.44261   0.74906   0.68973   0.00000  Uiso   1.00
H1370  H     0.43109   0.70134   0.66117   0.00000  Uiso   1.00
H1371  H     0.47708   0.94199   0.84801   0.00000  Uiso   1.00
H1372  H     0.51932   0.93100   0.88981   0.00000  Uiso   1.00
H1373  H     0.50403   0.98698   0.87469   0.00000  Uiso   1.00
H1374  H     0.55319   0.91983   0.81737   0.00000  Uiso   1.00
H1375  H     0.56839   0.96899   0.84053   0.00000  Uiso   1.00
H1376  H     0.37514   0.77956   0.79843   0.00000  Uiso   1.00
H1377  H     0.62500   0.88907   0.70434   0.00000  Uiso   1.00
H1378  H     0.63236   0.77810   0.79732   0.00000  Uiso   1.00
H1379  H     0.36787   0.89048   0.70543   0.00000  Uiso   1.00
H1380  H     0.59448   0.71748   0.86295   0.00000  Uiso   1.00
H1381  H     0.57093   0.76559   0.83641   0.00000  Uiso   1.00
H1382  H     0.53814   0.72268   0.85701   0.00000  Uiso   1.00
N1383  N     0.50000   0.95240   0.75000   0.00000  Uiso   1.00
N1384  N     0.50000   0.71427   0.75000   0.00000  Uiso   1.00
O1385  O     0.43892   0.87154   0.75000   0.00000  Uiso   1.00
O1386  O     0.56108   0.79513   0.75001   0.00000  Uiso   1.00
O1387  O     0.56108   0.87154   0.75001   0.00000  Uiso   1.00
O1388  O     0.43892   0.79513   0.75000   0.00000  Uiso   1.00
O1389  O     0.49999   0.87156   0.68393   0.00000  Uiso   1.00
O1390  O     0.50001   0.79511   0.81608   0.00000  Uiso   1.00
O1391  O     0.50001   0.87156   0.81608   0.00000  Uiso   1.00
O1392  O     0.49999   0.79511   0.68393   0.00000  Uiso   1.00
Zn1393 Zn    0.50000   0.88437   0.75000   0.00000  Uiso   1.00
Zn1394 Zn    0.50000   0.78229   0.75000   0.00000  Uiso   1.00
C1395  C     0.75362   0.83373   0.75028   0.00000  Uiso   1.00
C1396  C     0.70941   0.83447   0.75122   0.00000  Uiso   1.00
C1397  C     0.86120   0.68909   0.77732   0.00000  Uiso   1.00
C1398  C     0.81305   0.97764   0.71593   0.00000  Uiso   1.00
C1399  C     0.80681   0.69107   0.72130   0.00000  Uiso   1.00
C1400  C     0.85568   0.97573   0.78261   0.00000  Uiso   1.00
C1401  C     0.83269   0.83348   0.66390   0.00000  Uiso   1.00
C1402  C     0.83402   0.83321   0.83612   0.00000  Uiso   1.00
C1403  C     0.87322   0.83197   0.90868   0.00000  Uiso   1.00
C1404  C     0.79332   0.83648   0.59150   0.00000  Uiso   1.00
C1405  C     0.83498   0.83297   0.88385   0.00000  Uiso   1.00
C1406  C     0.91308   0.83302   0.75012   0.00000  Uiso   1.00
C1407  C     0.83160   0.83391   0.61618   0.00000  Uiso   1.00
C1408  C     0.79690   0.83592   0.90385   0.00000  Uiso   1.00
C1409  C     0.86962   0.83065   0.59615   0.00000  Uiso   1.00
C1410  C     0.79581   0.83911   0.95023   0.00000  Uiso   1.00
C1411  C     0.87070   0.82833   0.54975   0.00000  Uiso   1.00
C1412  C     0.83382   0.83362   0.97655   0.00000  Uiso   1.00
C1413  C     0.83267   0.83425   0.52349   0.00000  Uiso   1.00
C1414  C     0.87289   0.82743   0.95575   0.00000  Uiso   1.00
C1415  C     0.79361   0.84083   0.54432   0.00000  Uiso   1.00
C1416  C     0.75775   0.84875   0.97039   0.00000  Uiso   1.00
C1417  C     0.75689   0.85151   0.51724   0.00000  Uiso   1.00
C1418  C     0.90880   0.81902   0.52949   0.00000  Uiso   1.00
C1419  C     0.90276   0.70734   0.79444   0.00000  Uiso   1.00
C1420  C     0.90112   0.72954   0.84040   0.00000  Uiso   1.00
C1421  C     0.80951   0.96106   0.66789   0.00000  Uiso   1.00
C1422  C     0.76818   0.93850   0.65572   0.00000  Uiso   1.00
C1423  C     0.77016   0.71406   0.69563   0.00000  Uiso   1.00
C1424  C     0.73001   0.70874   0.72090   0.00000  Uiso   1.00
C1425  C     0.87390   0.95289   0.82504   0.00000  Uiso   1.00
C1426  C     0.84154   0.95302   0.86145   0.00000  Uiso   1.00
C1427  C     0.90967   0.81683   0.98265   0.00000  Uiso   1.00
C1428  C     0.69023   0.80295   0.77730   0.00000  Uiso   1.00
C1429  C     0.97657   0.86506   0.72476   0.00000  Uiso   1.00
C1430  C     0.98056   0.80199   0.77654   0.00000  Uiso   1.00
C1431  C     0.68625   0.86596   0.72547   0.00000  Uiso   1.00
C1432  C     0.95736   0.83282   0.75002   0.00000  Uiso   1.00
Cl1433 Cl    0.91917   0.84496   0.88023   0.00000  Uiso   1.00
Cl1434 Cl    0.74707   0.82682   0.62081   0.00000  Uiso   1.00
Cl1435 Cl    0.71092   0.86007   0.93710   0.00000  Uiso   1.00
Cl1436 Cl    0.95574   0.80759   0.56258   0.00000  Uiso   1.00
Cl1437 Cl    0.71119   0.87548   0.53945   0.00000  Uiso   1.00
Cl1438 Cl    0.95530   0.79321   0.95995   0.00000  Uiso   1.00
H1439  H     0.76845   0.83768   0.88236   0.00000  Uiso   1.00
H1440  H     0.92743   0.68088   0.79635   0.00000  Uiso   1.00
H1441  H     0.91627   0.72773   0.76860   0.00000  Uiso   1.00
H1442  H     0.76802   0.92771   0.62009   0.00000  Uiso   1.00
H1443  H     0.76423   0.90928   0.67721   0.00000  Uiso   1.00
H1444  H     0.74104   0.96141   0.65944   0.00000  Uiso   1.00
H1445  H     0.81283   0.98867   0.64359   0.00000  Uiso   1.00
H1446  H     0.83754   0.94112   0.66040   0.00000  Uiso   1.00
H1447  H     0.73499   0.71885   0.75653   0.00000  Uiso   1.00
H1448  H     0.70433   0.72949   0.70464   0.00000  Uiso   1.00
H1449  H     0.72032   0.67370   0.72049   0.00000  Uiso   1.00
H1450  H     0.89805   0.82823   0.61762   0.00000  Uiso   1.00
H1451  H     0.77594   0.74906   0.68973   0.00000  Uiso   1.00
H1452  H     0.76443   0.70134   0.66117   0.00000  Uiso   1.00
H1453  H     0.81041   0.94199   0.84801   0.00000  Uiso   1.00
H1454  H     0.85266   0.93100   0.88981   0.00000  Uiso   1.00
H1455  H     0.83736   0.98698   0.87469   0.00000  Uiso   1.00
H1456  H     0.88652   0.91983   0.81737   0.00000  Uiso   1.00
H1457  H     0.90173   0.96899   0.84053   0.00000  Uiso   1.00
H1458  H     0.70847   0.77956   0.79843   0.00000  Uiso   1.00
H1459  H     0.95833   0.88907   0.70434   0.00000  Uiso   1.00
H1460  H     0.96570   0.77810   0.79732   0.00000  Uiso   1.00
H1461  H     0.70120   0.89048   0.70543   0.00000  Uiso   1.00
H1462  H     0.92781   0.71748   0.86295   0.00000  Uiso   1.00
H1463  H     0.90426   0.76559   0.83641   0.00000  Uiso   1.00
H1464  H     0.87147   0.72268   0.85701   0.00000  Uiso   1.00
N1465  N     0.83333   0.95240   0.75000   0.00000  Uiso   1.00
N1466  N     0.83333   0.71427   0.75000   0.00000  Uiso   1.00
O1467  O     0.77226   0.87154   0.75000   0.00000  Uiso   1.00
O1468  O     0.89441   0.79513   0.75001   0.00000  Uiso   1.00
O1469  O     0.89441   0.87154   0.75001   0.00000  Uiso   1.00
O1470  O     0.77226   0.79513   0.75000   0.00000  Uiso   1.00
O1471  O     0.83333   0.87156   0.68393   0.00000  Uiso   1.00
O1472  O     0.83334   0.79511   0.81608   0.00000  Uiso   1.00
O1473  O     0.83334   0.87156   0.81608   0.00000  Uiso   1.00
O1474  O     0.83333   0.79511   0.68393   0.00000  Uiso   1.00
Zn1475 Zn    0.83333   0.88437   0.75000   0.00000  Uiso   1.00
Zn1476 Zn    0.83333   0.78229   0.75000   0.00000  Uiso   1.00
loop_
_geom_bond_atom_site_label_1
_geom_bond_atom_site_label_2
_geom_bond_distance
_geom_bond_site_symmetry_2
_ccdc_geom_bond_type
C1     C2      1.411   .     S
C1     O76     1.299   .     A
C1     O73     1.300   .     A
C2     C34     1.394   .     A
C2     C37     1.394   .     A
C3     C25     1.513   .     S
C3     N72     1.386   .     A
C3     C498    1.435   1_545 S
C4     C27     1.516   .     S
C4     N71     1.389   .     A
C4     C251    1.435   .     S
C5     N72     1.377   .     A
C5     C29     1.517   .     S
C5     C496    1.435   1_545 S
C6     C31     1.518   .     S
C6     N71     1.381   .     A
C6     C249    1.435   .     S
C7     O77     1.300   .     A
C7     C13     1.417   .     S
C7     O80     1.300   .     A
C8     O79     1.299   .     A
C8     O78     1.301   .     A
C8     C11     1.417   .     S
C9     Cl39    1.777   .     S
C9     C20     1.405   .     A
C9     C11     1.393   .     A
C10    Cl40    1.777   .     S
C10    C21     1.408   .     A
C10    C13     1.394   .     A
C11    C14     1.380   .     A
C12    O74     1.302   .     A
C12    C38     1.412   .     S
C12    O75     1.297   .     A
C13    C15     1.379   .     A
C14    H45     1.084   .     S
C14    C16     1.384   .     A
C15    C17     1.383   .     A
C15    H56     1.084   .     S
C16    C22     1.406   .     A
C16    C18     1.416   .     A
C17    C24     1.407   .     A
C17    C19     1.417   .     A
C18    C20     1.427   .     A
C18    C757    1.397   .     S
C19    C21     1.429   .     A
C19    C756    1.397   1_554 S
C20    C33     1.416   .     A
C21    C23     1.418   .     A
C22    Cl41    1.776   .     S
C22    C761    1.397   .     S
C23    Cl43    1.773   .     S
C23    C760    1.397   1_554 S
C24    Cl42    1.776   .     S
C24    C771    1.396   1_554 S
C25    H47     1.092   .     S
C25    C26     1.529   .     S
C25    H46     1.110   .     S
C26    H70     1.110   .     S
C26    H68     1.111   .     S
C26    H69     1.103   .     S
C27    H51     1.110   .     S
C27    H52     1.101   .     S
C27    C28     1.526   .     S
C28    H50     1.108   .     S
C28    H49     1.100   .     S
C28    H48     1.110   .     S
C29    C30     1.527   .     S
C29    H57     1.092   .     S
C29    H58     1.105   .     S
C30    H54     1.111   .     S
C30    H53     1.109   .     S
C30    H55     1.110   .     S
C31    H62     1.100   .     S
C31    H63     1.103   .     S
C31    C32     1.531   .     S
C32    H61     1.110   .     S
C32    H60     1.110   .     S
C32    H59     1.110   .     S
C33    Cl44    1.773   .     S
C33    C762    1.396   .     S
C34    H64     1.083   .     S
C34    C200    1.371   1_455 S
C35    H65     1.084   .     S
C35    C38     1.396   .     A
C35    C119    1.372   .     S
C36    H66     1.079   .     S
C36    C38     1.393   .     A
C36    C116    1.371   .     S
C37    H67     1.081   .     S
C37    C199    1.372   1_455 S
N71    Zn81    2.057   .     S
N72    Zn82    2.057   .     S
O73    Zn81    1.994   .     S
O74    Zn82    1.994   .     S
O75    Zn81    1.978   .     S
O76    Zn82    1.978   .     S
O77    Zn81    2.004   .     S
O78    Zn82    2.004   .     S
O79    Zn81    1.999   .     S
O80    Zn82    1.999   .     S
C83    C84     1.411   .     S
C83    O158    1.299   .     A
C83    O155    1.300   .     A
C84    C116    1.394   .     A
C84    C119    1.394   .     A
C85    C107    1.513   .     S
C85    N154    1.386   .     A
C85    C580    1.435   1_545 S
C86    C109    1.516   .     S
C86    N153    1.389   .     A
C86    C333    1.435   .     S
C87    N154    1.377   .     A
C87    C111    1.517   .     S
C87    C578    1.435   1_545 S
C88    C113    1.518   .     S
C88    N153    1.381   .     A
C88    C331    1.435   .     S
C89    O159    1.300   .     A
C89    C95     1.417   .     S
C89    O162    1.300   .     A
C90    O161    1.299   .     A
C90    O160    1.301   .     A
C90    C93     1.417   .     S
C91    Cl121   1.777   .     S
C91    C102    1.405   .     A
C91    C93     1.393   .     A
C92    Cl122   1.777   .     S
C92    C103    1.408   .     A
C92    C95     1.394   .     A
C93    C96     1.380   .     A
C94    O156    1.302   .     A
C94    C120    1.412   .     S
C94    O157    1.297   .     A
C95    C97     1.379   .     A
C96    H127    1.084   .     S
C96    C98     1.384   .     A
C97    C99     1.383   .     A
C97    H138    1.084   .     S
C98    C104    1.406   .     A
C98    C100    1.416   .     A
C99    C106    1.407   .     A
C99    C101    1.417   .     A
C100   C102    1.427   .     A
C100   C839    1.397   .     S
C101   C103    1.429   .     A
C101   C838    1.397   1_554 S
C102   C115    1.416   .     A
C103   C105    1.418   .     A
C104   Cl123   1.776   .     S
C104   C843    1.397   .     S
C105   Cl125   1.773   .     S
C105   C842    1.397   1_554 S
C106   Cl124   1.776   .     S
C106   C853    1.396   1_554 S
C107   H129    1.092   .     S
C107   C108    1.529   .     S
C107   H128    1.110   .     S
C108   H152    1.110   .     S
C108   H150    1.111   .     S
C108   H151    1.103   .     S
C109   H133    1.110   .     S
C109   H134    1.101   .     S
C109   C110    1.526   .     S
C110   H132    1.108   .     S
C110   H131    1.100   .     S
C110   H130    1.110   .     S
C111   C112    1.527   .     S
C111   H139    1.092   .     S
C111   H140    1.105   .     S
C112   H136    1.111   .     S
C112   H135    1.109   .     S
C112   H137    1.110   .     S
C113   H144    1.100   .     S
C113   H145    1.103   .     S
C113   C114    1.531   .     S
C114   H143    1.110   .     S
C114   H142    1.110   .     S
C114   H141    1.110   .     S
C115   Cl126   1.773   .     S
C115   C844    1.396   .     S
C116   H146    1.083   .     S
C117   H147    1.084   .     S
C117   C120    1.396   .     A
C117   C201    1.372   .     S
C118   H148    1.079   .     S
C118   C120    1.393   .     A
C118   C198    1.371   .     S
C119   H149    1.081   .     S
N153   Zn163   2.057   .     S
N154   Zn164   2.057   .     S
O155   Zn163   1.994   .     S
O156   Zn164   1.994   .     S
O157   Zn163   1.978   .     S
O158   Zn164   1.978   .     S
O159   Zn163   2.004   .     S
O160   Zn164   2.004   .     S
O161   Zn163   1.999   .     S
O162   Zn164   1.999   .     S
C165   C166    1.411   .     S
C165   O240    1.299   .     A
C165   O237    1.300   .     A
C166   C198    1.394   .     A
C166   C201    1.394   .     A
C167   C189    1.513   .     S
C167   N236    1.386   .     A
C167   C662    1.435   1_545 S
C168   C191    1.516   .     S
C168   N235    1.389   .     A
C168   C415    1.435   .     S
C169   N236    1.377   .     A
C169   C193    1.517   .     S
C169   C660    1.435   1_545 S
C170   C195    1.518   .     S
C170   N235    1.381   .     A
C170   C413    1.435   .     S
C171   O241    1.300   .     A
C171   C177    1.417   .     S
C171   O244    1.300   .     A
C172   O243    1.299   .     A
C172   O242    1.301   .     A
C172   C175    1.417   .     S
C173   Cl203   1.777   .     S
C173   C184    1.405   .     A
C173   C175    1.393   .     A
C174   Cl204   1.777   .     S
C174   C185    1.408   .     A
C174   C177    1.394   .     A
C175   C178    1.380   .     A
C176   O238    1.302   .     A
C176   C202    1.412   .     S
C176   O239    1.297   .     A
C177   C179    1.379   .     A
C178   H209    1.084   .     S
C178   C180    1.384   .     A
C179   C181    1.383   .     A
C179   H220    1.084   .     S
C180   C186    1.406   .     A
C180   C182    1.416   .     A
C181   C188    1.407   .     A
C181   C183    1.417   .     A
C182   C184    1.427   .     A
C182   C921    1.397   .     S
C183   C185    1.429   .     A
C183   C920    1.397   1_554 S
C184   C197    1.416   .     A
C185   C187    1.418   .     A
C186   Cl205   1.776   .     S
C186   C925    1.397   .     S
C187   Cl207   1.773   .     S
C187   C924    1.397   1_554 S
C188   Cl206   1.776   .     S
C188   C935    1.396   1_554 S
C189   H211    1.092   .     S
C189   C190    1.529   .     S
C189   H210    1.110   .     S
C190   H234    1.110   .     S
C190   H232    1.111   .     S
C190   H233    1.103   .     S
C191   H215    1.110   .     S
C191   H216    1.101   .     S
C191   C192    1.526   .     S
C192   H214    1.108   .     S
C192   H213    1.100   .     S
C192   H212    1.110   .     S
C193   C194    1.527   .     S
C193   H221    1.092   .     S
C193   H222    1.105   .     S
C194   H218    1.111   .     S
C194   H217    1.109   .     S
C194   H219    1.110   .     S
C195   H226    1.100   .     S
C195   H227    1.103   .     S
C195   C196    1.531   .     S
C196   H225    1.110   .     S
C196   H224    1.110   .     S
C196   H223    1.110   .     S
C197   Cl208   1.773   .     S
C197   C926    1.396   .     S
C198   H228    1.083   .     S
C199   H229    1.084   .     S
C199   C202    1.396   .     A
C199   C37     1.372   1_655 S
C200   H230    1.079   .     S
C200   C202    1.393   .     A
C200   C34     1.371   1_655 S
C201   H231    1.081   .     S
N235   Zn245   2.057   .     S
N236   Zn246   2.057   .     S
O237   Zn245   1.994   .     S
O238   Zn246   1.994   .     S
O239   Zn245   1.978   .     S
O240   Zn246   1.978   .     S
O241   Zn245   2.004   .     S
O242   Zn246   2.004   .     S
O243   Zn245   1.999   .     S
O244   Zn246   1.999   .     S
C247   C248    1.411   .     S
C247   O322    1.299   .     A
C247   O319    1.300   .     A
C248   C280    1.394   .     A
C248   C283    1.394   .     A
C249   C271    1.513   .     S
C249   N318    1.386   .     A
C250   C273    1.516   .     S
C250   N317    1.389   .     A
C250   C497    1.435   .     S
C251   N318    1.377   .     A
C251   C275    1.517   .     S
C252   C277    1.518   .     S
C252   N317    1.381   .     A
C252   C495    1.435   .     S
C253   O323    1.300   .     A
C253   C259    1.417   .     S
C253   O326    1.300   .     A
C254   O325    1.299   .     A
C254   O324    1.301   .     A
C254   C257    1.417   .     S
C255   Cl285   1.777   .     S
C255   C266    1.405   .     A
C255   C257    1.393   .     A
C256   Cl286   1.777   .     S
C256   C267    1.408   .     A
C256   C259    1.394   .     A
C257   C260    1.380   .     A
C258   O320    1.302   .     A
C258   C284    1.412   .     S
C258   O321    1.297   .     A
C259   C261    1.379   .     A
C260   H291    1.084   .     S
C260   C262    1.384   .     A
C261   C263    1.383   .     A
C261   H302    1.084   .     S
C262   C268    1.406   .     A
C262   C264    1.416   .     A
C263   C270    1.407   .     A
C263   C265    1.417   .     A
C264   C266    1.427   .     A
C264   C1003   1.397   .     S
C265   C267    1.429   .     A
C265   C1002   1.397   1_554 S
C266   C279    1.416   .     A
C267   C269    1.418   .     A
C268   Cl287   1.776   .     S
C268   C1007   1.397   .     S
C269   Cl289   1.773   .     S
C269   C1006   1.397   1_554 S
C270   Cl288   1.776   .     S
C270   C1017   1.396   1_554 S
C271   H293    1.092   .     S
C271   C272    1.529   .     S
C271   H292    1.110   .     S
C272   H316    1.110   .     S
C272   H314    1.111   .     S
C272   H315    1.103   .     S
C273   H297    1.110   .     S
C273   H298    1.101   .     S
C273   C274    1.526   .     S
C274   H296    1.108   .     S
C274   H295    1.100   .     S
C274   H294    1.110   .     S
C275   C276    1.527   .     S
C275   H303    1.092   .     S
C275   H304    1.105   .     S
C276   H300    1.111   .     S
C276   H299    1.109   .     S
C276   H301    1.110   .     S
C277   H308    1.100   .     S
C277   H309    1.103   .     S
C277   C278    1.531   .     S
C278   H307    1.110   .     S
C278   H306    1.110   .     S
C278   H305    1.110   .     S
C279   Cl290   1.773   .     S
C279   C1008   1.396   .     S
C280   H310    1.083   .     S
C280   C446    1.371   1_455 S
C281   H311    1.084   .     S
C281   C284    1.396   .     A
C281   C365    1.372   .     S
C282   H312    1.079   .     S
C282   C284    1.393   .     A
C282   C362    1.371   .     S
C283   H313    1.081   .     S
C283   C445    1.372   1_455 S
N317   Zn327   2.057   .     S
N318   Zn328   2.057   .     S
O319   Zn327   1.994   .     S
O320   Zn328   1.994   .     S
O321   Zn327   1.978   .     S
O322   Zn328   1.978   .     S
O323   Zn327   2.004   .     S
O324   Zn328   2.004   .     S
O325   Zn327   1.999   .     S
O326   Zn328   1.999   .     S
C329   C330    1.411   .     S
C329   O404    1.299   .     A
C329   O401    1.300   .     A
C330   C362    1.394   .     A
C330   C365    1.394   .     A
C331   C353    1.513   .     S
C331   N400    1.386   .     A
C332   C355    1.516   .     S
C332   N399    1.389   .     A
C332   C579    1.435   .     S
C333   N400    1.377   .     A
C333   C357    1.517   .     S
C334   C359    1.518   .     S
C334   N399    1.381   .     A
C334   C577    1.435   .     S
C335   O405    1.300   .     A
C335   C341    1.417   .     S
C335   O408    1.300   .     A
C336   O407    1.299   .     A
C336   O406    1.301   .     A
C336   C339    1.417   .     S
C337   Cl367   1.777   .     S
C337   C348    1.405   .     A
C337   C339    1.393   .     A
C338   Cl368   1.777   .     S
C338   C349    1.408   .     A
C338   C341    1.394   .     A
C339   C342    1.380   .     A
C340   O402    1.302   .     A
C340   C366    1.412   .     S
C340   O403    1.297   .     A
C341   C343    1.379   .     A
C342   H373    1.084   .     S
C342   C344    1.384   .     A
C343   C345    1.383   .     A
C343   H384    1.084   .     S
C344   C350    1.406   .     A
C344   C346    1.416   .     A
C345   C352    1.407   .     A
C345   C347    1.417   .     A
C346   C348    1.427   .     A
C346   C1085   1.397   .     S
C347   C349    1.429   .     A
C347   C1084   1.397   1_554 S
C348   C361    1.416   .     A
C349   C351    1.418   .     A
C350   Cl369   1.776   .     S
C350   C1089   1.397   .     S
C351   Cl371   1.773   .     S
C351   C1088   1.397   1_554 S
C352   Cl370   1.776   .     S
C352   C1099   1.396   1_554 S
C353   H375    1.092   .     S
C353   C354    1.529   .     S
C353   H374    1.110   .     S
C354   H398    1.110   .     S
C354   H396    1.111   .     S
C354   H397    1.103   .     S
C355   H379    1.110   .     S
C355   H380    1.101   .     S
C355   C356    1.526   .     S
C356   H378    1.108   .     S
C356   H377    1.100   .     S
C356   H376    1.110   .     S
C357   C358    1.527   .     S
C357   H385    1.092   .     S
C357   H386    1.105   .     S
C358   H382    1.111   .     S
C358   H381    1.109   .     S
C358   H383    1.110   .     S
C359   H390    1.100   .     S
C359   H391    1.103   .     S
C359   C360    1.531   .     S
C360   H389    1.110   .     S
C360   H388    1.110   .     S
C360   H387    1.110   .     S
C361   Cl372   1.773   .     S
C361   C1090   1.396   .     S
C362   H392    1.083   .     S
C363   H393    1.084   .     S
C363   C366    1.396   .     A
C363   C447    1.372   .     S
C364   H394    1.079   .     S
C364   C366    1.393   .     A
C364   C444    1.371   .     S
C365   H395    1.081   .     S
N399   Zn409   2.057   .     S
N400   Zn410   2.057   .     S
O401   Zn409   1.994   .     S
O402   Zn410   1.994   .     S
O403   Zn409   1.978   .     S
O404   Zn410   1.978   .     S
O405   Zn409   2.004   .     S
O406   Zn410   2.004   .     S
O407   Zn409   1.999   .     S
O408   Zn410   1.999   .     S
C411   C412    1.411   .     S
C411   O486    1.299   .     A
C411   O483    1.300   .     A
C412   C444    1.394   .     A
C412   C447    1.394   .     A
C413   C435    1.513   .     S
C413   N482    1.386   .     A
C414   C437    1.516   .     S
C414   N481    1.389   .     A
C414   C661    1.435   .     S
C415   N482    1.377   .     A
C415   C439    1.517   .     S
C416   C441    1.518   .     S
C416   N481    1.381   .     A
C416   C659    1.435   .     S
C417   O487    1.300   .     A
C417   C423    1.417   .     S
C417   O490    1.300   .     A
C418   O489    1.299   .     A
C418   O488    1.301   .     A
C418   C421    1.417   .     S
C419   Cl449   1.777   .     S
C419   C430    1.405   .     A
C419   C421    1.393   .     A
C420   Cl450   1.777   .     S
C420   C431    1.408   .     A
C420   C423    1.394   .     A
C421   C424    1.380   .     A
C422   O484    1.302   .     A
C422   C448    1.412   .     S
C422   O485    1.297   .     A
C423   C425    1.379   .     A
C424   H455    1.084   .     S
C424   C426    1.384   .     A
C425   C427    1.383   .     A
C425   H466    1.084   .     S
C426   C432    1.406   .     A
C426   C428    1.416   .     A
C427   C434    1.407   .     A
C427   C429    1.417   .     A
C428   C430    1.427   .     A
C428   C1167   1.397   .     S
C429   C431    1.429   .     A
C429   C1166   1.397   1_554 S
C430   C443    1.416   .     A
C431   C433    1.418   .     A
C432   Cl451   1.776   .     S
C432   C1171   1.397   .     S
C433   Cl453   1.773   .     S
C433   C1170   1.397   1_554 S
C434   Cl452   1.776   .     S
C434   C1181   1.396   1_554 S
C435   H457    1.092   .     S
C435   C436    1.529   .     S
C435   H456    1.110   .     S
C436   H480    1.110   .     S
C436   H478    1.111   .     S
C436   H479    1.103   .     S
C437   H461    1.110   .     S
C437   H462    1.101   .     S
C437   C438    1.526   .     S
C438   H460    1.108   .     S
C438   H459    1.100   .     S
C438   H458    1.110   .     S
C439   C440    1.527   .     S
C439   H467    1.092   .     S
C439   H468    1.105   .     S
C440   H464    1.111   .     S
C440   H463    1.109   .     S
C440   H465    1.110   .     S
C441   H472    1.100   .     S
C441   H473    1.103   .     S
C441   C442    1.531   .     S
C442   H471    1.110   .     S
C442   H470    1.110   .     S
C442   H469    1.110   .     S
C443   Cl454   1.773   .     S
C443   C1172   1.396   .     S
C444   H474    1.083   .     S
C445   H475    1.084   .     S
C445   C448    1.396   .     A
C445   C283    1.372   1_655 S
C446   H476    1.079   .     S
C446   C448    1.393   .     A
C446   C280    1.371   1_655 S
C447   H477    1.081   .     S
N481   Zn491   2.057   .     S
N482   Zn492   2.057   .     S
O483   Zn491   1.994   .     S
O484   Zn492   1.994   .     S
O485   Zn491   1.978   .     S
O486   Zn492   1.978   .     S
O487   Zn491   2.004   .     S
O488   Zn492   2.004   .     S
O489   Zn491   1.999   .     S
O490   Zn492   1.999   .     S
C493   C494    1.411   .     S
C493   O568    1.299   .     A
C493   O565    1.300   .     A
C494   C526    1.394   .     A
C494   C529    1.394   .     A
C495   C517    1.513   .     S
C495   N564    1.386   .     A
C496   C519    1.516   .     S
C496   N563    1.389   .     A
C496   C5      1.435   1_565 S
C497   N564    1.377   .     A
C497   C521    1.517   .     S
C498   C523    1.518   .     S
C498   N563    1.381   .     A
C498   C3      1.435   1_565 S
C499   O569    1.300   .     A
C499   C505    1.417   .     S
C499   O572    1.300   .     A
C500   O571    1.299   .     A
C500   O570    1.301   .     A
C500   C503    1.417   .     S
C501   Cl531   1.777   .     S
C501   C512    1.405   .     A
C501   C503    1.393   .     A
C502   Cl532   1.777   .     S
C502   C513    1.408   .     A
C502   C505    1.394   .     A
C503   C506    1.380   .     A
C504   O566    1.302   .     A
C504   C530    1.412   .     S
C504   O567    1.297   .     A
C505   C507    1.379   .     A
C506   H537    1.084   .     S
C506   C508    1.384   .     A
C507   C509    1.383   .     A
C507   H548    1.084   .     S
C508   C514    1.406   .     A
C508   C510    1.416   .     A
C509   C516    1.407   .     A
C509   C511    1.417   .     A
C510   C512    1.427   .     A
C510   C1249   1.397   .     S
C511   C513    1.429   .     A
C511   C1248   1.397   1_554 S
C512   C525    1.416   .     A
C513   C515    1.418   .     A
C514   Cl533   1.776   .     S
C514   C1253   1.397   .     S
C515   Cl535   1.773   .     S
C515   C1252   1.397   1_554 S
C516   Cl534   1.776   .     S
C516   C1263   1.396   1_554 S
C517   H539    1.092   .     S
C517   C518    1.529   .     S
C517   H538    1.110   .     S
C518   H562    1.110   .     S
C518   H560    1.111   .     S
C518   H561    1.103   .     S
C519   H543    1.110   .     S
C519   H544    1.101   .     S
C519   C520    1.526   .     S
C520   H542    1.108   .     S
C520   H541    1.100   .     S
C520   H540    1.110   .     S
C521   C522    1.527   .     S
C521   H549    1.092   .     S
C521   H550    1.105   .     S
C522   H546    1.111   .     S
C522   H545    1.109   .     S
C522   H547    1.110   .     S
C523   H554    1.100   .     S
C523   H555    1.103   .     S
C523   C524    1.531   .     S
C524   H553    1.110   .     S
C524   H552    1.110   .     S
C524   H551    1.110   .     S
C525   Cl536   1.773   .     S
C525   C1254   1.396   .     S
C526   H556    1.083   .     S
C526   C692    1.371   1_455 S
C527   H557    1.084   .     S
C527   C530    1.396   .     A
C527   C611    1.372   .     S
C528   H558    1.079   .     S
C528   C530    1.393   .     A
C528   C608    1.371   .     S
C529   H559    1.081   .     S
C529   C691    1.372   1_455 S
N563   Zn573   2.057   .     S
N564   Zn574   2.057   .     S
O565   Zn573   1.994   .     S
O566   Zn574   1.994   .     S
O567   Zn573   1.978   .     S
O568   Zn574   1.978   .     S
O569   Zn573   2.004   .     S
O570   Zn574   2.004   .     S
O571   Zn573   1.999   .     S
O572   Zn574   1.999   .     S
C575   C576    1.411   .     S
C575   O650    1.299   .     A
C575   O647    1.300   .     A
C576   C608    1.394   .     A
C576   C611    1.394   .     A
C577   C599    1.513   .     S
C577   N646    1.386   .     A
C578   C601    1.516   .     S
C578   N645    1.389   .     A
C578   C87     1.435   1_565 S
C579   N646    1.377   .     A
C579   C603    1.517   .     S
C580   C605    1.518   .     S
C580   N645    1.381   .     A
C580   C85     1.435   1_565 S
C581   O651    1.300   .     A
C581   C587    1.417   .     S
C581   O654    1.300   .     A
C582   O653    1.299   .     A
C582   O652    1.301   .     A
C582   C585    1.417   .     S
C583   Cl613   1.777   .     S
C583   C594    1.405   .     A
C583   C585    1.393   .     A
C584   Cl614   1.777   .     S
C584   C595    1.408   .     A
C584   C587    1.394   .     A
C585   C588    1.380   .     A
C586   O648    1.302   .     A
C586   C612    1.412   .     S
C586   O649    1.297   .     A
C587   C589    1.379   .     A
C588   H619    1.084   .     S
C588   C590    1.384   .     A
C589   C591    1.383   .     A
C589   H630    1.084   .     S
C590   C596    1.406   .     A
C590   C592    1.416   .     A
C591   C598    1.407   .     A
C591   C593    1.417   .     A
C592   C594    1.427   .     A
C592   C1331   1.397   .     S
C593   C595    1.429   .     A
C593   C1330   1.397   1_554 S
C594   C607    1.416   .     A
C595   C597    1.418   .     A
C596   Cl615   1.776   .     S
C596   C1335   1.397   .     S
C597   Cl617   1.773   .     S
C597   C1334   1.397   1_554 S
C598   Cl616   1.776   .     S
C598   C1345   1.396   1_554 S
C599   H621    1.092   .     S
C599   C600    1.529   .     S
C599   H620    1.110   .     S
C600   H644    1.110   .     S
C600   H642    1.111   .     S
C600   H643    1.103   .     S
C601   H625    1.110   .     S
C601   H626    1.101   .     S
C601   C602    1.526   .     S
C602   H624    1.108   .     S
C602   H623    1.100   .     S
C602   H622    1.110   .     S
C603   C604    1.527   .     S
C603   H631    1.092   .     S
C603   H632    1.105   .     S
C604   H628    1.111   .     S
C604   H627    1.109   .     S
C604   H629    1.110   .     S
C605   H636    1.100   .     S
C605   H637    1.103   .     S
C605   C606    1.531   .     S
C606   H635    1.110   .     S
C606   H634    1.110   .     S
C606   H633    1.110   .     S
C607   Cl618   1.773   .     S
C607   C1336   1.396   .     S
C608   H638    1.083   .     S
C609   H639    1.084   .     S
C609   C612    1.396   .     A
C609   C693    1.372   .     S
C610   H640    1.079   .     S
C610   C612    1.393   .     A
C610   C690    1.371   .     S
C611   H641    1.081   .     S
N645   Zn655   2.057   .     S
N646   Zn656   2.057   .     S
O647   Zn655   1.994   .     S
O648   Zn656   1.994   .     S
O649   Zn655   1.978   .     S
O650   Zn656   1.978   .     S
O651   Zn655   2.004   .     S
O652   Zn656   2.004   .     S
O653   Zn655   1.999   .     S
O654   Zn656   1.999   .     S
C657   C658    1.411   .     S
C657   O732    1.299   .     A
C657   O729    1.300   .     A
C658   C690    1.394   .     A
C658   C693    1.394   .     A
C659   C681    1.513   .     S
C659   N728    1.386   .     A
C660   C683    1.516   .     S
C660   N727    1.389   .     A
C660   C169    1.435   1_565 S
C661   N728    1.377   .     A
C661   C685    1.517   .     S
C662   C687    1.518   .     S
C662   N727    1.381   .     A
C662   C167    1.435   1_565 S
C663   O733    1.300   .     A
C663   C669    1.417   .     S
C663   O736    1.300   .     A
C664   O735    1.299   .     A
C664   O734    1.301   .     A
C664   C667    1.417   .     S
C665   Cl695   1.777   .     S
C665   C676    1.405   .     A
C665   C667    1.393   .     A
C666   Cl696   1.777   .     S
C666   C677    1.408   .     A
C666   C669    1.394   .     A
C667   C670    1.380   .     A
C668   O730    1.302   .     A
C668   C694    1.412   .     S
C668   O731    1.297   .     A
C669   C671    1.379   .     A
C670   H701    1.084   .     S
C670   C672    1.384   .     A
C671   C673    1.383   .     A
C671   H712    1.084   .     S
C672   C678    1.406   .     A
C672   C674    1.416   .     A
C673   C680    1.407   .     A
C673   C675    1.417   .     A
C674   C676    1.427   .     A
C674   C1413   1.397   .     S
C675   C677    1.429   .     A
C675   C1412   1.397   1_554 S
C676   C689    1.416   .     A
C677   C679    1.418   .     A
C678   Cl697   1.776   .     S
C678   C1417   1.397   .     S
C679   Cl699   1.773   .     S
C679   C1416   1.397   1_554 S
C680   Cl698   1.776   .     S
C680   C1427   1.396   1_554 S
C681   H703    1.092   .     S
C681   C682    1.529   .     S
C681   H702    1.110   .     S
C682   H726    1.110   .     S
C682   H724    1.111   .     S
C682   H725    1.103   .     S
C683   H707    1.110   .     S
C683   H708    1.101   .     S
C683   C684    1.526   .     S
C684   H706    1.108   .     S
C684   H705    1.100   .     S
C684   H704    1.110   .     S
C685   C686    1.527   .     S
C685   H713    1.092   .     S
C685   H714    1.105   .     S
C686   H710    1.111   .     S
C686   H709    1.109   .     S
C686   H711    1.110   .     S
C687   H718    1.100   .     S
C687   H719    1.103   .     S
C687   C688    1.531   .     S
C688   H717    1.110   .     S
C688   H716    1.110   .     S
C688   H715    1.110   .     S
C689   Cl700   1.773   .     S
C689   C1418   1.396   .     S
C690   H720    1.083   .     S
C691   H721    1.084   .     S
C691   C694    1.396   .     A
C691   C529    1.372   1_655 S
C692   H722    1.079   .     S
C692   C694    1.393   .     A
C692   C526    1.371   1_655 S
C693   H723    1.081   .     S
N727   Zn737   2.057   .     S
N728   Zn738   2.057   .     S
O729   Zn737   1.994   .     S
O730   Zn738   1.994   .     S
O731   Zn737   1.978   .     S
O732   Zn738   1.978   .     S
O733   Zn737   2.004   .     S
O734   Zn738   2.004   .     S
O735   Zn737   1.999   .     S
O736   Zn738   1.999   .     S
C739   C740    1.411   .     S
C739   O814    1.299   .     A
C739   O811    1.300   .     A
C740   C772    1.394   .     A
C740   C775    1.394   .     A
C741   C763    1.513   .     S
C741   N810    1.386   .     A
C741   C1236   1.435   1_545 S
C742   C765    1.516   .     S
C742   N809    1.389   .     A
C742   C989    1.435   .     S
C743   N810    1.377   .     A
C743   C767    1.517   .     S
C743   C1234   1.435   1_545 S
C744   C769    1.518   .     S
C744   N809    1.381   .     A
C744   C987    1.435   .     S
C745   O815    1.300   .     A
C745   C751    1.417   .     S
C745   O818    1.300   .     A
C746   O817    1.299   .     A
C746   O816    1.301   .     A
C746   C749    1.417   .     S
C747   Cl777   1.777   .     S
C747   C758    1.405   .     A
C747   C749    1.393   .     A
C748   Cl778   1.777   .     S
C748   C759    1.408   .     A
C748   C751    1.394   .     A
C749   C752    1.380   .     A
C750   O812    1.302   .     A
C750   C776    1.412   .     S
C750   O813    1.297   .     A
C751   C753    1.379   .     A
C752   H783    1.084   .     S
C752   C754    1.384   .     A
C753   C755    1.383   .     A
C753   H794    1.084   .     S
C754   C760    1.406   .     A
C754   C756    1.416   .     A
C755   C762    1.407   .     A
C755   C757    1.417   .     A
C756   C758    1.427   .     A
C756   C19     1.397   1_556 S
C757   C759    1.429   .     A
C758   C771    1.416   .     A
C759   C761    1.418   .     A
C760   Cl779   1.776   .     S
C760   C23     1.397   1_556 S
C761   Cl781   1.773   .     S
C762   Cl780   1.776   .     S
C763   H785    1.092   .     S
C763   C764    1.529   .     S
C763   H784    1.110   .     S
C764   H808    1.110   .     S
C764   H806    1.111   .     S
C764   H807    1.103   .     S
C765   H789    1.110   .     S
C765   H790    1.101   .     S
C765   C766    1.526   .     S
C766   H788    1.108   .     S
C766   H787    1.100   .     S
C766   H786    1.110   .     S
C767   C768    1.527   .     S
C767   H795    1.092   .     S
C767   H796    1.105   .     S
C768   H792    1.111   .     S
C768   H791    1.109   .     S
C768   H793    1.110   .     S
C769   H800    1.100   .     S
C769   H801    1.103   .     S
C769   C770    1.531   .     S
C770   H799    1.110   .     S
C770   H798    1.110   .     S
C770   H797    1.110   .     S
C771   Cl782   1.773   .     S
C771   C24     1.396   1_556 S
C772   H802    1.083   .     S
C772   C938    1.371   1_455 S
C773   H803    1.084   .     S
C773   C776    1.396   .     A
C773   C857    1.372   .     S
C774   H804    1.079   .     S
C774   C776    1.393   .     A
C774   C854    1.371   .     S
C775   H805    1.081   .     S
C775   C937    1.372   1_455 S
N809   Zn819   2.057   .     S
N810   Zn820   2.057   .     S
O811   Zn819   1.994   .     S
O812   Zn820   1.994   .     S
O813   Zn819   1.978   .     S
O814   Zn820   1.978   .     S
O815   Zn819   2.004   .     S
O816   Zn820   2.004   .     S
O817   Zn819   1.999   .     S
O818   Zn820   1.999   .     S
C821   C822    1.411   .     S
C821   O896    1.299   .     A
C821   O893    1.300   .     A
C822   C854    1.394   .     A
C822   C857    1.394   .     A
C823   C845    1.513   .     S
C823   N892    1.386   .     A
C823   C1318   1.435   1_545 S
C824   C847    1.516   .     S
C824   N891    1.389   .     A
C824   C1071   1.435   .     S
C825   N892    1.377   .     A
C825   C849    1.517   .     S
C825   C1316   1.435   1_545 S
C826   C851    1.518   .     S
C826   N891    1.381   .     A
C826   C1069   1.435   .     S
C827   O897    1.300   .     A
C827   C833    1.417   .     S
C827   O900    1.300   .     A
C828   O899    1.299   .     A
C828   O898    1.301   .     A
C828   C831    1.417   .     S
C829   Cl859   1.777   .     S
C829   C840    1.405   .     A
C829   C831    1.393   .     A
C830   Cl860   1.777   .     S
C830   C841    1.408   .     A
C830   C833    1.394   .     A
C831   C834    1.380   .     A
C832   O894    1.302   .     A
C832   C858    1.412   .     S
C832   O895    1.297   .     A
C833   C835    1.379   .     A
C834   H865    1.084   .     S
C834   C836    1.384   .     A
C835   C837    1.383   .     A
C835   H876    1.084   .     S
C836   C842    1.406   .     A
C836   C838    1.416   .     A
C837   C844    1.407   .     A
C837   C839    1.417   .     A
C838   C840    1.427   .     A
C838   C101    1.397   1_556 S
C839   C841    1.429   .     A
C840   C853    1.416   .     A
C841   C843    1.418   .     A
C842   Cl861   1.776   .     S
C842   C105    1.397   1_556 S
C843   Cl863   1.773   .     S
C844   Cl862   1.776   .     S
C845   H867    1.092   .     S
C845   C846    1.529   .     S
C845   H866    1.110   .     S
C846   H890    1.110   .     S
C846   H888    1.111   .     S
C846   H889    1.103   .     S
C847   H871    1.110   .     S
C847   H872    1.101   .     S
C847   C848    1.526   .     S
C848   H870    1.108   .     S
C848   H869    1.100   .     S
C848   H868    1.110   .     S
C849   C850    1.527   .     S
C849   H877    1.092   .     S
C849   H878    1.105   .     S
C850   H874    1.111   .     S
C850   H873    1.109   .     S
C850   H875    1.110   .     S
C851   H882    1.100   .     S
C851   H883    1.103   .     S
C851   C852    1.531   .     S
C852   H881    1.110   .     S
C852   H880    1.110   .     S
C852   H879    1.110   .     S
C853   Cl864   1.773   .     S
C853   C106    1.396   1_556 S
C854   H884    1.083   .     S
C855   H885    1.084   .     S
C855   C858    1.396   .     A
C855   C939    1.372   .     S
C856   H886    1.079   .     S
C856   C858    1.393   .     A
C856   C936    1.371   .     S
C857   H887    1.081   .     S
N891   Zn901   2.057   .     S
N892   Zn902   2.057   .     S
O893   Zn901   1.994   .     S
O894   Zn902   1.994   .     S
O895   Zn901   1.978   .     S
O896   Zn902   1.978   .     S
O897   Zn901   2.004   .     S
O898   Zn902   2.004   .     S
O899   Zn901   1.999   .     S
O900   Zn902   1.999   .     S
C903   C904    1.411   .     S
C903   O978    1.299   .     A
C903   O975    1.300   .     A
C904   C936    1.394   .     A
C904   C939    1.394   .     A
C905   C927    1.513   .     S
C905   N974    1.386   .     A
C905   C1400   1.435   1_545 S
C906   C929    1.516   .     S
C906   N973    1.389   .     A
C906   C1153   1.435   .     S
C907   N974    1.377   .     A
C907   C931    1.517   .     S
C907   C1398   1.435   1_545 S
C908   C933    1.518   .     S
C908   N973    1.381   .     A
C908   C1151   1.435   .     S
C909   O979    1.300   .     A
C909   C915    1.417   .     S
C909   O982    1.300   .     A
C910   O981    1.299   .     A
C910   O980    1.301   .     A
C910   C913    1.417   .     S
C911   Cl941   1.777   .     S
C911   C922    1.405   .     A
C911   C913    1.393   .     A
C912   Cl942   1.777   .     S
C912   C923    1.408   .     A
C912   C915    1.394   .     A
C913   C916    1.380   .     A
C914   O976    1.302   .     A
C914   C940    1.412   .     S
C914   O977    1.297   .     A
C915   C917    1.379   .     A
C916   H947    1.084   .     S
C916   C918    1.384   .     A
C917   C919    1.383   .     A
C917   H958    1.084   .     S
C918   C924    1.406   .     A
C918   C920    1.416   .     A
C919   C926    1.407   .     A
C919   C921    1.417   .     A
C920   C922    1.427   .     A
C920   C183    1.397   1_556 S
C921   C923    1.429   .     A
C922   C935    1.416   .     A
C923   C925    1.418   .     A
C924   Cl943   1.776   .     S
C924   C187    1.397   1_556 S
C925   Cl945   1.773   .     S
C926   Cl944   1.776   .     S
C927   H949    1.092   .     S
C927   C928    1.529   .     S
C927   H948    1.110   .     S
C928   H972    1.110   .     S
C928   H970    1.111   .     S
C928   H971    1.103   .     S
C929   H953    1.110   .     S
C929   H954    1.101   .     S
C929   C930    1.526   .     S
C930   H952    1.108   .     S
C930   H951    1.100   .     S
C930   H950    1.110   .     S
C931   C932    1.527   .     S
C931   H959    1.092   .     S
C931   H960    1.105   .     S
C932   H956    1.111   .     S
C932   H955    1.109   .     S
C932   H957    1.110   .     S
C933   H964    1.100   .     S
C933   H965    1.103   .     S
C933   C934    1.531   .     S
C934   H963    1.110   .     S
C934   H962    1.110   .     S
C934   H961    1.110   .     S
C935   Cl946   1.773   .     S
C935   C188    1.396   1_556 S
C936   H966    1.083   .     S
C937   H967    1.084   .     S
C937   C940    1.396   .     A
C937   C775    1.372   1_655 S
C938   H968    1.079   .     S
C938   C940    1.393   .     A
C938   C772    1.371   1_655 S
C939   H969    1.081   .     S
N973   Zn983   2.057   .     S
N974   Zn984   2.057   .     S
O975   Zn983   1.994   .     S
O976   Zn984   1.994   .     S
O977   Zn983   1.978   .     S
O978   Zn984   1.978   .     S
O979   Zn983   2.004   .     S
O980   Zn984   2.004   .     S
O981   Zn983   1.999   .     S
O982   Zn984   1.999   .     S
C985   C986    1.411   .     S
C985   O1060   1.299   .     A
C985   O1057   1.300   .     A
C986   C1018   1.394   .     A
C986   C1021   1.394   .     A
C987   C1009   1.513   .     S
C987   N1056   1.386   .     A
C988   C1011   1.516   .     S
C988   N1055   1.389   .     A
C988   C1235   1.435   .     S
C989   N1056   1.377   .     A
C989   C1013   1.517   .     S
C990   C1015   1.518   .     S
C990   N1055   1.381   .     A
C990   C1233   1.435   .     S
C991   O1061   1.300   .     A
C991   C997    1.417   .     S
C991   O1064   1.300   .     A
C992   O1063   1.299   .     A
C992   O1062   1.301   .     A
C992   C995    1.417   .     S
C993   Cl1023  1.777   .     S
C993   C1004   1.405   .     A
C993   C995    1.393   .     A
C994   Cl1024  1.777   .     S
C994   C1005   1.408   .     A
C994   C997    1.394   .     A
C995   C998    1.380   .     A
C996   O1058   1.302   .     A
C996   C1022   1.412   .     S
C996   O1059   1.297   .     A
C997   C999    1.379   .     A
C998   H1029   1.084   .     S
C998   C1000   1.384   .     A
C999   C1001   1.383   .     A
C999   H1040   1.084   .     S
C1000  C1006   1.406   .     A
C1000  C1002   1.416   .     A
C1001  C1008   1.407   .     A
C1001  C1003   1.417   .     A
C1002  C1004   1.427   .     A
C1002  C265    1.397   1_556 S
C1003  C1005   1.429   .     A
C1004  C1017   1.416   .     A
C1005  C1007   1.418   .     A
C1006  Cl1025  1.776   .     S
C1006  C269    1.397   1_556 S
C1007  Cl1027  1.773   .     S
C1008  Cl1026  1.776   .     S
C1009  H1031   1.092   .     S
C1009  C1010   1.529   .     S
C1009  H1030   1.110   .     S
C1010  H1054   1.110   .     S
C1010  H1052   1.111   .     S
C1010  H1053   1.103   .     S
C1011  H1035   1.110   .     S
C1011  H1036   1.101   .     S
C1011  C1012   1.526   .     S
C1012  H1034   1.108   .     S
C1012  H1033   1.100   .     S
C1012  H1032   1.110   .     S
C1013  C1014   1.527   .     S
C1013  H1041   1.092   .     S
C1013  H1042   1.105   .     S
C1014  H1038   1.111   .     S
C1014  H1037   1.109   .     S
C1014  H1039   1.110   .     S
C1015  H1046   1.100   .     S
C1015  H1047   1.103   .     S
C1015  C1016   1.531   .     S
C1016  H1045   1.110   .     S
C1016  H1044   1.110   .     S
C1016  H1043   1.110   .     S
C1017  Cl1028  1.773   .     S
C1017  C270    1.396   1_556 S
C1018  H1048   1.083   .     S
C1018  C1184   1.371   1_455 S
C1019  H1049   1.084   .     S
C1019  C1022   1.396   .     A
C1019  C1103   1.372   .     S
C1020  H1050   1.079   .     S
C1020  C1022   1.393   .     A
C1020  C1100   1.371   .     S
C1021  H1051   1.081   .     S
C1021  C1183   1.372   1_455 S
N1055  Zn1065  2.057   .     S
N1056  Zn1066  2.057   .     S
O1057  Zn1065  1.994   .     S
O1058  Zn1066  1.994   .     S
O1059  Zn1065  1.978   .     S
O1060  Zn1066  1.978   .     S
O1061  Zn1065  2.004   .     S
O1062  Zn1066  2.004   .     S
O1063  Zn1065  1.999   .     S
O1064  Zn1066  1.999   .     S
C1067  C1068   1.411   .     S
C1067  O1142   1.299   .     A
C1067  O1139   1.300   .     A
C1068  C1100   1.394   .     A
C1068  C1103   1.394   .     A
C1069  C1091   1.513   .     S
C1069  N1138   1.386   .     A
C1070  C1093   1.516   .     S
C1070  N1137   1.389   .     A
C1070  C1317   1.435   .     S
C1071  N1138   1.377   .     A
C1071  C1095   1.517   .     S
C1072  C1097   1.518   .     S
C1072  N1137   1.381   .     A
C1072  C1315   1.435   .     S
C1073  O1143   1.300   .     A
C1073  C1079   1.417   .     S
C1073  O1146   1.300   .     A
C1074  O1145   1.299   .     A
C1074  O1144   1.301   .     A
C1074  C1077   1.417   .     S
C1075  Cl1105  1.777   .     S
C1075  C1086   1.405   .     A
C1075  C1077   1.393   .     A
C1076  Cl1106  1.777   .     S
C1076  C1087   1.408   .     A
C1076  C1079   1.394   .     A
C1077  C1080   1.380   .     A
C1078  O1140   1.302   .     A
C1078  C1104   1.412   .     S
C1078  O1141   1.297   .     A
C1079  C1081   1.379   .     A
C1080  H1111   1.084   .     S
C1080  C1082   1.384   .     A
C1081  C1083   1.383   .     A
C1081  H1122   1.084   .     S
C1082  C1088   1.406   .     A
C1082  C1084   1.416   .     A
C1083  C1090   1.407   .     A
C1083  C1085   1.417   .     A
C1084  C1086   1.427   .     A
C1084  C347    1.397   1_556 S
C1085  C1087   1.429   .     A
C1086  C1099   1.416   .     A
C1087  C1089   1.418   .     A
C1088  Cl1107  1.776   .     S
C1088  C351    1.397   1_556 S
C1089  Cl1109  1.773   .     S
C1090  Cl1108  1.776   .     S
C1091  H1113   1.092   .     S
C1091  C1092   1.529   .     S
C1091  H1112   1.110   .     S
C1092  H1136   1.110   .     S
C1092  H1134   1.111   .     S
C1092  H1135   1.103   .     S
C1093  H1117   1.110   .     S
C1093  H1118   1.101   .     S
C1093  C1094   1.526   .     S
C1094  H1116   1.108   .     S
C1094  H1115   1.100   .     S
C1094  H1114   1.110   .     S
C1095  C1096   1.527   .     S
C1095  H1123   1.092   .     S
C1095  H1124   1.105   .     S
C1096  H1120   1.111   .     S
C1096  H1119   1.109   .     S
C1096  H1121   1.110   .     S
C1097  H1128   1.100   .     S
C1097  H1129   1.103   .     S
C1097  C1098   1.531   .     S
C1098  H1127   1.110   .     S
C1098  H1126   1.110   .     S
C1098  H1125   1.110   .     S
C1099  Cl1110  1.773   .     S
C1099  C352    1.396   1_556 S
C1100  H1130   1.083   .     S
C1101  H1131   1.084   .     S
C1101  C1104   1.396   .     A
C1101  C1185   1.372   .     S
C1102  H1132   1.079   .     S
C1102  C1104   1.393   .     A
C1102  C1182   1.371   .     S
C1103  H1133   1.081   .     S
N1137  Zn1147  2.057   .     S
N1138  Zn1148  2.057   .     S
O1139  Zn1147  1.994   .     S
O1140  Zn1148  1.994   .     S
O1141  Zn1147  1.978   .     S
O1142  Zn1148  1.978   .     S
O1143  Zn1147  2.004   .     S
O1144  Zn1148  2.004   .     S
O1145  Zn1147  1.999   .     S
O1146  Zn1148  1.999   .     S
C1149  C1150   1.411   .     S
C1149  O1224   1.299   .     A
C1149  O1221   1.300   .     A
C1150  C1182   1.394   .     A
C1150  C1185   1.394   .     A
C1151  C1173   1.513   .     S
C1151  N1220   1.386   .     A
C1152  C1175   1.516   .     S
C1152  N1219   1.389   .     A
C1152  C1399   1.435   .     S
C1153  N1220   1.377   .     A
C1153  C1177   1.517   .     S
C1154  C1179   1.518   .     S
C1154  N1219   1.381   .     A
C1154  C1397   1.435   .     S
C1155  O1225   1.300   .     A
C1155  C1161   1.417   .     S
C1155  O1228   1.300   .     A
C1156  O1227   1.299   .     A
C1156  O1226   1.301   .     A
C1156  C1159   1.417   .     S
C1157  Cl1187  1.777   .     S
C1157  C1168   1.405   .     A
C1157  C1159   1.393   .     A
C1158  Cl1188  1.777   .     S
C1158  C1169   1.408   .     A
C1158  C1161   1.394   .     A
C1159  C1162   1.380   .     A
C1160  O1222   1.302   .     A
C1160  C1186   1.412   .     S
C1160  O1223   1.297   .     A
C1161  C1163   1.379   .     A
C1162  H1193   1.084   .     S
C1162  C1164   1.384   .     A
C1163  C1165   1.383   .     A
C1163  H1204   1.084   .     S
C1164  C1170   1.406   .     A
C1164  C1166   1.416   .     A
C1165  C1172   1.407   .     A
C1165  C1167   1.417   .     A
C1166  C1168   1.427   .     A
C1166  C429    1.397   1_556 S
C1167  C1169   1.429   .     A
C1168  C1181   1.416   .     A
C1169  C1171   1.418   .     A
C1170  Cl1189  1.776   .     S
C1170  C433    1.397   1_556 S
C1171  Cl1191  1.773   .     S
C1172  Cl1190  1.776   .     S
C1173  H1195   1.092   .     S
C1173  C1174   1.529   .     S
C1173  H1194   1.110   .     S
C1174  H1218   1.110   .     S
C1174  H1216   1.111   .     S
C1174  H1217   1.103   .     S
C1175  H1199   1.110   .     S
C1175  H1200   1.101   .     S
C1175  C1176   1.526   .     S
C1176  H1198   1.108   .     S
C1176  H1197   1.100   .     S
C1176  H1196   1.110   .     S
C1177  C1178   1.527   .     S
C1177  H1205   1.092   .     S
C1177  H1206   1.105   .     S
C1178  H1202   1.111   .     S
C1178  H1201   1.109   .     S
C1178  H1203   1.110   .     S
C1179  H1210   1.100   .     S
C1179  H1211   1.103   .     S
C1179  C1180   1.531   .     S
C1180  H1209   1.110   .     S
C1180  H1208   1.110   .     S
C1180  H1207   1.110   .     S
C1181  Cl1192  1.773   .     S
C1181  C434    1.396   1_556 S
C1182  H1212   1.083   .     S
C1183  H1213   1.084   .     S
C1183  C1186   1.396   .     A
C1183  C1021   1.372   1_655 S
C1184  H1214   1.079   .     S
C1184  C1186   1.393   .     A
C1184  C1018   1.371   1_655 S
C1185  H1215   1.081   .     S
N1219  Zn1229  2.057   .     S
N1220  Zn1230  2.057   .     S
O1221  Zn1229  1.994   .     S
O1222  Zn1230  1.994   .     S
O1223  Zn1229  1.978   .     S
O1224  Zn1230  1.978   .     S
O1225  Zn1229  2.004   .     S
O1226  Zn1230  2.004   .     S
O1227  Zn1229  1.999   .     S
O1228  Zn1230  1.999   .     S
C1231  C1232   1.411   .     S
C1231  O1306   1.299   .     A
C1231  O1303   1.300   .     A
C1232  C1264   1.394   .     A
C1232  C1267   1.394   .     A
C1233  C1255   1.513   .     S
C1233  N1302   1.386   .     A
C1234  C1257   1.516   .     S
C1234  N1301   1.389   .     A
C1234  C743    1.435   1_565 S
C1235  N1302   1.377   .     A
C1235  C1259   1.517   .     S
C1236  C1261   1.518   .     S
C1236  N1301   1.381   .     A
C1236  C741    1.435   1_565 S
C1237  O1307   1.300   .     A
C1237  C1243   1.417   .     S
C1237  O1310   1.300   .     A
C1238  O1309   1.299   .     A
C1238  O1308   1.301   .     A
C1238  C1241   1.417   .     S
C1239  Cl1269  1.777   .     S
C1239  C1250   1.405   .     A
C1239  C1241   1.393   .     A
C1240  Cl1270  1.777   .     S
C1240  C1251   1.408   .     A
C1240  C1243   1.394   .     A
C1241  C1244   1.380   .     A
C1242  O1304   1.302   .     A
C1242  C1268   1.412   .     S
C1242  O1305   1.297   .     A
C1243  C1245   1.379   .     A
C1244  H1275   1.084   .     S
C1244  C1246   1.384   .     A
C1245  C1247   1.383   .     A
C1245  H1286   1.084   .     S
C1246  C1252   1.406   .     A
C1246  C1248   1.416   .     A
C1247  C1254   1.407   .     A
C1247  C1249   1.417   .     A
C1248  C1250   1.427   .     A
C1248  C511    1.397   1_556 S
C1249  C1251   1.429   .     A
C1250  C1263   1.416   .     A
C1251  C1253   1.418   .     A
C1252  Cl1271  1.776   .     S
C1252  C515    1.397   1_556 S
C1253  Cl1273  1.773   .     S
C1254  Cl1272  1.776   .     S
C1255  H1277   1.092   .     S
C1255  C1256   1.529   .     S
C1255  H1276   1.110   .     S
C1256  H1300   1.110   .     S
C1256  H1298   1.111   .     S
C1256  H1299   1.103   .     S
C1257  H1281   1.110   .     S
C1257  H1282   1.101   .     S
C1257  C1258   1.526   .     S
C1258  H1280   1.108   .     S
C1258  H1279   1.100   .     S
C1258  H1278   1.110   .     S
C1259  C1260   1.527   .     S
C1259  H1287   1.092   .     S
C1259  H1288   1.105   .     S
C1260  H1284   1.111   .     S
C1260  H1283   1.109   .     S
C1260  H1285   1.110   .     S
C1261  H1292   1.100   .     S
C1261  H1293   1.103   .     S
C1261  C1262   1.531   .     S
C1262  H1291   1.110   .     S
C1262  H1290   1.110   .     S
C1262  H1289   1.110   .     S
C1263  Cl1274  1.773   .     S
C1263  C516    1.396   1_556 S
C1264  H1294   1.083   .     S
C1264  C1430   1.371   1_455 S
C1265  H1295   1.084   .     S
C1265  C1268   1.396   .     A
C1265  C1349   1.372   .     S
C1266  H1296   1.079   .     S
C1266  C1268   1.393   .     A
C1266  C1346   1.371   .     S
C1267  H1297   1.081   .     S
C1267  C1429   1.372   1_455 S
N1301  Zn1311  2.057   .     S
N1302  Zn1312  2.057   .     S
O1303  Zn1311  1.994   .     S
O1304  Zn1312  1.994   .     S
O1305  Zn1311  1.978   .     S
O1306  Zn1312  1.978   .     S
O1307  Zn1311  2.004   .     S
O1308  Zn1312  2.004   .     S
O1309  Zn1311  1.999   .     S
O1310  Zn1312  1.999   .     S
C1313  C1314   1.411   .     S
C1313  O1388   1.299   .     A
C1313  O1385   1.300   .     A
C1314  C1346   1.394   .     A
C1314  C1349   1.394   .     A
C1315  C1337   1.513   .     S
C1315  N1384   1.386   .     A
C1316  C1339   1.516   .     S
C1316  N1383   1.389   .     A
C1316  C825    1.435   1_565 S
C1317  N1384   1.377   .     A
C1317  C1341   1.517   .     S
C1318  C1343   1.518   .     S
C1318  N1383   1.381   .     A
C1318  C823    1.435   1_565 S
C1319  O1389   1.300   .     A
C1319  C1325   1.417   .     S
C1319  O1392   1.300   .     A
C1320  O1391   1.299   .     A
C1320  O1390   1.301   .     A
C1320  C1323   1.417   .     S
C1321  Cl1351  1.777   .     S
C1321  C1332   1.405   .     A
C1321  C1323   1.393   .     A
C1322  Cl1352  1.777   .     S
C1322  C1333   1.408   .     A
C1322  C1325   1.394   .     A
C1323  C1326   1.380   .     A
C1324  O1386   1.302   .     A
C1324  C1350   1.412   .     S
C1324  O1387   1.297   .     A
C1325  C1327   1.379   .     A
C1326  H1357   1.084   .     S
C1326  C1328   1.384   .     A
C1327  C1329   1.383   .     A
C1327  H1368   1.084   .     S
C1328  C1334   1.406   .     A
C1328  C1330   1.416   .     A
C1329  C1336   1.407   .     A
C1329  C1331   1.417   .     A
C1330  C1332   1.427   .     A
C1330  C593    1.397   1_556 S
C1331  C1333   1.429   .     A
C1332  C1345   1.416   .     A
C1333  C1335   1.418   .     A
C1334  Cl1353  1.776   .     S
C1334  C597    1.397   1_556 S
C1335  Cl1355  1.773   .     S
C1336  Cl1354  1.776   .     S
C1337  H1359   1.092   .     S
C1337  C1338   1.529   .     S
C1337  H1358   1.110   .     S
C1338  H1382   1.110   .     S
C1338  H1380   1.111   .     S
C1338  H1381   1.103   .     S
C1339  H1363   1.110   .     S
C1339  H1364   1.101   .     S
C1339  C1340   1.526   .     S
C1340  H1362   1.108   .     S
C1340  H1361   1.100   .     S
C1340  H1360   1.110   .     S
C1341  C1342   1.527   .     S
C1341  H1369   1.092   .     S
C1341  H1370   1.105   .     S
C1342  H1366   1.111   .     S
C1342  H1365   1.109   .     S
C1342  H1367   1.110   .     S
C1343  H1374   1.100   .     S
C1343  H1375   1.103   .     S
C1343  C1344   1.531   .     S
C1344  H1373   1.110   .     S
C1344  H1372   1.110   .     S
C1344  H1371   1.110   .     S
C1345  Cl1356  1.773   .     S
C1345  C598    1.396   1_556 S
C1346  H1376   1.083   .     S
C1347  H1377   1.084   .     S
C1347  C1350   1.396   .     A
C1347  C1431   1.372   .     S
C1348  H1378   1.079   .     S
C1348  C1350   1.393   .     A
C1348  C1428   1.371   .     S
C1349  H1379   1.081   .     S
N1383  Zn1393  2.057   .     S
N1384  Zn1394  2.057   .     S
O1385  Zn1393  1.994   .     S
O1386  Zn1394  1.994   .     S
O1387  Zn1393  1.978   .     S
O1388  Zn1394  1.978   .     S
O1389  Zn1393  2.004   .     S
O1390  Zn1394  2.004   .     S
O1391  Zn1393  1.999   .     S
O1392  Zn1394  1.999   .     S
C1395  C1396   1.411   .     S
C1395  O1470   1.299   .     A
C1395  O1467   1.300   .     A
C1396  C1428   1.394   .     A
C1396  C1431   1.394   .     A
C1397  C1419   1.513   .     S
C1397  N1466   1.386   .     A
C1398  C1421   1.516   .     S
C1398  N1465   1.389   .     A
C1398  C907    1.435   1_565 S
C1399  N1466   1.377   .     A
C1399  C1423   1.517   .     S
C1400  C1425   1.518   .     S
C1400  N1465   1.381   .     A
C1400  C905    1.435   1_565 S
C1401  O1471   1.300   .     A
C1401  C1407   1.417   .     S
C1401  O1474   1.300   .     A
C1402  O1473   1.299   .     A
C1402  O1472   1.301   .     A
C1402  C1405   1.417   .     S
C1403  Cl1433  1.777   .     S
C1403  C1414   1.405   .     A
C1403  C1405   1.393   .     A
C1404  Cl1434  1.777   .     S
C1404  C1415   1.408   .     A
C1404  C1407   1.394   .     A
C1405  C1408   1.380   .     A
C1406  O1468   1.302   .     A
C1406  C1432   1.412   .     S
C1406  O1469   1.297   .     A
C1407  C1409   1.379   .     A
C1408  H1439   1.084   .     S
C1408  C1410   1.384   .     A
C1409  C1411   1.383   .     A
C1409  H1450   1.084   .     S
C1410  C1416   1.406   .     A
C1410  C1412   1.416   .     A
C1411  C1418   1.407   .     A
C1411  C1413   1.417   .     A
C1412  C1414   1.427   .     A
C1412  C675    1.397   1_556 S
C1413  C1415   1.429   .     A
C1414  C1427   1.416   .     A
C1415  C1417   1.418   .     A
C1416  Cl1435  1.776   .     S
C1416  C679    1.397   1_556 S
C1417  Cl1437  1.773   .     S
C1418  Cl1436  1.776   .     S
C1419  H1441   1.092   .     S
C1419  C1420   1.529   .     S
C1419  H1440   1.110   .     S
C1420  H1464   1.110   .     S
C1420  H1462   1.111   .     S
C1420  H1463   1.103   .     S
C1421  H1445   1.110   .     S
C1421  H1446   1.101   .     S
C1421  C1422   1.526   .     S
C1422  H1444   1.108   .     S
C1422  H1443   1.100   .     S
C1422  H1442   1.110   .     S
C1423  C1424   1.527   .     S
C1423  H1451   1.092   .     S
C1423  H1452   1.105   .     S
C1424  H1448   1.111   .     S
C1424  H1447   1.109   .     S
C1424  H1449   1.110   .     S
C1425  H1456   1.100   .     S
C1425  H1457   1.103   .     S
C1425  C1426   1.531   .     S
C1426  H1455   1.110   .     S
C1426  H1454   1.110   .     S
C1426  H1453   1.110   .     S
C1427  Cl1438  1.773   .     S
C1427  C680    1.396   1_556 S
C1428  H1458   1.083   .     S
C1429  H1459   1.084   .     S
C1429  C1432   1.396   .     A
C1429  C1267   1.372   1_655 S
C1430  H1460   1.079   .     S
C1430  C1432   1.393   .     A
C1430  C1264   1.371   1_655 S
C1431  H1461   1.081   .     S
N1465  Zn1475  2.057   .     S
N1466  Zn1476  2.057   .     S
O1467  Zn1475  1.994   .     S
O1468  Zn1476  1.994   .     S
O1469  Zn1475  1.978   .     S
O1470  Zn1476  1.978   .     S
O1471  Zn1475  2.004   .     S
O1472  Zn1476  2.004   .     S
O1473  Zn1475  1.999   .     S
O1474  Zn1476  1.999   .     S
