data_str_m3_o10_o17_pcu_sym.88
_audit_creation_date              2020-01-03
_audit_creation_method            'Materials Studio'
_symmetry_space_group_name_H-M    'P1'
_symmetry_Int_Tables_number       1
_symmetry_cell_setting            triclinic
loop_
_symmetry_equiv_pos_as_xyz
  x,y,z
_cell_length_a                    23.2691
_cell_length_b                    25.6110
_cell_length_c                    29.8167
_cell_angle_alpha                 91.1259
_cell_angle_beta                  86.0585
_cell_angle_gamma                 93.7749
loop_
_atom_site_label
_atom_site_type_symbol
_atom_site_fract_x
_atom_site_fract_y
_atom_site_fract_z
_atom_site_U_iso_or_equiv
_atom_site_adp_type
_atom_site_occupancy
C1     C     0.18195   0.26492   0.24864   0.00000  Uiso   1.00
C2     C     0.19861   0.21018   0.40616   0.00000  Uiso   1.00
C3     C     0.16368   0.16484   0.11611   0.00000  Uiso   1.00
C4     C     0.16966   0.16850   0.38389   0.00000  Uiso   1.00
C5     C     0.19303   0.20625   0.09321   0.00000  Uiso   1.00
C6     C     0.14031   0.12708   0.40679   0.00000  Uiso   1.00
C7     C     0.19413   0.20741   0.04697   0.00000  Uiso   1.00
C8     C     0.13921   0.12592   0.45303   0.00000  Uiso   1.00
C9     C     0.16574   0.16612   0.02345   0.00000  Uiso   1.00
C10    C     0.16759   0.16722   0.47655   0.00000  Uiso   1.00
C11    C     0.13576   0.12369   0.04678   0.00000  Uiso   1.00
C12    C     0.15138   0.06841   0.25136   0.00000  Uiso   1.00
C13    C     0.19757   0.20964   0.45322   0.00000  Uiso   1.00
C14    C     0.22351   0.24922   0.02407   0.00000  Uiso   1.00
C15    C     0.10982   0.08411   0.47593   0.00000  Uiso   1.00
C16    C     0.10609   0.07842   0.11946   0.00000  Uiso   1.00
C17    C     0.13658   0.03419   0.12679   0.00000  Uiso   1.00
C18    C     0.10866   0.32413   0.14862   0.00000  Uiso   1.00
C19    C     0.05044   0.32487   0.16361   0.00000  Uiso   1.00
C20    C     0.01992   0.03553   0.15646   0.00000  Uiso   1.00
C21    C     0.04755   0.07882   0.13424   0.00000  Uiso   1.00
C22    C     0.22725   0.25492   0.38054   0.00000  Uiso   1.00
C23    C     0.22529   0.25042   0.47757   0.00000  Uiso   1.00
C24    C     0.28579   0.25451   0.36576   0.00000  Uiso   1.00
C25    C     0.31341   0.29780   0.34354   0.00000  Uiso   1.00
C26    C     0.28289   0.00846   0.33639   0.00000  Uiso   1.00
C27    C     0.22467   0.00920   0.35138   0.00000  Uiso   1.00
C28    C     0.19675   0.29914   0.37321   0.00000  Uiso   1.00
C29    C     0.10804   0.08291   0.02243   0.00000  Uiso   1.00
C30    C     0.18994   0.31942   0.24716   0.00000  Uiso   1.00
C31    C     0.14339   0.01391   0.25284   0.00000  Uiso   1.00
C32    C     0.16773   0.16782   0.33634   0.00000  Uiso   1.00
C33    C     0.16561   0.16551   0.16366   0.00000  Uiso   1.00
C34    C     0.13473   0.12315   0.09384   0.00000  Uiso   1.00
H35    H     0.21503   0.23767   0.11170   0.00000  Uiso   1.00
H36    H     0.32883   0.20644   0.28332   0.00000  Uiso   1.00
H37    H     0.18164   0.03316   0.11515   0.00000  Uiso   1.00
H38    H     0.13219   0.29001   0.15410   0.00000  Uiso   1.00
H39    H     0.02902   0.29137   0.18075   0.00000  Uiso   1.00
H40    H     0.30812   0.03600   0.16794   0.00000  Uiso   1.00
H41    H     0.02338   0.11247   0.12833   0.00000  Uiso   1.00
H42    H     0.30995   0.22087   0.37167   0.00000  Uiso   1.00
H43    H     0.02521   0.29733   0.33206   0.00000  Uiso   1.00
H44    H     0.30432   0.04197   0.31925   0.00000  Uiso   1.00
H45    H     0.20115   0.04332   0.34590   0.00000  Uiso   1.00
H46    H     0.11830   0.09567   0.38830   0.00000  Uiso   1.00
H47    H     0.15170   0.30017   0.38485   0.00000  Uiso   1.00
H48    H     0.24523   0.28102   0.04217   0.00000  Uiso   1.00
H49    H     0.08811   0.05231   0.45783   0.00000  Uiso   1.00
H50    H     0.24856   0.28344   0.46102   0.00000  Uiso   1.00
H51    H     0.08477   0.04989   0.03898   0.00000  Uiso   1.00
H52    H     0.23386   0.00312   0.24145   0.00000  Uiso   1.00
H53    H     0.09948   0.33021   0.25855   0.00000  Uiso   1.00
H54    H     0.00450   0.12690   0.21668   0.00000  Uiso   1.00
N55    N     0.31678   0.15265   0.23783   0.00000  Uiso   1.00
N56    N     0.01656   0.18068   0.26217   0.00000  Uiso   1.00
O57    O     0.12975   0.24619   0.25299   0.00000  Uiso   1.00
O58    O     0.20358   0.08714   0.24701   0.00000  Uiso   1.00
O59    O     0.22613   0.23721   0.24519   0.00000  Uiso   1.00
O60    O     0.10720   0.09613   0.25481   0.00000  Uiso   1.00
O61    O     0.11847   0.17117   0.31997   0.00000  Uiso   1.00
O62    O     0.21486   0.16216   0.18003   0.00000  Uiso   1.00
O63    O     0.21485   0.16219   0.31217   0.00000  Uiso   1.00
O64    O     0.11848   0.17115   0.18783   0.00000  Uiso   1.00
Zn65   Zn    0.10231   0.17266   0.25521   0.00000  Uiso   1.00
Zn66   Zn    0.23102   0.16067   0.24479   0.00000  Uiso   1.00
C67    C     0.51528   0.26492   0.24864   0.00000  Uiso   1.00
C68    C     0.53194   0.21018   0.40616   0.00000  Uiso   1.00
C69    C     0.49701   0.16484   0.11611   0.00000  Uiso   1.00
C70    C     0.50299   0.16850   0.38389   0.00000  Uiso   1.00
C71    C     0.52636   0.20625   0.09321   0.00000  Uiso   1.00
C72    C     0.47364   0.12708   0.40679   0.00000  Uiso   1.00
C73    C     0.52746   0.20741   0.04697   0.00000  Uiso   1.00
C74    C     0.47254   0.12592   0.45303   0.00000  Uiso   1.00
C75    C     0.49907   0.16612   0.02345   0.00000  Uiso   1.00
C76    C     0.50093   0.16722   0.47655   0.00000  Uiso   1.00
C77    C     0.46910   0.12369   0.04678   0.00000  Uiso   1.00
C78    C     0.48472   0.06841   0.25136   0.00000  Uiso   1.00
C79    C     0.53090   0.20964   0.45322   0.00000  Uiso   1.00
C80    C     0.55685   0.24922   0.02407   0.00000  Uiso   1.00
C81    C     0.44315   0.08411   0.47593   0.00000  Uiso   1.00
C82    C     0.43942   0.07842   0.11946   0.00000  Uiso   1.00
C83    C     0.46992   0.03419   0.12679   0.00000  Uiso   1.00
C84    C     0.44199   0.32413   0.14862   0.00000  Uiso   1.00
C85    C     0.38378   0.32487   0.16361   0.00000  Uiso   1.00
C86    C     0.35325   0.03553   0.15646   0.00000  Uiso   1.00
C87    C     0.38088   0.07882   0.13424   0.00000  Uiso   1.00
C88    C     0.56058   0.25492   0.38054   0.00000  Uiso   1.00
C89    C     0.55862   0.25042   0.47757   0.00000  Uiso   1.00
C90    C     0.61912   0.25451   0.36576   0.00000  Uiso   1.00
C91    C     0.64675   0.29780   0.34354   0.00000  Uiso   1.00
C92    C     0.61622   0.00846   0.33639   0.00000  Uiso   1.00
C93    C     0.55801   0.00920   0.35138   0.00000  Uiso   1.00
C94    C     0.53008   0.29914   0.37321   0.00000  Uiso   1.00
C95    C     0.44138   0.08291   0.02243   0.00000  Uiso   1.00
C96    C     0.52328   0.31942   0.24716   0.00000  Uiso   1.00
C97    C     0.47672   0.01391   0.25284   0.00000  Uiso   1.00
C98    C     0.50106   0.16782   0.33634   0.00000  Uiso   1.00
C99    C     0.49894   0.16551   0.16366   0.00000  Uiso   1.00
C100   C     0.46806   0.12315   0.09384   0.00000  Uiso   1.00
H101   H     0.54837   0.23767   0.11170   0.00000  Uiso   1.00
H102   H     0.66217   0.20644   0.28332   0.00000  Uiso   1.00
H103   H     0.51497   0.03316   0.11515   0.00000  Uiso   1.00
H104   H     0.46552   0.29001   0.15410   0.00000  Uiso   1.00
H105   H     0.36235   0.29137   0.18075   0.00000  Uiso   1.00
H106   H     0.64145   0.03600   0.16794   0.00000  Uiso   1.00
H107   H     0.35672   0.11247   0.12833   0.00000  Uiso   1.00
H108   H     0.64329   0.22087   0.37167   0.00000  Uiso   1.00
H109   H     0.35855   0.29733   0.33206   0.00000  Uiso   1.00
H110   H     0.63765   0.04197   0.31925   0.00000  Uiso   1.00
H111   H     0.53448   0.04332   0.34590   0.00000  Uiso   1.00
H112   H     0.45163   0.09567   0.38830   0.00000  Uiso   1.00
H113   H     0.48503   0.30017   0.38485   0.00000  Uiso   1.00
H114   H     0.57856   0.28102   0.04217   0.00000  Uiso   1.00
H115   H     0.42144   0.05231   0.45783   0.00000  Uiso   1.00
H116   H     0.58190   0.28344   0.46102   0.00000  Uiso   1.00
H117   H     0.41810   0.04989   0.03898   0.00000  Uiso   1.00
H118   H     0.56719   0.00312   0.24145   0.00000  Uiso   1.00
H119   H     0.43281   0.33021   0.25855   0.00000  Uiso   1.00
H120   H     0.33783   0.12690   0.21668   0.00000  Uiso   1.00
N121   N     0.65011   0.15265   0.23783   0.00000  Uiso   1.00
N122   N     0.34989   0.18068   0.26217   0.00000  Uiso   1.00
O123   O     0.46308   0.24619   0.25299   0.00000  Uiso   1.00
O124   O     0.53692   0.08714   0.24701   0.00000  Uiso   1.00
O125   O     0.55946   0.23721   0.24519   0.00000  Uiso   1.00
O126   O     0.44054   0.09613   0.25481   0.00000  Uiso   1.00
O127   O     0.45181   0.17117   0.31997   0.00000  Uiso   1.00
O128   O     0.54819   0.16216   0.18003   0.00000  Uiso   1.00
O129   O     0.54819   0.16219   0.31217   0.00000  Uiso   1.00
O130   O     0.45181   0.17115   0.18783   0.00000  Uiso   1.00
Zn131  Zn    0.43565   0.17266   0.25521   0.00000  Uiso   1.00
Zn132  Zn    0.56435   0.16067   0.24479   0.00000  Uiso   1.00
C133   C     0.84862   0.26492   0.24864   0.00000  Uiso   1.00
C134   C     0.86527   0.21018   0.40616   0.00000  Uiso   1.00
C135   C     0.83034   0.16484   0.11611   0.00000  Uiso   1.00
C136   C     0.83633   0.16850   0.38389   0.00000  Uiso   1.00
C137   C     0.85969   0.20625   0.09321   0.00000  Uiso   1.00
C138   C     0.80697   0.12708   0.40679   0.00000  Uiso   1.00
C139   C     0.86079   0.20741   0.04697   0.00000  Uiso   1.00
C140   C     0.80587   0.12592   0.45303   0.00000  Uiso   1.00
C141   C     0.83241   0.16612   0.02345   0.00000  Uiso   1.00
C142   C     0.83426   0.16722   0.47655   0.00000  Uiso   1.00
C143   C     0.80243   0.12369   0.04678   0.00000  Uiso   1.00
C144   C     0.81805   0.06841   0.25136   0.00000  Uiso   1.00
C145   C     0.86424   0.20964   0.45322   0.00000  Uiso   1.00
C146   C     0.89018   0.24922   0.02407   0.00000  Uiso   1.00
C147   C     0.77649   0.08411   0.47593   0.00000  Uiso   1.00
C148   C     0.77275   0.07842   0.11946   0.00000  Uiso   1.00
C149   C     0.80325   0.03419   0.12679   0.00000  Uiso   1.00
C150   C     0.77533   0.32413   0.14862   0.00000  Uiso   1.00
C151   C     0.71711   0.32487   0.16361   0.00000  Uiso   1.00
C152   C     0.68659   0.03553   0.15646   0.00000  Uiso   1.00
C153   C     0.71421   0.07882   0.13424   0.00000  Uiso   1.00
C154   C     0.89391   0.25492   0.38054   0.00000  Uiso   1.00
C155   C     0.89196   0.25042   0.47757   0.00000  Uiso   1.00
C156   C     0.95245   0.25451   0.36576   0.00000  Uiso   1.00
C157   C     0.98008   0.29780   0.34354   0.00000  Uiso   1.00
C158   C     0.94956   0.00846   0.33639   0.00000  Uiso   1.00
C159   C     0.89134   0.00920   0.35138   0.00000  Uiso   1.00
C160   C     0.86342   0.29914   0.37321   0.00000  Uiso   1.00
C161   C     0.77471   0.08291   0.02243   0.00000  Uiso   1.00
C162   C     0.85661   0.31942   0.24716   0.00000  Uiso   1.00
C163   C     0.81006   0.01391   0.25284   0.00000  Uiso   1.00
C164   C     0.83439   0.16782   0.33634   0.00000  Uiso   1.00
C165   C     0.83227   0.16551   0.16366   0.00000  Uiso   1.00
C166   C     0.80139   0.12315   0.09384   0.00000  Uiso   1.00
H167   H     0.88170   0.23767   0.11170   0.00000  Uiso   1.00
H168   H     0.99550   0.20644   0.28332   0.00000  Uiso   1.00
H169   H     0.84830   0.03316   0.11515   0.00000  Uiso   1.00
H170   H     0.79885   0.29001   0.15410   0.00000  Uiso   1.00
H171   H     0.69568   0.29137   0.18075   0.00000  Uiso   1.00
H172   H     0.97479   0.03600   0.16794   0.00000  Uiso   1.00
H173   H     0.69005   0.11247   0.12833   0.00000  Uiso   1.00
H174   H     0.97662   0.22087   0.37167   0.00000  Uiso   1.00
H175   H     0.69188   0.29733   0.33206   0.00000  Uiso   1.00
H176   H     0.97098   0.04197   0.31925   0.00000  Uiso   1.00
H177   H     0.86781   0.04332   0.34590   0.00000  Uiso   1.00
H178   H     0.78497   0.09567   0.38830   0.00000  Uiso   1.00
H179   H     0.81836   0.30017   0.38485   0.00000  Uiso   1.00
H180   H     0.91189   0.28102   0.04217   0.00000  Uiso   1.00
H181   H     0.75477   0.05231   0.45783   0.00000  Uiso   1.00
H182   H     0.91523   0.28344   0.46102   0.00000  Uiso   1.00
H183   H     0.75144   0.04989   0.03898   0.00000  Uiso   1.00
H184   H     0.90053   0.00312   0.24145   0.00000  Uiso   1.00
H185   H     0.76614   0.33021   0.25855   0.00000  Uiso   1.00
H186   H     0.67117   0.12690   0.21668   0.00000  Uiso   1.00
N187   N     0.98344   0.15265   0.23783   0.00000  Uiso   1.00
N188   N     0.68322   0.18068   0.26217   0.00000  Uiso   1.00
O189   O     0.79642   0.24619   0.25299   0.00000  Uiso   1.00
O190   O     0.87025   0.08714   0.24701   0.00000  Uiso   1.00
O191   O     0.89280   0.23721   0.24519   0.00000  Uiso   1.00
O192   O     0.77387   0.09613   0.25481   0.00000  Uiso   1.00
O193   O     0.78514   0.17117   0.31997   0.00000  Uiso   1.00
O194   O     0.88153   0.16216   0.18003   0.00000  Uiso   1.00
O195   O     0.88152   0.16219   0.31217   0.00000  Uiso   1.00
O196   O     0.78515   0.17115   0.18783   0.00000  Uiso   1.00
Zn197  Zn    0.76898   0.17266   0.25521   0.00000  Uiso   1.00
Zn198  Zn    0.89769   0.16067   0.24479   0.00000  Uiso   1.00
C199   C     0.18195   0.59825   0.24864   0.00000  Uiso   1.00
C200   C     0.19861   0.54351   0.40616   0.00000  Uiso   1.00
C201   C     0.16368   0.49817   0.11611   0.00000  Uiso   1.00
C202   C     0.16966   0.50183   0.38389   0.00000  Uiso   1.00
C203   C     0.19303   0.53959   0.09321   0.00000  Uiso   1.00
C204   C     0.14031   0.46041   0.40679   0.00000  Uiso   1.00
C205   C     0.19413   0.54074   0.04697   0.00000  Uiso   1.00
C206   C     0.13921   0.45926   0.45303   0.00000  Uiso   1.00
C207   C     0.16574   0.49945   0.02345   0.00000  Uiso   1.00
C208   C     0.16759   0.50055   0.47655   0.00000  Uiso   1.00
C209   C     0.13576   0.45702   0.04678   0.00000  Uiso   1.00
C210   C     0.15138   0.40175   0.25136   0.00000  Uiso   1.00
C211   C     0.19757   0.54298   0.45322   0.00000  Uiso   1.00
C212   C     0.22351   0.58255   0.02407   0.00000  Uiso   1.00
C213   C     0.10982   0.41745   0.47593   0.00000  Uiso   1.00
C214   C     0.10609   0.41175   0.11946   0.00000  Uiso   1.00
C215   C     0.13658   0.36753   0.12679   0.00000  Uiso   1.00
C216   C     0.10866   0.65747   0.14862   0.00000  Uiso   1.00
C217   C     0.05044   0.65821   0.16361   0.00000  Uiso   1.00
C218   C     0.01992   0.36886   0.15646   0.00000  Uiso   1.00
C219   C     0.04755   0.41215   0.13424   0.00000  Uiso   1.00
C220   C     0.22725   0.58825   0.38054   0.00000  Uiso   1.00
C221   C     0.22529   0.58375   0.47757   0.00000  Uiso   1.00
C222   C     0.28579   0.58785   0.36576   0.00000  Uiso   1.00
C223   C     0.31341   0.63114   0.34354   0.00000  Uiso   1.00
C224   C     0.28289   0.34179   0.33639   0.00000  Uiso   1.00
C225   C     0.22467   0.34253   0.35138   0.00000  Uiso   1.00
C226   C     0.19675   0.63247   0.37321   0.00000  Uiso   1.00
C227   C     0.10804   0.41625   0.02243   0.00000  Uiso   1.00
C228   C     0.18994   0.65275   0.24716   0.00000  Uiso   1.00
C229   C     0.14339   0.34725   0.25284   0.00000  Uiso   1.00
C230   C     0.16773   0.50116   0.33634   0.00000  Uiso   1.00
C231   C     0.16561   0.49884   0.16366   0.00000  Uiso   1.00
C232   C     0.13473   0.45649   0.09384   0.00000  Uiso   1.00
H233   H     0.21503   0.57100   0.11170   0.00000  Uiso   1.00
H234   H     0.32883   0.53977   0.28332   0.00000  Uiso   1.00
H235   H     0.18164   0.36650   0.11515   0.00000  Uiso   1.00
H236   H     0.13219   0.62335   0.15410   0.00000  Uiso   1.00
H237   H     0.02902   0.62470   0.18075   0.00000  Uiso   1.00
H238   H     0.30812   0.36933   0.16794   0.00000  Uiso   1.00
H239   H     0.02338   0.44580   0.12833   0.00000  Uiso   1.00
H240   H     0.30995   0.55420   0.37167   0.00000  Uiso   1.00
H241   H     0.02521   0.63067   0.33206   0.00000  Uiso   1.00
H242   H     0.30432   0.37530   0.31925   0.00000  Uiso   1.00
H243   H     0.20115   0.37665   0.34590   0.00000  Uiso   1.00
H244   H     0.11830   0.42900   0.38830   0.00000  Uiso   1.00
H245   H     0.15170   0.63350   0.38485   0.00000  Uiso   1.00
H246   H     0.24523   0.61435   0.04217   0.00000  Uiso   1.00
H247   H     0.08811   0.38564   0.45783   0.00000  Uiso   1.00
H248   H     0.24856   0.61677   0.46102   0.00000  Uiso   1.00
H249   H     0.08477   0.38323   0.03898   0.00000  Uiso   1.00
H250   H     0.23386   0.33645   0.24145   0.00000  Uiso   1.00
H251   H     0.09948   0.66355   0.25855   0.00000  Uiso   1.00
H252   H     0.00450   0.46023   0.21668   0.00000  Uiso   1.00
N253   N     0.31678   0.48598   0.23783   0.00000  Uiso   1.00
N254   N     0.01656   0.51402   0.26217   0.00000  Uiso   1.00
O255   O     0.12975   0.57952   0.25299   0.00000  Uiso   1.00
O256   O     0.20358   0.42048   0.24701   0.00000  Uiso   1.00
O257   O     0.22613   0.57054   0.24519   0.00000  Uiso   1.00
O258   O     0.10720   0.42946   0.25481   0.00000  Uiso   1.00
O259   O     0.11847   0.50450   0.31997   0.00000  Uiso   1.00
O260   O     0.21486   0.49550   0.18003   0.00000  Uiso   1.00
O261   O     0.21485   0.49552   0.31217   0.00000  Uiso   1.00
O262   O     0.11848   0.50448   0.18783   0.00000  Uiso   1.00
Zn263  Zn    0.10231   0.50600   0.25521   0.00000  Uiso   1.00
Zn264  Zn    0.23102   0.49400   0.24479   0.00000  Uiso   1.00
C265   C     0.51528   0.59825   0.24864   0.00000  Uiso   1.00
C266   C     0.53194   0.54351   0.40616   0.00000  Uiso   1.00
C267   C     0.49701   0.49817   0.11611   0.00000  Uiso   1.00
C268   C     0.50299   0.50183   0.38389   0.00000  Uiso   1.00
C269   C     0.52636   0.53959   0.09321   0.00000  Uiso   1.00
C270   C     0.47364   0.46041   0.40679   0.00000  Uiso   1.00
C271   C     0.52746   0.54074   0.04697   0.00000  Uiso   1.00
C272   C     0.47254   0.45926   0.45303   0.00000  Uiso   1.00
C273   C     0.49907   0.49945   0.02345   0.00000  Uiso   1.00
C274   C     0.50093   0.50055   0.47655   0.00000  Uiso   1.00
C275   C     0.46910   0.45702   0.04678   0.00000  Uiso   1.00
C276   C     0.48472   0.40175   0.25136   0.00000  Uiso   1.00
C277   C     0.53090   0.54298   0.45322   0.00000  Uiso   1.00
C278   C     0.55685   0.58255   0.02407   0.00000  Uiso   1.00
C279   C     0.44315   0.41745   0.47593   0.00000  Uiso   1.00
C280   C     0.43942   0.41175   0.11946   0.00000  Uiso   1.00
C281   C     0.46992   0.36753   0.12679   0.00000  Uiso   1.00
C282   C     0.44199   0.65747   0.14862   0.00000  Uiso   1.00
C283   C     0.38378   0.65821   0.16361   0.00000  Uiso   1.00
C284   C     0.35325   0.36886   0.15646   0.00000  Uiso   1.00
C285   C     0.38088   0.41215   0.13424   0.00000  Uiso   1.00
C286   C     0.56058   0.58825   0.38054   0.00000  Uiso   1.00
C287   C     0.55862   0.58375   0.47757   0.00000  Uiso   1.00
C288   C     0.61912   0.58785   0.36576   0.00000  Uiso   1.00
C289   C     0.64675   0.63114   0.34354   0.00000  Uiso   1.00
C290   C     0.61622   0.34179   0.33639   0.00000  Uiso   1.00
C291   C     0.55801   0.34253   0.35138   0.00000  Uiso   1.00
C292   C     0.53008   0.63247   0.37321   0.00000  Uiso   1.00
C293   C     0.44138   0.41625   0.02243   0.00000  Uiso   1.00
C294   C     0.52328   0.65275   0.24716   0.00000  Uiso   1.00
C295   C     0.47672   0.34725   0.25284   0.00000  Uiso   1.00
C296   C     0.50106   0.50116   0.33634   0.00000  Uiso   1.00
C297   C     0.49894   0.49884   0.16366   0.00000  Uiso   1.00
C298   C     0.46806   0.45649   0.09384   0.00000  Uiso   1.00
H299   H     0.54837   0.57100   0.11170   0.00000  Uiso   1.00
H300   H     0.66217   0.53977   0.28332   0.00000  Uiso   1.00
H301   H     0.51497   0.36650   0.11515   0.00000  Uiso   1.00
H302   H     0.46552   0.62335   0.15410   0.00000  Uiso   1.00
H303   H     0.36235   0.62470   0.18075   0.00000  Uiso   1.00
H304   H     0.64145   0.36933   0.16794   0.00000  Uiso   1.00
H305   H     0.35672   0.44580   0.12833   0.00000  Uiso   1.00
H306   H     0.64329   0.55420   0.37167   0.00000  Uiso   1.00
H307   H     0.35855   0.63067   0.33206   0.00000  Uiso   1.00
H308   H     0.63765   0.37530   0.31925   0.00000  Uiso   1.00
H309   H     0.53448   0.37665   0.34590   0.00000  Uiso   1.00
H310   H     0.45163   0.42900   0.38830   0.00000  Uiso   1.00
H311   H     0.48503   0.63350   0.38485   0.00000  Uiso   1.00
H312   H     0.57856   0.61435   0.04217   0.00000  Uiso   1.00
H313   H     0.42144   0.38564   0.45783   0.00000  Uiso   1.00
H314   H     0.58190   0.61677   0.46102   0.00000  Uiso   1.00
H315   H     0.41810   0.38323   0.03898   0.00000  Uiso   1.00
H316   H     0.56719   0.33645   0.24145   0.00000  Uiso   1.00
H317   H     0.43281   0.66355   0.25855   0.00000  Uiso   1.00
H318   H     0.33783   0.46023   0.21668   0.00000  Uiso   1.00
N319   N     0.65011   0.48598   0.23783   0.00000  Uiso   1.00
N320   N     0.34989   0.51402   0.26217   0.00000  Uiso   1.00
O321   O     0.46308   0.57952   0.25299   0.00000  Uiso   1.00
O322   O     0.53692   0.42048   0.24701   0.00000  Uiso   1.00
O323   O     0.55946   0.57054   0.24519   0.00000  Uiso   1.00
O324   O     0.44054   0.42946   0.25481   0.00000  Uiso   1.00
O325   O     0.45181   0.50450   0.31997   0.00000  Uiso   1.00
O326   O     0.54819   0.49550   0.18003   0.00000  Uiso   1.00
O327   O     0.54819   0.49552   0.31217   0.00000  Uiso   1.00
O328   O     0.45181   0.50448   0.18783   0.00000  Uiso   1.00
Zn329  Zn    0.43565   0.50600   0.25521   0.00000  Uiso   1.00
Zn330  Zn    0.56435   0.49400   0.24479   0.00000  Uiso   1.00
C331   C     0.84862   0.59825   0.24864   0.00000  Uiso   1.00
C332   C     0.86527   0.54351   0.40616   0.00000  Uiso   1.00
C333   C     0.83034   0.49817   0.11611   0.00000  Uiso   1.00
C334   C     0.83633   0.50183   0.38389   0.00000  Uiso   1.00
C335   C     0.85969   0.53959   0.09321   0.00000  Uiso   1.00
C336   C     0.80697   0.46041   0.40679   0.00000  Uiso   1.00
C337   C     0.86079   0.54074   0.04697   0.00000  Uiso   1.00
C338   C     0.80587   0.45926   0.45303   0.00000  Uiso   1.00
C339   C     0.83241   0.49945   0.02345   0.00000  Uiso   1.00
C340   C     0.83426   0.50055   0.47655   0.00000  Uiso   1.00
C341   C     0.80243   0.45702   0.04678   0.00000  Uiso   1.00
C342   C     0.81805   0.40175   0.25136   0.00000  Uiso   1.00
C343   C     0.86424   0.54298   0.45322   0.00000  Uiso   1.00
C344   C     0.89018   0.58255   0.02407   0.00000  Uiso   1.00
C345   C     0.77649   0.41745   0.47593   0.00000  Uiso   1.00
C346   C     0.77275   0.41175   0.11946   0.00000  Uiso   1.00
C347   C     0.80325   0.36753   0.12679   0.00000  Uiso   1.00
C348   C     0.77533   0.65747   0.14862   0.00000  Uiso   1.00
C349   C     0.71711   0.65821   0.16361   0.00000  Uiso   1.00
C350   C     0.68659   0.36886   0.15646   0.00000  Uiso   1.00
C351   C     0.71421   0.41215   0.13424   0.00000  Uiso   1.00
C352   C     0.89391   0.58825   0.38054   0.00000  Uiso   1.00
C353   C     0.89196   0.58375   0.47757   0.00000  Uiso   1.00
C354   C     0.95245   0.58785   0.36576   0.00000  Uiso   1.00
C355   C     0.98008   0.63114   0.34354   0.00000  Uiso   1.00
C356   C     0.94956   0.34179   0.33639   0.00000  Uiso   1.00
C357   C     0.89134   0.34253   0.35138   0.00000  Uiso   1.00
C358   C     0.86342   0.63247   0.37321   0.00000  Uiso   1.00
C359   C     0.77471   0.41625   0.02243   0.00000  Uiso   1.00
C360   C     0.85661   0.65275   0.24716   0.00000  Uiso   1.00
C361   C     0.81006   0.34725   0.25284   0.00000  Uiso   1.00
C362   C     0.83439   0.50116   0.33634   0.00000  Uiso   1.00
C363   C     0.83227   0.49884   0.16366   0.00000  Uiso   1.00
C364   C     0.80139   0.45649   0.09384   0.00000  Uiso   1.00
H365   H     0.88170   0.57100   0.11170   0.00000  Uiso   1.00
H366   H     0.99550   0.53977   0.28332   0.00000  Uiso   1.00
H367   H     0.84830   0.36650   0.11515   0.00000  Uiso   1.00
H368   H     0.79885   0.62335   0.15410   0.00000  Uiso   1.00
H369   H     0.69568   0.62470   0.18075   0.00000  Uiso   1.00
H370   H     0.97479   0.36933   0.16794   0.00000  Uiso   1.00
H371   H     0.69005   0.44580   0.12833   0.00000  Uiso   1.00
H372   H     0.97662   0.55420   0.37167   0.00000  Uiso   1.00
H373   H     0.69188   0.63067   0.33206   0.00000  Uiso   1.00
H374   H     0.97098   0.37530   0.31925   0.00000  Uiso   1.00
H375   H     0.86781   0.37665   0.34590   0.00000  Uiso   1.00
H376   H     0.78497   0.42900   0.38830   0.00000  Uiso   1.00
H377   H     0.81836   0.63350   0.38485   0.00000  Uiso   1.00
H378   H     0.91189   0.61435   0.04217   0.00000  Uiso   1.00
H379   H     0.75477   0.38564   0.45783   0.00000  Uiso   1.00
H380   H     0.91523   0.61677   0.46102   0.00000  Uiso   1.00
H381   H     0.75144   0.38323   0.03898   0.00000  Uiso   1.00
H382   H     0.90053   0.33645   0.24145   0.00000  Uiso   1.00
H383   H     0.76614   0.66355   0.25855   0.00000  Uiso   1.00
H384   H     0.67117   0.46023   0.21668   0.00000  Uiso   1.00
N385   N     0.98344   0.48598   0.23783   0.00000  Uiso   1.00
N386   N     0.68322   0.51402   0.26217   0.00000  Uiso   1.00
O387   O     0.79642   0.57952   0.25299   0.00000  Uiso   1.00
O388   O     0.87025   0.42048   0.24701   0.00000  Uiso   1.00
O389   O     0.89280   0.57054   0.24519   0.00000  Uiso   1.00
O390   O     0.77387   0.42946   0.25481   0.00000  Uiso   1.00
O391   O     0.78514   0.50450   0.31997   0.00000  Uiso   1.00
O392   O     0.88153   0.49550   0.18003   0.00000  Uiso   1.00
O393   O     0.88152   0.49552   0.31217   0.00000  Uiso   1.00
O394   O     0.78515   0.50448   0.18783   0.00000  Uiso   1.00
Zn395  Zn    0.76898   0.50600   0.25521   0.00000  Uiso   1.00
Zn396  Zn    0.89769   0.49400   0.24479   0.00000  Uiso   1.00
C397   C     0.18195   0.93159   0.24864   0.00000  Uiso   1.00
C398   C     0.19861   0.87685   0.40616   0.00000  Uiso   1.00
C399   C     0.16368   0.83150   0.11611   0.00000  Uiso   1.00
C400   C     0.16966   0.83516   0.38389   0.00000  Uiso   1.00
C401   C     0.19303   0.87292   0.09321   0.00000  Uiso   1.00
C402   C     0.14031   0.79375   0.40679   0.00000  Uiso   1.00
C403   C     0.19413   0.87408   0.04697   0.00000  Uiso   1.00
C404   C     0.13921   0.79259   0.45303   0.00000  Uiso   1.00
C405   C     0.16574   0.83278   0.02345   0.00000  Uiso   1.00
C406   C     0.16759   0.83388   0.47655   0.00000  Uiso   1.00
C407   C     0.13576   0.79036   0.04678   0.00000  Uiso   1.00
C408   C     0.15138   0.73508   0.25136   0.00000  Uiso   1.00
C409   C     0.19757   0.87631   0.45322   0.00000  Uiso   1.00
C410   C     0.22351   0.91589   0.02407   0.00000  Uiso   1.00
C411   C     0.10982   0.75078   0.47593   0.00000  Uiso   1.00
C412   C     0.10609   0.74508   0.11946   0.00000  Uiso   1.00
C413   C     0.13658   0.70086   0.12679   0.00000  Uiso   1.00
C414   C     0.10866   0.99080   0.14862   0.00000  Uiso   1.00
C415   C     0.05044   0.99154   0.16361   0.00000  Uiso   1.00
C416   C     0.01992   0.70220   0.15646   0.00000  Uiso   1.00
C417   C     0.04755   0.74549   0.13424   0.00000  Uiso   1.00
C418   C     0.22725   0.92158   0.38054   0.00000  Uiso   1.00
C419   C     0.22529   0.91709   0.47757   0.00000  Uiso   1.00
C420   C     0.28579   0.92118   0.36576   0.00000  Uiso   1.00
C421   C     0.31341   0.96447   0.34354   0.00000  Uiso   1.00
C422   C     0.28289   0.67513   0.33639   0.00000  Uiso   1.00
C423   C     0.22467   0.67587   0.35138   0.00000  Uiso   1.00
C424   C     0.19675   0.96581   0.37321   0.00000  Uiso   1.00
C425   C     0.10804   0.74958   0.02243   0.00000  Uiso   1.00
C426   C     0.18994   0.98609   0.24716   0.00000  Uiso   1.00
C427   C     0.14339   0.68058   0.25284   0.00000  Uiso   1.00
C428   C     0.16773   0.83449   0.33634   0.00000  Uiso   1.00
C429   C     0.16561   0.83218   0.16366   0.00000  Uiso   1.00
C430   C     0.13473   0.78982   0.09384   0.00000  Uiso   1.00
H431   H     0.21503   0.90433   0.11170   0.00000  Uiso   1.00
H432   H     0.32883   0.87310   0.28332   0.00000  Uiso   1.00
H433   H     0.18164   0.69983   0.11515   0.00000  Uiso   1.00
H434   H     0.13219   0.95668   0.15410   0.00000  Uiso   1.00
H435   H     0.02902   0.95803   0.18075   0.00000  Uiso   1.00
H436   H     0.30812   0.70267   0.16794   0.00000  Uiso   1.00
H437   H     0.02338   0.77913   0.12833   0.00000  Uiso   1.00
H438   H     0.30995   0.88753   0.37167   0.00000  Uiso   1.00
H439   H     0.02521   0.96400   0.33206   0.00000  Uiso   1.00
H440   H     0.30432   0.70863   0.31925   0.00000  Uiso   1.00
H441   H     0.20115   0.70999   0.34590   0.00000  Uiso   1.00
H442   H     0.11830   0.76233   0.38830   0.00000  Uiso   1.00
H443   H     0.15170   0.96684   0.38485   0.00000  Uiso   1.00
H444   H     0.24523   0.94769   0.04217   0.00000  Uiso   1.00
H445   H     0.08811   0.71898   0.45783   0.00000  Uiso   1.00
H446   H     0.24856   0.95011   0.46102   0.00000  Uiso   1.00
H447   H     0.08477   0.71656   0.03898   0.00000  Uiso   1.00
H448   H     0.23386   0.66979   0.24145   0.00000  Uiso   1.00
H449   H     0.09948   0.99688   0.25855   0.00000  Uiso   1.00
H450   H     0.00450   0.79356   0.21668   0.00000  Uiso   1.00
N451   N     0.31678   0.81932   0.23783   0.00000  Uiso   1.00
N452   N     0.01656   0.84735   0.26217   0.00000  Uiso   1.00
O453   O     0.12975   0.91286   0.25299   0.00000  Uiso   1.00
O454   O     0.20358   0.75381   0.24701   0.00000  Uiso   1.00
O455   O     0.22613   0.90387   0.24519   0.00000  Uiso   1.00
O456   O     0.10720   0.76279   0.25481   0.00000  Uiso   1.00
O457   O     0.11847   0.83784   0.31997   0.00000  Uiso   1.00
O458   O     0.21486   0.82883   0.18003   0.00000  Uiso   1.00
O459   O     0.21485   0.82885   0.31217   0.00000  Uiso   1.00
O460   O     0.11848   0.83781   0.18783   0.00000  Uiso   1.00
Zn461  Zn    0.10231   0.83933   0.25521   0.00000  Uiso   1.00
Zn462  Zn    0.23102   0.82734   0.24479   0.00000  Uiso   1.00
C463   C     0.51528   0.93159   0.24864   0.00000  Uiso   1.00
C464   C     0.53194   0.87685   0.40616   0.00000  Uiso   1.00
C465   C     0.49701   0.83150   0.11611   0.00000  Uiso   1.00
C466   C     0.50299   0.83516   0.38389   0.00000  Uiso   1.00
C467   C     0.52636   0.87292   0.09321   0.00000  Uiso   1.00
C468   C     0.47364   0.79375   0.40679   0.00000  Uiso   1.00
C469   C     0.52746   0.87408   0.04697   0.00000  Uiso   1.00
C470   C     0.47254   0.79259   0.45303   0.00000  Uiso   1.00
C471   C     0.49907   0.83278   0.02345   0.00000  Uiso   1.00
C472   C     0.50093   0.83388   0.47655   0.00000  Uiso   1.00
C473   C     0.46910   0.79036   0.04678   0.00000  Uiso   1.00
C474   C     0.48472   0.73508   0.25136   0.00000  Uiso   1.00
C475   C     0.53090   0.87631   0.45322   0.00000  Uiso   1.00
C476   C     0.55685   0.91589   0.02407   0.00000  Uiso   1.00
C477   C     0.44315   0.75078   0.47593   0.00000  Uiso   1.00
C478   C     0.43942   0.74508   0.11946   0.00000  Uiso   1.00
C479   C     0.46992   0.70086   0.12679   0.00000  Uiso   1.00
C480   C     0.44199   0.99080   0.14862   0.00000  Uiso   1.00
C481   C     0.38378   0.99154   0.16361   0.00000  Uiso   1.00
C482   C     0.35325   0.70220   0.15646   0.00000  Uiso   1.00
C483   C     0.38088   0.74549   0.13424   0.00000  Uiso   1.00
C484   C     0.56058   0.92158   0.38054   0.00000  Uiso   1.00
C485   C     0.55862   0.91709   0.47757   0.00000  Uiso   1.00
C486   C     0.61912   0.92118   0.36576   0.00000  Uiso   1.00
C487   C     0.64675   0.96447   0.34354   0.00000  Uiso   1.00
C488   C     0.61622   0.67513   0.33639   0.00000  Uiso   1.00
C489   C     0.55801   0.67587   0.35138   0.00000  Uiso   1.00
C490   C     0.53008   0.96581   0.37321   0.00000  Uiso   1.00
C491   C     0.44138   0.74958   0.02243   0.00000  Uiso   1.00
C492   C     0.52328   0.98609   0.24716   0.00000  Uiso   1.00
C493   C     0.47672   0.68058   0.25284   0.00000  Uiso   1.00
C494   C     0.50106   0.83449   0.33634   0.00000  Uiso   1.00
C495   C     0.49894   0.83218   0.16366   0.00000  Uiso   1.00
C496   C     0.46806   0.78982   0.09384   0.00000  Uiso   1.00
H497   H     0.54837   0.90433   0.11170   0.00000  Uiso   1.00
H498   H     0.66217   0.87310   0.28332   0.00000  Uiso   1.00
H499   H     0.51497   0.69983   0.11515   0.00000  Uiso   1.00
H500   H     0.46552   0.95668   0.15410   0.00000  Uiso   1.00
H501   H     0.36235   0.95803   0.18075   0.00000  Uiso   1.00
H502   H     0.64145   0.70267   0.16794   0.00000  Uiso   1.00
H503   H     0.35672   0.77913   0.12833   0.00000  Uiso   1.00
H504   H     0.64329   0.88753   0.37167   0.00000  Uiso   1.00
H505   H     0.35855   0.96400   0.33206   0.00000  Uiso   1.00
H506   H     0.63765   0.70863   0.31925   0.00000  Uiso   1.00
H507   H     0.53448   0.70999   0.34590   0.00000  Uiso   1.00
H508   H     0.45163   0.76233   0.38830   0.00000  Uiso   1.00
H509   H     0.48503   0.96684   0.38485   0.00000  Uiso   1.00
H510   H     0.57856   0.94769   0.04217   0.00000  Uiso   1.00
H511   H     0.42144   0.71898   0.45783   0.00000  Uiso   1.00
H512   H     0.58190   0.95011   0.46102   0.00000  Uiso   1.00
H513   H     0.41810   0.71656   0.03898   0.00000  Uiso   1.00
H514   H     0.56719   0.66979   0.24145   0.00000  Uiso   1.00
H515   H     0.43281   0.99688   0.25855   0.00000  Uiso   1.00
H516   H     0.33783   0.79356   0.21668   0.00000  Uiso   1.00
N517   N     0.65011   0.81932   0.23783   0.00000  Uiso   1.00
N518   N     0.34989   0.84735   0.26217   0.00000  Uiso   1.00
O519   O     0.46308   0.91286   0.25299   0.00000  Uiso   1.00
O520   O     0.53692   0.75381   0.24701   0.00000  Uiso   1.00
O521   O     0.55946   0.90387   0.24519   0.00000  Uiso   1.00
O522   O     0.44054   0.76279   0.25481   0.00000  Uiso   1.00
O523   O     0.45181   0.83784   0.31997   0.00000  Uiso   1.00
O524   O     0.54819   0.82883   0.18003   0.00000  Uiso   1.00
O525   O     0.54819   0.82885   0.31217   0.00000  Uiso   1.00
O526   O     0.45181   0.83781   0.18783   0.00000  Uiso   1.00
Zn527  Zn    0.43565   0.83933   0.25521   0.00000  Uiso   1.00
Zn528  Zn    0.56435   0.82734   0.24479   0.00000  Uiso   1.00
C529   C     0.84862   0.93159   0.24864   0.00000  Uiso   1.00
C530   C     0.86527   0.87685   0.40616   0.00000  Uiso   1.00
C531   C     0.83034   0.83150   0.11611   0.00000  Uiso   1.00
C532   C     0.83633   0.83516   0.38389   0.00000  Uiso   1.00
C533   C     0.85969   0.87292   0.09321   0.00000  Uiso   1.00
C534   C     0.80697   0.79375   0.40679   0.00000  Uiso   1.00
C535   C     0.86079   0.87408   0.04697   0.00000  Uiso   1.00
C536   C     0.80587   0.79259   0.45303   0.00000  Uiso   1.00
C537   C     0.83241   0.83278   0.02345   0.00000  Uiso   1.00
C538   C     0.83426   0.83388   0.47655   0.00000  Uiso   1.00
C539   C     0.80243   0.79036   0.04678   0.00000  Uiso   1.00
C540   C     0.81805   0.73508   0.25136   0.00000  Uiso   1.00
C541   C     0.86424   0.87631   0.45322   0.00000  Uiso   1.00
C542   C     0.89018   0.91589   0.02407   0.00000  Uiso   1.00
C543   C     0.77649   0.75078   0.47593   0.00000  Uiso   1.00
C544   C     0.77275   0.74508   0.11946   0.00000  Uiso   1.00
C545   C     0.80325   0.70086   0.12679   0.00000  Uiso   1.00
C546   C     0.77533   0.99080   0.14862   0.00000  Uiso   1.00
C547   C     0.71711   0.99154   0.16361   0.00000  Uiso   1.00
C548   C     0.68659   0.70220   0.15646   0.00000  Uiso   1.00
C549   C     0.71421   0.74549   0.13424   0.00000  Uiso   1.00
C550   C     0.89391   0.92158   0.38054   0.00000  Uiso   1.00
C551   C     0.89196   0.91709   0.47757   0.00000  Uiso   1.00
C552   C     0.95245   0.92118   0.36576   0.00000  Uiso   1.00
C553   C     0.98008   0.96447   0.34354   0.00000  Uiso   1.00
C554   C     0.94956   0.67513   0.33639   0.00000  Uiso   1.00
C555   C     0.89134   0.67587   0.35138   0.00000  Uiso   1.00
C556   C     0.86342   0.96581   0.37321   0.00000  Uiso   1.00
C557   C     0.77471   0.74958   0.02243   0.00000  Uiso   1.00
C558   C     0.85661   0.98609   0.24716   0.00000  Uiso   1.00
C559   C     0.81006   0.68058   0.25284   0.00000  Uiso   1.00
C560   C     0.83439   0.83449   0.33634   0.00000  Uiso   1.00
C561   C     0.83227   0.83218   0.16366   0.00000  Uiso   1.00
C562   C     0.80139   0.78982   0.09384   0.00000  Uiso   1.00
H563   H     0.88170   0.90433   0.11170   0.00000  Uiso   1.00
H564   H     0.99550   0.87310   0.28332   0.00000  Uiso   1.00
H565   H     0.84830   0.69983   0.11515   0.00000  Uiso   1.00
H566   H     0.79885   0.95668   0.15410   0.00000  Uiso   1.00
H567   H     0.69568   0.95803   0.18075   0.00000  Uiso   1.00
H568   H     0.97479   0.70267   0.16794   0.00000  Uiso   1.00
H569   H     0.69005   0.77913   0.12833   0.00000  Uiso   1.00
H570   H     0.97662   0.88753   0.37167   0.00000  Uiso   1.00
H571   H     0.69188   0.96400   0.33206   0.00000  Uiso   1.00
H572   H     0.97098   0.70863   0.31925   0.00000  Uiso   1.00
H573   H     0.86781   0.70999   0.34590   0.00000  Uiso   1.00
H574   H     0.78497   0.76233   0.38830   0.00000  Uiso   1.00
H575   H     0.81836   0.96684   0.38485   0.00000  Uiso   1.00
H576   H     0.91189   0.94769   0.04217   0.00000  Uiso   1.00
H577   H     0.75477   0.71898   0.45783   0.00000  Uiso   1.00
H578   H     0.91523   0.95011   0.46102   0.00000  Uiso   1.00
H579   H     0.75144   0.71656   0.03898   0.00000  Uiso   1.00
H580   H     0.90053   0.66979   0.24145   0.00000  Uiso   1.00
H581   H     0.76614   0.99688   0.25855   0.00000  Uiso   1.00
H582   H     0.67117   0.79356   0.21668   0.00000  Uiso   1.00
N583   N     0.98344   0.81932   0.23783   0.00000  Uiso   1.00
N584   N     0.68322   0.84735   0.26217   0.00000  Uiso   1.00
O585   O     0.79642   0.91286   0.25299   0.00000  Uiso   1.00
O586   O     0.87025   0.75381   0.24701   0.00000  Uiso   1.00
O587   O     0.89280   0.90387   0.24519   0.00000  Uiso   1.00
O588   O     0.77387   0.76279   0.25481   0.00000  Uiso   1.00
O589   O     0.78514   0.83784   0.31997   0.00000  Uiso   1.00
O590   O     0.88153   0.82883   0.18003   0.00000  Uiso   1.00
O591   O     0.88152   0.82885   0.31217   0.00000  Uiso   1.00
O592   O     0.78515   0.83781   0.18783   0.00000  Uiso   1.00
Zn593  Zn    0.76898   0.83933   0.25521   0.00000  Uiso   1.00
Zn594  Zn    0.89769   0.82734   0.24479   0.00000  Uiso   1.00
C595   C     0.18195   0.26492   0.74864   0.00000  Uiso   1.00
C596   C     0.19861   0.21018   0.90616   0.00000  Uiso   1.00
C597   C     0.16368   0.16484   0.61611   0.00000  Uiso   1.00
C598   C     0.16966   0.16850   0.88389   0.00000  Uiso   1.00
C599   C     0.19303   0.20625   0.59321   0.00000  Uiso   1.00
C600   C     0.14031   0.12708   0.90679   0.00000  Uiso   1.00
C601   C     0.19413   0.20741   0.54697   0.00000  Uiso   1.00
C602   C     0.13921   0.12592   0.95303   0.00000  Uiso   1.00
C603   C     0.16574   0.16612   0.52345   0.00000  Uiso   1.00
C604   C     0.16759   0.16722   0.97655   0.00000  Uiso   1.00
C605   C     0.13576   0.12369   0.54678   0.00000  Uiso   1.00
C606   C     0.15138   0.06841   0.75136   0.00000  Uiso   1.00
C607   C     0.19757   0.20964   0.95322   0.00000  Uiso   1.00
C608   C     0.22351   0.24922   0.52407   0.00000  Uiso   1.00
C609   C     0.10982   0.08411   0.97593   0.00000  Uiso   1.00
C610   C     0.10609   0.07842   0.61946   0.00000  Uiso   1.00
C611   C     0.13658   0.03419   0.62679   0.00000  Uiso   1.00
C612   C     0.10866   0.32413   0.64862   0.00000  Uiso   1.00
C613   C     0.05044   0.32487   0.66361   0.00000  Uiso   1.00
C614   C     0.01992   0.03553   0.65646   0.00000  Uiso   1.00
C615   C     0.04755   0.07882   0.63424   0.00000  Uiso   1.00
C616   C     0.22725   0.25492   0.88054   0.00000  Uiso   1.00
C617   C     0.22529   0.25042   0.97757   0.00000  Uiso   1.00
C618   C     0.28579   0.25451   0.86576   0.00000  Uiso   1.00
C619   C     0.31341   0.29780   0.84354   0.00000  Uiso   1.00
C620   C     0.28289   0.00846   0.83639   0.00000  Uiso   1.00
C621   C     0.22467   0.00920   0.85138   0.00000  Uiso   1.00
C622   C     0.19675   0.29914   0.87321   0.00000  Uiso   1.00
C623   C     0.10804   0.08291   0.52243   0.00000  Uiso   1.00
C624   C     0.18994   0.31942   0.74716   0.00000  Uiso   1.00
C625   C     0.14339   0.01391   0.75284   0.00000  Uiso   1.00
C626   C     0.16773   0.16782   0.83634   0.00000  Uiso   1.00
C627   C     0.16561   0.16551   0.66366   0.00000  Uiso   1.00
C628   C     0.13473   0.12315   0.59384   0.00000  Uiso   1.00
H629   H     0.21503   0.23767   0.61170   0.00000  Uiso   1.00
H630   H     0.32883   0.20644   0.78332   0.00000  Uiso   1.00
H631   H     0.18164   0.03316   0.61515   0.00000  Uiso   1.00
H632   H     0.13219   0.29001   0.65410   0.00000  Uiso   1.00
H633   H     0.02902   0.29137   0.68075   0.00000  Uiso   1.00
H634   H     0.30812   0.03600   0.66794   0.00000  Uiso   1.00
H635   H     0.02338   0.11247   0.62833   0.00000  Uiso   1.00
H636   H     0.30995   0.22087   0.87167   0.00000  Uiso   1.00
H637   H     0.02521   0.29733   0.83206   0.00000  Uiso   1.00
H638   H     0.30432   0.04197   0.81925   0.00000  Uiso   1.00
H639   H     0.20115   0.04332   0.84590   0.00000  Uiso   1.00
H640   H     0.11830   0.09567   0.88830   0.00000  Uiso   1.00
H641   H     0.15170   0.30017   0.88485   0.00000  Uiso   1.00
H642   H     0.24523   0.28102   0.54217   0.00000  Uiso   1.00
H643   H     0.08811   0.05231   0.95783   0.00000  Uiso   1.00
H644   H     0.24856   0.28344   0.96102   0.00000  Uiso   1.00
H645   H     0.08477   0.04989   0.53898   0.00000  Uiso   1.00
H646   H     0.23386   0.00312   0.74145   0.00000  Uiso   1.00
H647   H     0.09948   0.33021   0.75855   0.00000  Uiso   1.00
H648   H     0.00450   0.12690   0.71668   0.00000  Uiso   1.00
N649   N     0.31678   0.15265   0.73783   0.00000  Uiso   1.00
N650   N     0.01656   0.18068   0.76217   0.00000  Uiso   1.00
O651   O     0.12975   0.24619   0.75299   0.00000  Uiso   1.00
O652   O     0.20358   0.08714   0.74701   0.00000  Uiso   1.00
O653   O     0.22613   0.23721   0.74519   0.00000  Uiso   1.00
O654   O     0.10720   0.09613   0.75481   0.00000  Uiso   1.00
O655   O     0.11847   0.17117   0.81997   0.00000  Uiso   1.00
O656   O     0.21486   0.16216   0.68003   0.00000  Uiso   1.00
O657   O     0.21485   0.16219   0.81217   0.00000  Uiso   1.00
O658   O     0.11848   0.17115   0.68783   0.00000  Uiso   1.00
Zn659  Zn    0.10231   0.17266   0.75521   0.00000  Uiso   1.00
Zn660  Zn    0.23102   0.16067   0.74479   0.00000  Uiso   1.00
C661   C     0.51528   0.26492   0.74864   0.00000  Uiso   1.00
C662   C     0.53194   0.21018   0.90616   0.00000  Uiso   1.00
C663   C     0.49701   0.16484   0.61611   0.00000  Uiso   1.00
C664   C     0.50299   0.16850   0.88389   0.00000  Uiso   1.00
C665   C     0.52636   0.20625   0.59321   0.00000  Uiso   1.00
C666   C     0.47364   0.12708   0.90679   0.00000  Uiso   1.00
C667   C     0.52746   0.20741   0.54697   0.00000  Uiso   1.00
C668   C     0.47254   0.12592   0.95303   0.00000  Uiso   1.00
C669   C     0.49907   0.16612   0.52345   0.00000  Uiso   1.00
C670   C     0.50093   0.16722   0.97655   0.00000  Uiso   1.00
C671   C     0.46910   0.12369   0.54678   0.00000  Uiso   1.00
C672   C     0.48472   0.06841   0.75136   0.00000  Uiso   1.00
C673   C     0.53090   0.20964   0.95322   0.00000  Uiso   1.00
C674   C     0.55685   0.24922   0.52407   0.00000  Uiso   1.00
C675   C     0.44315   0.08411   0.97593   0.00000  Uiso   1.00
C676   C     0.43942   0.07842   0.61946   0.00000  Uiso   1.00
C677   C     0.46992   0.03419   0.62679   0.00000  Uiso   1.00
C678   C     0.44199   0.32413   0.64862   0.00000  Uiso   1.00
C679   C     0.38378   0.32487   0.66361   0.00000  Uiso   1.00
C680   C     0.35325   0.03553   0.65646   0.00000  Uiso   1.00
C681   C     0.38088   0.07882   0.63424   0.00000  Uiso   1.00
C682   C     0.56058   0.25492   0.88054   0.00000  Uiso   1.00
C683   C     0.55862   0.25042   0.97757   0.00000  Uiso   1.00
C684   C     0.61912   0.25451   0.86576   0.00000  Uiso   1.00
C685   C     0.64675   0.29780   0.84354   0.00000  Uiso   1.00
C686   C     0.61622   0.00846   0.83639   0.00000  Uiso   1.00
C687   C     0.55801   0.00920   0.85138   0.00000  Uiso   1.00
C688   C     0.53008   0.29914   0.87321   0.00000  Uiso   1.00
C689   C     0.44138   0.08291   0.52243   0.00000  Uiso   1.00
C690   C     0.52328   0.31942   0.74716   0.00000  Uiso   1.00
C691   C     0.47672   0.01391   0.75284   0.00000  Uiso   1.00
C692   C     0.50106   0.16782   0.83634   0.00000  Uiso   1.00
C693   C     0.49894   0.16551   0.66366   0.00000  Uiso   1.00
C694   C     0.46806   0.12315   0.59384   0.00000  Uiso   1.00
H695   H     0.54837   0.23767   0.61170   0.00000  Uiso   1.00
H696   H     0.66217   0.20644   0.78332   0.00000  Uiso   1.00
H697   H     0.51497   0.03316   0.61515   0.00000  Uiso   1.00
H698   H     0.46552   0.29001   0.65410   0.00000  Uiso   1.00
H699   H     0.36235   0.29137   0.68075   0.00000  Uiso   1.00
H700   H     0.64145   0.03600   0.66794   0.00000  Uiso   1.00
H701   H     0.35672   0.11247   0.62833   0.00000  Uiso   1.00
H702   H     0.64329   0.22087   0.87167   0.00000  Uiso   1.00
H703   H     0.35855   0.29733   0.83206   0.00000  Uiso   1.00
H704   H     0.63765   0.04197   0.81925   0.00000  Uiso   1.00
H705   H     0.53448   0.04332   0.84590   0.00000  Uiso   1.00
H706   H     0.45163   0.09567   0.88830   0.00000  Uiso   1.00
H707   H     0.48503   0.30017   0.88485   0.00000  Uiso   1.00
H708   H     0.57856   0.28102   0.54217   0.00000  Uiso   1.00
H709   H     0.42144   0.05231   0.95783   0.00000  Uiso   1.00
H710   H     0.58190   0.28344   0.96102   0.00000  Uiso   1.00
H711   H     0.41810   0.04989   0.53898   0.00000  Uiso   1.00
H712   H     0.56719   0.00312   0.74145   0.00000  Uiso   1.00
H713   H     0.43281   0.33021   0.75855   0.00000  Uiso   1.00
H714   H     0.33783   0.12690   0.71668   0.00000  Uiso   1.00
N715   N     0.65011   0.15265   0.73783   0.00000  Uiso   1.00
N716   N     0.34989   0.18068   0.76217   0.00000  Uiso   1.00
O717   O     0.46308   0.24619   0.75299   0.00000  Uiso   1.00
O718   O     0.53692   0.08714   0.74701   0.00000  Uiso   1.00
O719   O     0.55946   0.23721   0.74519   0.00000  Uiso   1.00
O720   O     0.44054   0.09613   0.75481   0.00000  Uiso   1.00
O721   O     0.45181   0.17117   0.81997   0.00000  Uiso   1.00
O722   O     0.54819   0.16216   0.68003   0.00000  Uiso   1.00
O723   O     0.54819   0.16219   0.81217   0.00000  Uiso   1.00
O724   O     0.45181   0.17115   0.68783   0.00000  Uiso   1.00
Zn725  Zn    0.43565   0.17266   0.75521   0.00000  Uiso   1.00
Zn726  Zn    0.56435   0.16067   0.74479   0.00000  Uiso   1.00
C727   C     0.84862   0.26492   0.74864   0.00000  Uiso   1.00
C728   C     0.86527   0.21018   0.90616   0.00000  Uiso   1.00
C729   C     0.83034   0.16484   0.61611   0.00000  Uiso   1.00
C730   C     0.83633   0.16850   0.88389   0.00000  Uiso   1.00
C731   C     0.85969   0.20625   0.59321   0.00000  Uiso   1.00
C732   C     0.80697   0.12708   0.90679   0.00000  Uiso   1.00
C733   C     0.86079   0.20741   0.54697   0.00000  Uiso   1.00
C734   C     0.80587   0.12592   0.95303   0.00000  Uiso   1.00
C735   C     0.83241   0.16612   0.52345   0.00000  Uiso   1.00
C736   C     0.83426   0.16722   0.97655   0.00000  Uiso   1.00
C737   C     0.80243   0.12369   0.54678   0.00000  Uiso   1.00
C738   C     0.81805   0.06841   0.75136   0.00000  Uiso   1.00
C739   C     0.86424   0.20964   0.95322   0.00000  Uiso   1.00
C740   C     0.89018   0.24922   0.52407   0.00000  Uiso   1.00
C741   C     0.77649   0.08411   0.97593   0.00000  Uiso   1.00
C742   C     0.77275   0.07842   0.61946   0.00000  Uiso   1.00
C743   C     0.80325   0.03419   0.62679   0.00000  Uiso   1.00
C744   C     0.77533   0.32413   0.64862   0.00000  Uiso   1.00
C745   C     0.71711   0.32487   0.66361   0.00000  Uiso   1.00
C746   C     0.68659   0.03553   0.65646   0.00000  Uiso   1.00
C747   C     0.71421   0.07882   0.63424   0.00000  Uiso   1.00
C748   C     0.89391   0.25492   0.88054   0.00000  Uiso   1.00
C749   C     0.89196   0.25042   0.97757   0.00000  Uiso   1.00
C750   C     0.95245   0.25451   0.86576   0.00000  Uiso   1.00
C751   C     0.98008   0.29780   0.84354   0.00000  Uiso   1.00
C752   C     0.94956   0.00846   0.83639   0.00000  Uiso   1.00
C753   C     0.89134   0.00920   0.85138   0.00000  Uiso   1.00
C754   C     0.86342   0.29914   0.87321   0.00000  Uiso   1.00
C755   C     0.77471   0.08291   0.52243   0.00000  Uiso   1.00
C756   C     0.85661   0.31942   0.74716   0.00000  Uiso   1.00
C757   C     0.81006   0.01391   0.75284   0.00000  Uiso   1.00
C758   C     0.83439   0.16782   0.83634   0.00000  Uiso   1.00
C759   C     0.83227   0.16551   0.66366   0.00000  Uiso   1.00
C760   C     0.80139   0.12315   0.59384   0.00000  Uiso   1.00
H761   H     0.88170   0.23767   0.61170   0.00000  Uiso   1.00
H762   H     0.99550   0.20644   0.78332   0.00000  Uiso   1.00
H763   H     0.84830   0.03316   0.61515   0.00000  Uiso   1.00
H764   H     0.79885   0.29001   0.65410   0.00000  Uiso   1.00
H765   H     0.69568   0.29137   0.68075   0.00000  Uiso   1.00
H766   H     0.97479   0.03600   0.66794   0.00000  Uiso   1.00
H767   H     0.69005   0.11247   0.62833   0.00000  Uiso   1.00
H768   H     0.97662   0.22087   0.87167   0.00000  Uiso   1.00
H769   H     0.69188   0.29733   0.83206   0.00000  Uiso   1.00
H770   H     0.97098   0.04197   0.81925   0.00000  Uiso   1.00
H771   H     0.86781   0.04332   0.84590   0.00000  Uiso   1.00
H772   H     0.78497   0.09567   0.88830   0.00000  Uiso   1.00
H773   H     0.81836   0.30017   0.88485   0.00000  Uiso   1.00
H774   H     0.91189   0.28102   0.54217   0.00000  Uiso   1.00
H775   H     0.75477   0.05231   0.95783   0.00000  Uiso   1.00
H776   H     0.91523   0.28344   0.96102   0.00000  Uiso   1.00
H777   H     0.75144   0.04989   0.53898   0.00000  Uiso   1.00
H778   H     0.90053   0.00312   0.74145   0.00000  Uiso   1.00
H779   H     0.76614   0.33021   0.75855   0.00000  Uiso   1.00
H780   H     0.67117   0.12690   0.71668   0.00000  Uiso   1.00
N781   N     0.98344   0.15265   0.73783   0.00000  Uiso   1.00
N782   N     0.68322   0.18068   0.76217   0.00000  Uiso   1.00
O783   O     0.79642   0.24619   0.75299   0.00000  Uiso   1.00
O784   O     0.87025   0.08714   0.74701   0.00000  Uiso   1.00
O785   O     0.89280   0.23721   0.74519   0.00000  Uiso   1.00
O786   O     0.77387   0.09613   0.75481   0.00000  Uiso   1.00
O787   O     0.78514   0.17117   0.81997   0.00000  Uiso   1.00
O788   O     0.88153   0.16216   0.68003   0.00000  Uiso   1.00
O789   O     0.88152   0.16219   0.81217   0.00000  Uiso   1.00
O790   O     0.78515   0.17115   0.68783   0.00000  Uiso   1.00
Zn791  Zn    0.76898   0.17266   0.75521   0.00000  Uiso   1.00
Zn792  Zn    0.89769   0.16067   0.74479   0.00000  Uiso   1.00
C793   C     0.18195   0.59825   0.74864   0.00000  Uiso   1.00
C794   C     0.19861   0.54351   0.90616   0.00000  Uiso   1.00
C795   C     0.16368   0.49817   0.61611   0.00000  Uiso   1.00
C796   C     0.16966   0.50183   0.88389   0.00000  Uiso   1.00
C797   C     0.19303   0.53959   0.59321   0.00000  Uiso   1.00
C798   C     0.14031   0.46041   0.90679   0.00000  Uiso   1.00
C799   C     0.19413   0.54074   0.54697   0.00000  Uiso   1.00
C800   C     0.13921   0.45926   0.95303   0.00000  Uiso   1.00
C801   C     0.16574   0.49945   0.52345   0.00000  Uiso   1.00
C802   C     0.16759   0.50055   0.97655   0.00000  Uiso   1.00
C803   C     0.13576   0.45702   0.54678   0.00000  Uiso   1.00
C804   C     0.15138   0.40175   0.75136   0.00000  Uiso   1.00
C805   C     0.19757   0.54298   0.95322   0.00000  Uiso   1.00
C806   C     0.22351   0.58255   0.52407   0.00000  Uiso   1.00
C807   C     0.10982   0.41745   0.97593   0.00000  Uiso   1.00
C808   C     0.10609   0.41175   0.61946   0.00000  Uiso   1.00
C809   C     0.13658   0.36753   0.62679   0.00000  Uiso   1.00
C810   C     0.10866   0.65747   0.64862   0.00000  Uiso   1.00
C811   C     0.05044   0.65821   0.66361   0.00000  Uiso   1.00
C812   C     0.01992   0.36886   0.65646   0.00000  Uiso   1.00
C813   C     0.04755   0.41215   0.63424   0.00000  Uiso   1.00
C814   C     0.22725   0.58825   0.88054   0.00000  Uiso   1.00
C815   C     0.22529   0.58375   0.97757   0.00000  Uiso   1.00
C816   C     0.28579   0.58785   0.86576   0.00000  Uiso   1.00
C817   C     0.31341   0.63114   0.84354   0.00000  Uiso   1.00
C818   C     0.28289   0.34179   0.83639   0.00000  Uiso   1.00
C819   C     0.22467   0.34253   0.85138   0.00000  Uiso   1.00
C820   C     0.19675   0.63247   0.87321   0.00000  Uiso   1.00
C821   C     0.10804   0.41625   0.52243   0.00000  Uiso   1.00
C822   C     0.18994   0.65275   0.74716   0.00000  Uiso   1.00
C823   C     0.14339   0.34725   0.75284   0.00000  Uiso   1.00
C824   C     0.16773   0.50116   0.83634   0.00000  Uiso   1.00
C825   C     0.16561   0.49884   0.66366   0.00000  Uiso   1.00
C826   C     0.13473   0.45649   0.59384   0.00000  Uiso   1.00
H827   H     0.21503   0.57100   0.61170   0.00000  Uiso   1.00
H828   H     0.32883   0.53977   0.78332   0.00000  Uiso   1.00
H829   H     0.18164   0.36650   0.61515   0.00000  Uiso   1.00
H830   H     0.13219   0.62335   0.65410   0.00000  Uiso   1.00
H831   H     0.02902   0.62470   0.68075   0.00000  Uiso   1.00
H832   H     0.30812   0.36933   0.66794   0.00000  Uiso   1.00
H833   H     0.02338   0.44580   0.62833   0.00000  Uiso   1.00
H834   H     0.30995   0.55420   0.87167   0.00000  Uiso   1.00
H835   H     0.02521   0.63067   0.83206   0.00000  Uiso   1.00
H836   H     0.30432   0.37530   0.81925   0.00000  Uiso   1.00
H837   H     0.20115   0.37665   0.84590   0.00000  Uiso   1.00
H838   H     0.11830   0.42900   0.88830   0.00000  Uiso   1.00
H839   H     0.15170   0.63350   0.88485   0.00000  Uiso   1.00
H840   H     0.24523   0.61435   0.54217   0.00000  Uiso   1.00
H841   H     0.08811   0.38564   0.95783   0.00000  Uiso   1.00
H842   H     0.24856   0.61677   0.96102   0.00000  Uiso   1.00
H843   H     0.08477   0.38323   0.53898   0.00000  Uiso   1.00
H844   H     0.23386   0.33645   0.74145   0.00000  Uiso   1.00
H845   H     0.09948   0.66355   0.75855   0.00000  Uiso   1.00
H846   H     0.00450   0.46023   0.71668   0.00000  Uiso   1.00
N847   N     0.31678   0.48598   0.73783   0.00000  Uiso   1.00
N848   N     0.01656   0.51402   0.76217   0.00000  Uiso   1.00
O849   O     0.12975   0.57952   0.75299   0.00000  Uiso   1.00
O850   O     0.20358   0.42048   0.74701   0.00000  Uiso   1.00
O851   O     0.22613   0.57054   0.74519   0.00000  Uiso   1.00
O852   O     0.10720   0.42946   0.75481   0.00000  Uiso   1.00
O853   O     0.11847   0.50450   0.81997   0.00000  Uiso   1.00
O854   O     0.21486   0.49550   0.68003   0.00000  Uiso   1.00
O855   O     0.21485   0.49552   0.81217   0.00000  Uiso   1.00
O856   O     0.11848   0.50448   0.68783   0.00000  Uiso   1.00
Zn857  Zn    0.10231   0.50600   0.75521   0.00000  Uiso   1.00
Zn858  Zn    0.23102   0.49400   0.74479   0.00000  Uiso   1.00
C859   C     0.51528   0.59825   0.74864   0.00000  Uiso   1.00
C860   C     0.53194   0.54351   0.90616   0.00000  Uiso   1.00
C861   C     0.49701   0.49817   0.61611   0.00000  Uiso   1.00
C862   C     0.50299   0.50183   0.88389   0.00000  Uiso   1.00
C863   C     0.52636   0.53959   0.59321   0.00000  Uiso   1.00
C864   C     0.47364   0.46041   0.90679   0.00000  Uiso   1.00
C865   C     0.52746   0.54074   0.54697   0.00000  Uiso   1.00
C866   C     0.47254   0.45926   0.95303   0.00000  Uiso   1.00
C867   C     0.49907   0.49945   0.52345   0.00000  Uiso   1.00
C868   C     0.50093   0.50055   0.97655   0.00000  Uiso   1.00
C869   C     0.46910   0.45702   0.54678   0.00000  Uiso   1.00
C870   C     0.48472   0.40175   0.75136   0.00000  Uiso   1.00
C871   C     0.53090   0.54298   0.95322   0.00000  Uiso   1.00
C872   C     0.55685   0.58255   0.52407   0.00000  Uiso   1.00
C873   C     0.44315   0.41745   0.97593   0.00000  Uiso   1.00
C874   C     0.43942   0.41175   0.61946   0.00000  Uiso   1.00
C875   C     0.46992   0.36753   0.62679   0.00000  Uiso   1.00
C876   C     0.44199   0.65747   0.64862   0.00000  Uiso   1.00
C877   C     0.38378   0.65821   0.66361   0.00000  Uiso   1.00
C878   C     0.35325   0.36886   0.65646   0.00000  Uiso   1.00
C879   C     0.38088   0.41215   0.63424   0.00000  Uiso   1.00
C880   C     0.56058   0.58825   0.88054   0.00000  Uiso   1.00
C881   C     0.55862   0.58375   0.97757   0.00000  Uiso   1.00
C882   C     0.61912   0.58785   0.86576   0.00000  Uiso   1.00
C883   C     0.64675   0.63114   0.84354   0.00000  Uiso   1.00
C884   C     0.61622   0.34179   0.83639   0.00000  Uiso   1.00
C885   C     0.55801   0.34253   0.85138   0.00000  Uiso   1.00
C886   C     0.53008   0.63247   0.87321   0.00000  Uiso   1.00
C887   C     0.44138   0.41625   0.52243   0.00000  Uiso   1.00
C888   C     0.52328   0.65275   0.74716   0.00000  Uiso   1.00
C889   C     0.47672   0.34725   0.75284   0.00000  Uiso   1.00
C890   C     0.50106   0.50116   0.83634   0.00000  Uiso   1.00
C891   C     0.49894   0.49884   0.66366   0.00000  Uiso   1.00
C892   C     0.46806   0.45649   0.59384   0.00000  Uiso   1.00
H893   H     0.54837   0.57100   0.61170   0.00000  Uiso   1.00
H894   H     0.66217   0.53977   0.78332   0.00000  Uiso   1.00
H895   H     0.51497   0.36650   0.61515   0.00000  Uiso   1.00
H896   H     0.46552   0.62335   0.65410   0.00000  Uiso   1.00
H897   H     0.36235   0.62470   0.68075   0.00000  Uiso   1.00
H898   H     0.64145   0.36933   0.66794   0.00000  Uiso   1.00
H899   H     0.35672   0.44580   0.62833   0.00000  Uiso   1.00
H900   H     0.64329   0.55420   0.87167   0.00000  Uiso   1.00
H901   H     0.35855   0.63067   0.83206   0.00000  Uiso   1.00
H902   H     0.63765   0.37530   0.81925   0.00000  Uiso   1.00
H903   H     0.53448   0.37665   0.84590   0.00000  Uiso   1.00
H904   H     0.45163   0.42900   0.88830   0.00000  Uiso   1.00
H905   H     0.48503   0.63350   0.88485   0.00000  Uiso   1.00
H906   H     0.57856   0.61435   0.54217   0.00000  Uiso   1.00
H907   H     0.42144   0.38564   0.95783   0.00000  Uiso   1.00
H908   H     0.58190   0.61677   0.96102   0.00000  Uiso   1.00
H909   H     0.41810   0.38323   0.53898   0.00000  Uiso   1.00
H910   H     0.56719   0.33645   0.74145   0.00000  Uiso   1.00
H911   H     0.43281   0.66355   0.75855   0.00000  Uiso   1.00
H912   H     0.33783   0.46023   0.71668   0.00000  Uiso   1.00
N913   N     0.65011   0.48598   0.73783   0.00000  Uiso   1.00
N914   N     0.34989   0.51402   0.76217   0.00000  Uiso   1.00
O915   O     0.46308   0.57952   0.75299   0.00000  Uiso   1.00
O916   O     0.53692   0.42048   0.74701   0.00000  Uiso   1.00
O917   O     0.55946   0.57054   0.74519   0.00000  Uiso   1.00
O918   O     0.44054   0.42946   0.75481   0.00000  Uiso   1.00
O919   O     0.45181   0.50450   0.81997   0.00000  Uiso   1.00
O920   O     0.54819   0.49550   0.68003   0.00000  Uiso   1.00
O921   O     0.54819   0.49552   0.81217   0.00000  Uiso   1.00
O922   O     0.45181   0.50448   0.68783   0.00000  Uiso   1.00
Zn923  Zn    0.43565   0.50600   0.75521   0.00000  Uiso   1.00
Zn924  Zn    0.56435   0.49400   0.74479   0.00000  Uiso   1.00
C925   C     0.84862   0.59825   0.74864   0.00000  Uiso   1.00
C926   C     0.86527   0.54351   0.90616   0.00000  Uiso   1.00
C927   C     0.83034   0.49817   0.61611   0.00000  Uiso   1.00
C928   C     0.83633   0.50183   0.88389   0.00000  Uiso   1.00
C929   C     0.85969   0.53959   0.59321   0.00000  Uiso   1.00
C930   C     0.80697   0.46041   0.90679   0.00000  Uiso   1.00
C931   C     0.86079   0.54074   0.54697   0.00000  Uiso   1.00
C932   C     0.80587   0.45926   0.95303   0.00000  Uiso   1.00
C933   C     0.83241   0.49945   0.52345   0.00000  Uiso   1.00
C934   C     0.83426   0.50055   0.97655   0.00000  Uiso   1.00
C935   C     0.80243   0.45702   0.54678   0.00000  Uiso   1.00
C936   C     0.81805   0.40175   0.75136   0.00000  Uiso   1.00
C937   C     0.86424   0.54298   0.95322   0.00000  Uiso   1.00
C938   C     0.89018   0.58255   0.52407   0.00000  Uiso   1.00
C939   C     0.77649   0.41745   0.97593   0.00000  Uiso   1.00
C940   C     0.77275   0.41175   0.61946   0.00000  Uiso   1.00
C941   C     0.80325   0.36753   0.62679   0.00000  Uiso   1.00
C942   C     0.77533   0.65747   0.64862   0.00000  Uiso   1.00
C943   C     0.71711   0.65821   0.66361   0.00000  Uiso   1.00
C944   C     0.68659   0.36886   0.65646   0.00000  Uiso   1.00
C945   C     0.71421   0.41215   0.63424   0.00000  Uiso   1.00
C946   C     0.89391   0.58825   0.88054   0.00000  Uiso   1.00
C947   C     0.89196   0.58375   0.97757   0.00000  Uiso   1.00
C948   C     0.95245   0.58785   0.86576   0.00000  Uiso   1.00
C949   C     0.98008   0.63114   0.84354   0.00000  Uiso   1.00
C950   C     0.94956   0.34179   0.83639   0.00000  Uiso   1.00
C951   C     0.89134   0.34253   0.85138   0.00000  Uiso   1.00
C952   C     0.86342   0.63247   0.87321   0.00000  Uiso   1.00
C953   C     0.77471   0.41625   0.52243   0.00000  Uiso   1.00
C954   C     0.85661   0.65275   0.74716   0.00000  Uiso   1.00
C955   C     0.81006   0.34725   0.75284   0.00000  Uiso   1.00
C956   C     0.83439   0.50116   0.83634   0.00000  Uiso   1.00
C957   C     0.83227   0.49884   0.66366   0.00000  Uiso   1.00
C958   C     0.80139   0.45649   0.59384   0.00000  Uiso   1.00
H959   H     0.88170   0.57100   0.61170   0.00000  Uiso   1.00
H960   H     0.99550   0.53977   0.78332   0.00000  Uiso   1.00
H961   H     0.84830   0.36650   0.61515   0.00000  Uiso   1.00
H962   H     0.79885   0.62335   0.65410   0.00000  Uiso   1.00
H963   H     0.69568   0.62470   0.68075   0.00000  Uiso   1.00
H964   H     0.97479   0.36933   0.66794   0.00000  Uiso   1.00
H965   H     0.69005   0.44580   0.62833   0.00000  Uiso   1.00
H966   H     0.97662   0.55420   0.87167   0.00000  Uiso   1.00
H967   H     0.69188   0.63067   0.83206   0.00000  Uiso   1.00
H968   H     0.97098   0.37530   0.81925   0.00000  Uiso   1.00
H969   H     0.86781   0.37665   0.84590   0.00000  Uiso   1.00
H970   H     0.78497   0.42900   0.88830   0.00000  Uiso   1.00
H971   H     0.81836   0.63350   0.88485   0.00000  Uiso   1.00
H972   H     0.91189   0.61435   0.54217   0.00000  Uiso   1.00
H973   H     0.75477   0.38564   0.95783   0.00000  Uiso   1.00
H974   H     0.91523   0.61677   0.96102   0.00000  Uiso   1.00
H975   H     0.75144   0.38323   0.53898   0.00000  Uiso   1.00
H976   H     0.90053   0.33645   0.74145   0.00000  Uiso   1.00
H977   H     0.76614   0.66355   0.75855   0.00000  Uiso   1.00
H978   H     0.67117   0.46023   0.71668   0.00000  Uiso   1.00
N979   N     0.98344   0.48598   0.73783   0.00000  Uiso   1.00
N980   N     0.68322   0.51402   0.76217   0.00000  Uiso   1.00
O981   O     0.79642   0.57952   0.75299   0.00000  Uiso   1.00
O982   O     0.87025   0.42048   0.74701   0.00000  Uiso   1.00
O983   O     0.89280   0.57054   0.74519   0.00000  Uiso   1.00
O984   O     0.77387   0.42946   0.75481   0.00000  Uiso   1.00
O985   O     0.78514   0.50450   0.81997   0.00000  Uiso   1.00
O986   O     0.88153   0.49550   0.68003   0.00000  Uiso   1.00
O987   O     0.88152   0.49552   0.81217   0.00000  Uiso   1.00
O988   O     0.78515   0.50448   0.68783   0.00000  Uiso   1.00
Zn989  Zn    0.76898   0.50600   0.75521   0.00000  Uiso   1.00
Zn990  Zn    0.89769   0.49400   0.74479   0.00000  Uiso   1.00
C991   C     0.18195   0.93159   0.74864   0.00000  Uiso   1.00
C992   C     0.19861   0.87685   0.90616   0.00000  Uiso   1.00
C993   C     0.16368   0.83150   0.61611   0.00000  Uiso   1.00
C994   C     0.16966   0.83516   0.88389   0.00000  Uiso   1.00
C995   C     0.19303   0.87292   0.59321   0.00000  Uiso   1.00
C996   C     0.14031   0.79375   0.90679   0.00000  Uiso   1.00
C997   C     0.19413   0.87408   0.54697   0.00000  Uiso   1.00
C998   C     0.13921   0.79259   0.95303   0.00000  Uiso   1.00
C999   C     0.16574   0.83278   0.52345   0.00000  Uiso   1.00
C1000  C     0.16759   0.83388   0.97655   0.00000  Uiso   1.00
C1001  C     0.13576   0.79036   0.54678   0.00000  Uiso   1.00
C1002  C     0.15138   0.73508   0.75136   0.00000  Uiso   1.00
C1003  C     0.19757   0.87631   0.95322   0.00000  Uiso   1.00
C1004  C     0.22351   0.91589   0.52407   0.00000  Uiso   1.00
C1005  C     0.10982   0.75078   0.97593   0.00000  Uiso   1.00
C1006  C     0.10609   0.74508   0.61946   0.00000  Uiso   1.00
C1007  C     0.13658   0.70086   0.62679   0.00000  Uiso   1.00
C1008  C     0.10866   0.99080   0.64862   0.00000  Uiso   1.00
C1009  C     0.05044   0.99154   0.66361   0.00000  Uiso   1.00
C1010  C     0.01992   0.70220   0.65646   0.00000  Uiso   1.00
C1011  C     0.04755   0.74549   0.63424   0.00000  Uiso   1.00
C1012  C     0.22725   0.92158   0.88054   0.00000  Uiso   1.00
C1013  C     0.22529   0.91709   0.97757   0.00000  Uiso   1.00
C1014  C     0.28579   0.92118   0.86576   0.00000  Uiso   1.00
C1015  C     0.31341   0.96447   0.84354   0.00000  Uiso   1.00
C1016  C     0.28289   0.67513   0.83639   0.00000  Uiso   1.00
C1017  C     0.22467   0.67587   0.85138   0.00000  Uiso   1.00
C1018  C     0.19675   0.96581   0.87321   0.00000  Uiso   1.00
C1019  C     0.10804   0.74958   0.52243   0.00000  Uiso   1.00
C1020  C     0.18994   0.98609   0.74716   0.00000  Uiso   1.00
C1021  C     0.14339   0.68058   0.75284   0.00000  Uiso   1.00
C1022  C     0.16773   0.83449   0.83634   0.00000  Uiso   1.00
C1023  C     0.16561   0.83218   0.66366   0.00000  Uiso   1.00
C1024  C     0.13473   0.78982   0.59384   0.00000  Uiso   1.00
H1025  H     0.21503   0.90433   0.61170   0.00000  Uiso   1.00
H1026  H     0.32883   0.87310   0.78332   0.00000  Uiso   1.00
H1027  H     0.18164   0.69983   0.61515   0.00000  Uiso   1.00
H1028  H     0.13219   0.95668   0.65410   0.00000  Uiso   1.00
H1029  H     0.02902   0.95803   0.68075   0.00000  Uiso   1.00
H1030  H     0.30812   0.70267   0.66794   0.00000  Uiso   1.00
H1031  H     0.02338   0.77913   0.62833   0.00000  Uiso   1.00
H1032  H     0.30995   0.88753   0.87167   0.00000  Uiso   1.00
H1033  H     0.02521   0.96400   0.83206   0.00000  Uiso   1.00
H1034  H     0.30432   0.70863   0.81925   0.00000  Uiso   1.00
H1035  H     0.20115   0.70999   0.84590   0.00000  Uiso   1.00
H1036  H     0.11830   0.76233   0.88830   0.00000  Uiso   1.00
H1037  H     0.15170   0.96684   0.88485   0.00000  Uiso   1.00
H1038  H     0.24523   0.94769   0.54217   0.00000  Uiso   1.00
H1039  H     0.08811   0.71898   0.95783   0.00000  Uiso   1.00
H1040  H     0.24856   0.95011   0.96102   0.00000  Uiso   1.00
H1041  H     0.08477   0.71656   0.53898   0.00000  Uiso   1.00
H1042  H     0.23386   0.66979   0.74145   0.00000  Uiso   1.00
H1043  H     0.09948   0.99688   0.75855   0.00000  Uiso   1.00
H1044  H     0.00450   0.79356   0.71668   0.00000  Uiso   1.00
N1045  N     0.31678   0.81932   0.73783   0.00000  Uiso   1.00
N1046  N     0.01656   0.84735   0.76217   0.00000  Uiso   1.00
O1047  O     0.12975   0.91286   0.75299   0.00000  Uiso   1.00
O1048  O     0.20358   0.75381   0.74701   0.00000  Uiso   1.00
O1049  O     0.22613   0.90387   0.74519   0.00000  Uiso   1.00
O1050  O     0.10720   0.76279   0.75481   0.00000  Uiso   1.00
O1051  O     0.11847   0.83784   0.81997   0.00000  Uiso   1.00
O1052  O     0.21486   0.82883   0.68003   0.00000  Uiso   1.00
O1053  O     0.21485   0.82885   0.81217   0.00000  Uiso   1.00
O1054  O     0.11848   0.83781   0.68783   0.00000  Uiso   1.00
Zn1055 Zn    0.10231   0.83933   0.75521   0.00000  Uiso   1.00
Zn1056 Zn    0.23102   0.82734   0.74479   0.00000  Uiso   1.00
C1057  C     0.51528   0.93159   0.74864   0.00000  Uiso   1.00
C1058  C     0.53194   0.87685   0.90616   0.00000  Uiso   1.00
C1059  C     0.49701   0.83150   0.61611   0.00000  Uiso   1.00
C1060  C     0.50299   0.83516   0.88389   0.00000  Uiso   1.00
C1061  C     0.52636   0.87292   0.59321   0.00000  Uiso   1.00
C1062  C     0.47364   0.79375   0.90679   0.00000  Uiso   1.00
C1063  C     0.52746   0.87408   0.54697   0.00000  Uiso   1.00
C1064  C     0.47254   0.79259   0.95303   0.00000  Uiso   1.00
C1065  C     0.49907   0.83278   0.52345   0.00000  Uiso   1.00
C1066  C     0.50093   0.83388   0.97655   0.00000  Uiso   1.00
C1067  C     0.46910   0.79036   0.54678   0.00000  Uiso   1.00
C1068  C     0.48472   0.73508   0.75136   0.00000  Uiso   1.00
C1069  C     0.53090   0.87631   0.95322   0.00000  Uiso   1.00
C1070  C     0.55685   0.91589   0.52407   0.00000  Uiso   1.00
C1071  C     0.44315   0.75078   0.97593   0.00000  Uiso   1.00
C1072  C     0.43942   0.74508   0.61946   0.00000  Uiso   1.00
C1073  C     0.46992   0.70086   0.62679   0.00000  Uiso   1.00
C1074  C     0.44199   0.99080   0.64862   0.00000  Uiso   1.00
C1075  C     0.38378   0.99154   0.66361   0.00000  Uiso   1.00
C1076  C     0.35325   0.70220   0.65646   0.00000  Uiso   1.00
C1077  C     0.38088   0.74549   0.63424   0.00000  Uiso   1.00
C1078  C     0.56058   0.92158   0.88054   0.00000  Uiso   1.00
C1079  C     0.55862   0.91709   0.97757   0.00000  Uiso   1.00
C1080  C     0.61912   0.92118   0.86576   0.00000  Uiso   1.00
C1081  C     0.64675   0.96447   0.84354   0.00000  Uiso   1.00
C1082  C     0.61622   0.67513   0.83639   0.00000  Uiso   1.00
C1083  C     0.55801   0.67587   0.85138   0.00000  Uiso   1.00
C1084  C     0.53008   0.96581   0.87321   0.00000  Uiso   1.00
C1085  C     0.44138   0.74958   0.52243   0.00000  Uiso   1.00
C1086  C     0.52328   0.98609   0.74716   0.00000  Uiso   1.00
C1087  C     0.47672   0.68058   0.75284   0.00000  Uiso   1.00
C1088  C     0.50106   0.83449   0.83634   0.00000  Uiso   1.00
C1089  C     0.49894   0.83218   0.66366   0.00000  Uiso   1.00
C1090  C     0.46806   0.78982   0.59384   0.00000  Uiso   1.00
H1091  H     0.54837   0.90433   0.61170   0.00000  Uiso   1.00
H1092  H     0.66217   0.87310   0.78332   0.00000  Uiso   1.00
H1093  H     0.51497   0.69983   0.61515   0.00000  Uiso   1.00
H1094  H     0.46552   0.95668   0.65410   0.00000  Uiso   1.00
H1095  H     0.36235   0.95803   0.68075   0.00000  Uiso   1.00
H1096  H     0.64145   0.70267   0.66794   0.00000  Uiso   1.00
H1097  H     0.35672   0.77913   0.62833   0.00000  Uiso   1.00
H1098  H     0.64329   0.88753   0.87167   0.00000  Uiso   1.00
H1099  H     0.35855   0.96400   0.83206   0.00000  Uiso   1.00
H1100  H     0.63765   0.70863   0.81925   0.00000  Uiso   1.00
H1101  H     0.53448   0.70999   0.84590   0.00000  Uiso   1.00
H1102  H     0.45163   0.76233   0.88830   0.00000  Uiso   1.00
H1103  H     0.48503   0.96684   0.88485   0.00000  Uiso   1.00
H1104  H     0.57856   0.94769   0.54217   0.00000  Uiso   1.00
H1105  H     0.42144   0.71898   0.95783   0.00000  Uiso   1.00
H1106  H     0.58190   0.95011   0.96102   0.00000  Uiso   1.00
H1107  H     0.41810   0.71656   0.53898   0.00000  Uiso   1.00
H1108  H     0.56719   0.66979   0.74145   0.00000  Uiso   1.00
H1109  H     0.43281   0.99688   0.75855   0.00000  Uiso   1.00
H1110  H     0.33783   0.79356   0.71668   0.00000  Uiso   1.00
N1111  N     0.65011   0.81932   0.73783   0.00000  Uiso   1.00
N1112  N     0.34989   0.84735   0.76217   0.00000  Uiso   1.00
O1113  O     0.46308   0.91286   0.75299   0.00000  Uiso   1.00
O1114  O     0.53692   0.75381   0.74701   0.00000  Uiso   1.00
O1115  O     0.55946   0.90387   0.74519   0.00000  Uiso   1.00
O1116  O     0.44054   0.76279   0.75481   0.00000  Uiso   1.00
O1117  O     0.45181   0.83784   0.81997   0.00000  Uiso   1.00
O1118  O     0.54819   0.82883   0.68003   0.00000  Uiso   1.00
O1119  O     0.54819   0.82885   0.81217   0.00000  Uiso   1.00
O1120  O     0.45181   0.83781   0.68783   0.00000  Uiso   1.00
Zn1121 Zn    0.43565   0.83933   0.75521   0.00000  Uiso   1.00
Zn1122 Zn    0.56435   0.82734   0.74479   0.00000  Uiso   1.00
C1123  C     0.84862   0.93159   0.74864   0.00000  Uiso   1.00
C1124  C     0.86527   0.87685   0.90616   0.00000  Uiso   1.00
C1125  C     0.83034   0.83150   0.61611   0.00000  Uiso   1.00
C1126  C     0.83633   0.83516   0.88389   0.00000  Uiso   1.00
C1127  C     0.85969   0.87292   0.59321   0.00000  Uiso   1.00
C1128  C     0.80697   0.79375   0.90679   0.00000  Uiso   1.00
C1129  C     0.86079   0.87408   0.54697   0.00000  Uiso   1.00
C1130  C     0.80587   0.79259   0.95303   0.00000  Uiso   1.00
C1131  C     0.83241   0.83278   0.52345   0.00000  Uiso   1.00
C1132  C     0.83426   0.83388   0.97655   0.00000  Uiso   1.00
C1133  C     0.80243   0.79036   0.54678   0.00000  Uiso   1.00
C1134  C     0.81805   0.73508   0.75136   0.00000  Uiso   1.00
C1135  C     0.86424   0.87631   0.95322   0.00000  Uiso   1.00
C1136  C     0.89018   0.91589   0.52407   0.00000  Uiso   1.00
C1137  C     0.77649   0.75078   0.97593   0.00000  Uiso   1.00
C1138  C     0.77275   0.74508   0.61946   0.00000  Uiso   1.00
C1139  C     0.80325   0.70086   0.62679   0.00000  Uiso   1.00
C1140  C     0.77533   0.99080   0.64862   0.00000  Uiso   1.00
C1141  C     0.71711   0.99154   0.66361   0.00000  Uiso   1.00
C1142  C     0.68659   0.70220   0.65646   0.00000  Uiso   1.00
C1143  C     0.71421   0.74549   0.63424   0.00000  Uiso   1.00
C1144  C     0.89391   0.92158   0.88054   0.00000  Uiso   1.00
C1145  C     0.89196   0.91709   0.97757   0.00000  Uiso   1.00
C1146  C     0.95245   0.92118   0.86576   0.00000  Uiso   1.00
C1147  C     0.98008   0.96447   0.84354   0.00000  Uiso   1.00
C1148  C     0.94956   0.67513   0.83639   0.00000  Uiso   1.00
C1149  C     0.89134   0.67587   0.85138   0.00000  Uiso   1.00
C1150  C     0.86342   0.96581   0.87321   0.00000  Uiso   1.00
C1151  C     0.77471   0.74958   0.52243   0.00000  Uiso   1.00
C1152  C     0.85661   0.98609   0.74716   0.00000  Uiso   1.00
C1153  C     0.81006   0.68058   0.75284   0.00000  Uiso   1.00
C1154  C     0.83439   0.83449   0.83634   0.00000  Uiso   1.00
C1155  C     0.83227   0.83218   0.66366   0.00000  Uiso   1.00
C1156  C     0.80139   0.78982   0.59384   0.00000  Uiso   1.00
H1157  H     0.88170   0.90433   0.61170   0.00000  Uiso   1.00
H1158  H     0.99550   0.87310   0.78332   0.00000  Uiso   1.00
H1159  H     0.84830   0.69983   0.61515   0.00000  Uiso   1.00
H1160  H     0.79885   0.95668   0.65410   0.00000  Uiso   1.00
H1161  H     0.69568   0.95803   0.68075   0.00000  Uiso   1.00
H1162  H     0.97479   0.70267   0.66794   0.00000  Uiso   1.00
H1163  H     0.69005   0.77913   0.62833   0.00000  Uiso   1.00
H1164  H     0.97662   0.88753   0.87167   0.00000  Uiso   1.00
H1165  H     0.69188   0.96400   0.83206   0.00000  Uiso   1.00
H1166  H     0.97098   0.70863   0.81925   0.00000  Uiso   1.00
H1167  H     0.86781   0.70999   0.84590   0.00000  Uiso   1.00
H1168  H     0.78497   0.76233   0.88830   0.00000  Uiso   1.00
H1169  H     0.81836   0.96684   0.88485   0.00000  Uiso   1.00
H1170  H     0.91189   0.94769   0.54217   0.00000  Uiso   1.00
H1171  H     0.75477   0.71898   0.95783   0.00000  Uiso   1.00
H1172  H     0.91523   0.95011   0.96102   0.00000  Uiso   1.00
H1173  H     0.75144   0.71656   0.53898   0.00000  Uiso   1.00
H1174  H     0.90053   0.66979   0.74145   0.00000  Uiso   1.00
H1175  H     0.76614   0.99688   0.75855   0.00000  Uiso   1.00
H1176  H     0.67117   0.79356   0.71668   0.00000  Uiso   1.00
N1177  N     0.98344   0.81932   0.73783   0.00000  Uiso   1.00
N1178  N     0.68322   0.84735   0.76217   0.00000  Uiso   1.00
O1179  O     0.79642   0.91286   0.75299   0.00000  Uiso   1.00
O1180  O     0.87025   0.75381   0.74701   0.00000  Uiso   1.00
O1181  O     0.89280   0.90387   0.74519   0.00000  Uiso   1.00
O1182  O     0.77387   0.76279   0.75481   0.00000  Uiso   1.00
O1183  O     0.78514   0.83784   0.81997   0.00000  Uiso   1.00
O1184  O     0.88153   0.82883   0.68003   0.00000  Uiso   1.00
O1185  O     0.88152   0.82885   0.81217   0.00000  Uiso   1.00
O1186  O     0.78515   0.83781   0.68783   0.00000  Uiso   1.00
Zn1187 Zn    0.76898   0.83933   0.75521   0.00000  Uiso   1.00
Zn1188 Zn    0.89769   0.82734   0.74479   0.00000  Uiso   1.00
loop_
_geom_bond_atom_site_label_1
_geom_bond_atom_site_label_2
_geom_bond_distance
_geom_bond_site_symmetry_2
_ccdc_geom_bond_type
C1     O57     1.275   .     A
C1     O59     1.284   .     A
C1     C30     1.397   .     S
C2     C22     1.485   .     S
C2     C4      1.405   .     A
C2     C13     1.402   .     A
C3     C5      1.388   .     A
C3     C33     1.421   .     S
C3     C34     1.405   .     A
C4     C32     1.421   .     S
C4     C6      1.388   .     A
C5     H35     1.086   .     S
C5     C7      1.378   .     A
C6     C8      1.378   .     A
C6     H46     1.086   .     S
C7     C14     1.396   .     A
C7     C9      1.410   .     A
C8     C10     1.410   .     A
C8     C15     1.396   .     A
C9     C11     1.419   .     A
C9     C604    1.397   1_554 S
C10    C13     1.419   .     A
C10    C603    1.397   .     S
C11    C29     1.407   .     A
C11    C34     1.402   .     A
C12    O58     1.275   .     A
C12    C31     1.397   .     S
C12    O60     1.284   .     A
C13    C23     1.407   .     A
C14    H48     1.084   .     S
C14    C617    1.385   1_554 S
C15    H49     1.084   .     S
C15    C623    1.385   .     S
C16    C21     1.403   .     A
C16    C17     1.404   .     A
C16    C34     1.485   .     S
C17    H37     1.083   .     S
C17    C414    1.399   1_545 S
C18    H38     1.082   .     S
C18    C19     1.398   .     A
C18    C215    1.399   .     S
C19    H39     1.083   .     S
C19    C218    1.398   .     S
C20    C21     1.399   .     A
C20    C415    1.398   1_545 S
C20    H172    1.083   1_455 S
C21    H41     1.083   .     S
C22    C28     1.404   .     A
C22    C24     1.403   .     A
C23    H50     1.082   .     S
C23    C608    1.385   .     S
C24    H42     1.083   .     S
C24    C25     1.399   .     A
C25    C224    1.398   .     S
C25    H109    1.083   .     S
C26    H44     1.083   .     S
C26    C27     1.398   .     A
C26    C421    1.398   1_545 S
C27    H45     1.082   .     S
C27    C424    1.399   1_545 S
C28    H47     1.083   .     S
C28    C225    1.399   .     S
C29    H51     1.082   .     S
C29    C609    1.385   1_554 S
C30    C229    1.335   .     S
C30    H250    1.088   .     S
C31    C426    1.335   1_545 S
C31    H449    1.088   1_545 S
C32    O61     1.285   .     A
C32    O63     1.285   .     A
C33    O64     1.285   .     A
C33    O62     1.285   .     A
H36    N122    1.028   .     S
H40    C86     1.083   .     S
H43    C157    1.083   1_455 S
H52    C426    1.088   1_545 S
H53    C229    1.088   .     S
H54    N187    1.028   1_455 S
N55    Zn66    2.016   .     S
N55    H120    1.028   .     S
N55    N122    1.273   .     S
N56    Zn65    2.016   .     S
N56    H168    1.028   1_455 S
N56    N187    1.273   1_455 S
O57    Zn65    1.949   .     S
O58    Zn66    1.949   .     S
O59    Zn66    1.971   .     S
O60    Zn65    1.971   .     S
O61    Zn65    1.994   .     S
O62    Zn66    1.994   .     S
O63    Zn66    2.019   .     S
O64    Zn65    2.019   .     S
C67    O123    1.275   .     A
C67    O125    1.284   .     A
C67    C96     1.397   .     S
C68    C88     1.485   .     S
C68    C70     1.405   .     A
C68    C79     1.402   .     A
C69    C71     1.388   .     A
C69    C99     1.421   .     S
C69    C100    1.405   .     A
C70    C98     1.421   .     S
C70    C72     1.388   .     A
C71    H101    1.086   .     S
C71    C73     1.378   .     A
C72    C74     1.378   .     A
C72    H112    1.086   .     S
C73    C80     1.396   .     A
C73    C75     1.410   .     A
C74    C76     1.410   .     A
C74    C81     1.396   .     A
C75    C77     1.419   .     A
C75    C670    1.397   1_554 S
C76    C79     1.419   .     A
C76    C669    1.397   .     S
C77    C95     1.407   .     A
C77    C100    1.402   .     A
C78    O124    1.275   .     A
C78    C97     1.397   .     S
C78    O126    1.284   .     A
C79    C89     1.407   .     A
C80    H114    1.084   .     S
C80    C683    1.385   1_554 S
C81    H115    1.084   .     S
C81    C689    1.385   .     S
C82    C87     1.403   .     A
C82    C83     1.404   .     A
C82    C100    1.485   .     S
C83    H103    1.083   .     S
C83    C480    1.399   1_545 S
C84    H104    1.082   .     S
C84    C85     1.398   .     A
C84    C281    1.399   .     S
C85    H105    1.083   .     S
C85    C284    1.398   .     S
C86    C87     1.399   .     A
C86    C481    1.398   1_545 S
C87    H107    1.083   .     S
C88    C94     1.404   .     A
C88    C90     1.403   .     A
C89    H116    1.082   .     S
C89    C674    1.385   .     S
C90    H108    1.083   .     S
C90    C91     1.399   .     A
C91    C290    1.398   .     S
C91    H175    1.083   .     S
C92    H110    1.083   .     S
C92    C93     1.398   .     A
C92    C487    1.398   1_545 S
C93    H111    1.082   .     S
C93    C490    1.399   1_545 S
C94    H113    1.083   .     S
C94    C291    1.399   .     S
C95    H117    1.082   .     S
C95    C675    1.385   1_554 S
C96    C295    1.335   .     S
C96    H316    1.088   .     S
C97    C492    1.335   1_545 S
C97    H515    1.088   1_545 S
C98    O127    1.285   .     A
C98    O129    1.285   .     A
C99    O130    1.285   .     A
C99    O128    1.285   .     A
H102   N188    1.028   .     S
H106   C152    1.083   .     S
H118   C492    1.088   1_545 S
H119   C295    1.088   .     S
N121   Zn132   2.016   .     S
N121   H186    1.028   .     S
N121   N188    1.273   .     S
N122   Zn131   2.016   .     S
O123   Zn131   1.949   .     S
O124   Zn132   1.949   .     S
O125   Zn132   1.971   .     S
O126   Zn131   1.971   .     S
O127   Zn131   1.994   .     S
O128   Zn132   1.994   .     S
O129   Zn132   2.019   .     S
O130   Zn131   2.019   .     S
C133   O189    1.275   .     A
C133   O191    1.284   .     A
C133   C162    1.397   .     S
C134   C154    1.485   .     S
C134   C136    1.405   .     A
C134   C145    1.402   .     A
C135   C137    1.388   .     A
C135   C165    1.421   .     S
C135   C166    1.405   .     A
C136   C164    1.421   .     S
C136   C138    1.388   .     A
C137   H167    1.086   .     S
C137   C139    1.378   .     A
C138   C140    1.378   .     A
C138   H178    1.086   .     S
C139   C146    1.396   .     A
C139   C141    1.410   .     A
C140   C142    1.410   .     A
C140   C147    1.396   .     A
C141   C143    1.419   .     A
C141   C736    1.397   1_554 S
C142   C145    1.419   .     A
C142   C735    1.397   .     S
C143   C161    1.407   .     A
C143   C166    1.402   .     A
C144   O190    1.275   .     A
C144   C163    1.397   .     S
C144   O192    1.284   .     A
C145   C155    1.407   .     A
C146   H180    1.084   .     S
C146   C749    1.385   1_554 S
C147   H181    1.084   .     S
C147   C755    1.385   .     S
C148   C153    1.403   .     A
C148   C149    1.404   .     A
C148   C166    1.485   .     S
C149   H169    1.083   .     S
C149   C546    1.399   1_545 S
C150   H170    1.082   .     S
C150   C151    1.398   .     A
C150   C347    1.399   .     S
C151   H171    1.083   .     S
C151   C350    1.398   .     S
C152   C153    1.399   .     A
C152   C547    1.398   1_545 S
C153   H173    1.083   .     S
C154   C160    1.404   .     A
C154   C156    1.403   .     A
C155   H182    1.082   .     S
C155   C740    1.385   .     S
C156   H174    1.083   .     S
C156   C157    1.399   .     A
C157   C356    1.398   .     S
C157   H43     1.083   1_655 S
C158   H176    1.083   .     S
C158   C159    1.398   .     A
C158   C553    1.398   1_545 S
C159   H177    1.082   .     S
C159   C556    1.399   1_545 S
C160   H179    1.083   .     S
C160   C357    1.399   .     S
C161   H183    1.082   .     S
C161   C741    1.385   1_554 S
C162   C361    1.335   .     S
C162   H382    1.088   .     S
C163   C558    1.335   1_545 S
C163   H581    1.088   1_545 S
C164   O193    1.285   .     A
C164   O195    1.285   .     A
C165   O196    1.285   .     A
C165   O194    1.285   .     A
H168   N56     1.028   1_655 S
H172   C20     1.083   1_655 S
H184   C558    1.088   1_545 S
H185   C361    1.088   .     S
N187   Zn198   2.016   .     S
N187   H54     1.028   1_655 S
N187   N56     1.273   1_655 S
N188   Zn197   2.016   .     S
O189   Zn197   1.949   .     S
O190   Zn198   1.949   .     S
O191   Zn198   1.971   .     S
O192   Zn197   1.971   .     S
O193   Zn197   1.994   .     S
O194   Zn198   1.994   .     S
O195   Zn198   2.019   .     S
O196   Zn197   2.019   .     S
C199   O255    1.275   .     A
C199   O257    1.284   .     A
C199   C228    1.397   .     S
C200   C220    1.485   .     S
C200   C202    1.405   .     A
C200   C211    1.402   .     A
C201   C203    1.388   .     A
C201   C231    1.421   .     S
C201   C232    1.405   .     A
C202   C230    1.421   .     S
C202   C204    1.388   .     A
C203   H233    1.086   .     S
C203   C205    1.378   .     A
C204   C206    1.378   .     A
C204   H244    1.086   .     S
C205   C212    1.396   .     A
C205   C207    1.410   .     A
C206   C208    1.410   .     A
C206   C213    1.396   .     A
C207   C209    1.419   .     A
C207   C802    1.397   1_554 S
C208   C211    1.419   .     A
C208   C801    1.397   .     S
C209   C227    1.407   .     A
C209   C232    1.402   .     A
C210   O256    1.275   .     A
C210   C229    1.397   .     S
C210   O258    1.284   .     A
C211   C221    1.407   .     A
C212   H246    1.084   .     S
C212   C815    1.385   1_554 S
C213   H247    1.084   .     S
C213   C821    1.385   .     S
C214   C219    1.403   .     A
C214   C215    1.404   .     A
C214   C232    1.485   .     S
C215   H235    1.083   .     S
C216   H236    1.082   .     S
C216   C217    1.398   .     A
C216   C413    1.399   .     S
C217   H237    1.083   .     S
C217   C416    1.398   .     S
C218   C219    1.399   .     A
C218   H370    1.083   1_455 S
C219   H239    1.083   .     S
C220   C226    1.404   .     A
C220   C222    1.403   .     A
C221   H248    1.082   .     S
C221   C806    1.385   .     S
C222   H240    1.083   .     S
C222   C223    1.399   .     A
C223   C422    1.398   .     S
C223   H307    1.083   .     S
C224   H242    1.083   .     S
C224   C225    1.398   .     A
C225   H243    1.082   .     S
C226   H245    1.083   .     S
C226   C423    1.399   .     S
C227   H249    1.082   .     S
C227   C807    1.385   1_554 S
C228   C427    1.335   .     S
C228   H448    1.088   .     S
C230   O259    1.285   .     A
C230   O261    1.285   .     A
C231   O262    1.285   .     A
C231   O260    1.285   .     A
H234   N320    1.028   .     S
H238   C284    1.083   .     S
H241   C355    1.083   1_455 S
H251   C427    1.088   .     S
H252   N385    1.028   1_455 S
N253   Zn264   2.016   .     S
N253   H318    1.028   .     S
N253   N320    1.273   .     S
N254   Zn263   2.016   .     S
N254   H366    1.028   1_455 S
N254   N385    1.273   1_455 S
O255   Zn263   1.949   .     S
O256   Zn264   1.949   .     S
O257   Zn264   1.971   .     S
O258   Zn263   1.971   .     S
O259   Zn263   1.994   .     S
O260   Zn264   1.994   .     S
O261   Zn264   2.019   .     S
O262   Zn263   2.019   .     S
C265   O321    1.275   .     A
C265   O323    1.284   .     A
C265   C294    1.397   .     S
C266   C286    1.485   .     S
C266   C268    1.405   .     A
C266   C277    1.402   .     A
C267   C269    1.388   .     A
C267   C297    1.421   .     S
C267   C298    1.405   .     A
C268   C296    1.421   .     S
C268   C270    1.388   .     A
C269   H299    1.086   .     S
C269   C271    1.378   .     A
C270   C272    1.378   .     A
C270   H310    1.086   .     S
C271   C278    1.396   .     A
C271   C273    1.410   .     A
C272   C274    1.410   .     A
C272   C279    1.396   .     A
C273   C275    1.419   .     A
C273   C868    1.397   1_554 S
C274   C277    1.419   .     A
C274   C867    1.397   .     S
C275   C293    1.407   .     A
C275   C298    1.402   .     A
C276   O322    1.275   .     A
C276   C295    1.397   .     S
C276   O324    1.284   .     A
C277   C287    1.407   .     A
C278   H312    1.084   .     S
C278   C881    1.385   1_554 S
C279   H313    1.084   .     S
C279   C887    1.385   .     S
C280   C285    1.403   .     A
C280   C281    1.404   .     A
C280   C298    1.485   .     S
C281   H301    1.083   .     S
C282   H302    1.082   .     S
C282   C283    1.398   .     A
C282   C479    1.399   .     S
C283   H303    1.083   .     S
C283   C482    1.398   .     S
C284   C285    1.399   .     A
C285   H305    1.083   .     S
C286   C292    1.404   .     A
C286   C288    1.403   .     A
C287   H314    1.082   .     S
C287   C872    1.385   .     S
C288   H306    1.083   .     S
C288   C289    1.399   .     A
C289   C488    1.398   .     S
C289   H373    1.083   .     S
C290   H308    1.083   .     S
C290   C291    1.398   .     A
C291   H309    1.082   .     S
C292   H311    1.083   .     S
C292   C489    1.399   .     S
C293   H315    1.082   .     S
C293   C873    1.385   1_554 S
C294   C493    1.335   .     S
C294   H514    1.088   .     S
C296   O325    1.285   .     A
C296   O327    1.285   .     A
C297   O328    1.285   .     A
C297   O326    1.285   .     A
H300   N386    1.028   .     S
H304   C350    1.083   .     S
H317   C493    1.088   .     S
N319   Zn330   2.016   .     S
N319   H384    1.028   .     S
N319   N386    1.273   .     S
N320   Zn329   2.016   .     S
O321   Zn329   1.949   .     S
O322   Zn330   1.949   .     S
O323   Zn330   1.971   .     S
O324   Zn329   1.971   .     S
O325   Zn329   1.994   .     S
O326   Zn330   1.994   .     S
O327   Zn330   2.019   .     S
O328   Zn329   2.019   .     S
C331   O387    1.275   .     A
C331   O389    1.284   .     A
C331   C360    1.397   .     S
C332   C352    1.485   .     S
C332   C334    1.405   .     A
C332   C343    1.402   .     A
C333   C335    1.388   .     A
C333   C363    1.421   .     S
C333   C364    1.405   .     A
C334   C362    1.421   .     S
C334   C336    1.388   .     A
C335   H365    1.086   .     S
C335   C337    1.378   .     A
C336   C338    1.378   .     A
C336   H376    1.086   .     S
C337   C344    1.396   .     A
C337   C339    1.410   .     A
C338   C340    1.410   .     A
C338   C345    1.396   .     A
C339   C341    1.419   .     A
C339   C934    1.397   1_554 S
C340   C343    1.419   .     A
C340   C933    1.397   .     S
C341   C359    1.407   .     A
C341   C364    1.402   .     A
C342   O388    1.275   .     A
C342   C361    1.397   .     S
C342   O390    1.284   .     A
C343   C353    1.407   .     A
C344   H378    1.084   .     S
C344   C947    1.385   1_554 S
C345   H379    1.084   .     S
C345   C953    1.385   .     S
C346   C351    1.403   .     A
C346   C347    1.404   .     A
C346   C364    1.485   .     S
C347   H367    1.083   .     S
C348   H368    1.082   .     S
C348   C349    1.398   .     A
C348   C545    1.399   .     S
C349   H369    1.083   .     S
C349   C548    1.398   .     S
C350   C351    1.399   .     A
C351   H371    1.083   .     S
C352   C358    1.404   .     A
C352   C354    1.403   .     A
C353   H380    1.082   .     S
C353   C938    1.385   .     S
C354   H372    1.083   .     S
C354   C355    1.399   .     A
C355   C554    1.398   .     S
C355   H241    1.083   1_655 S
C356   H374    1.083   .     S
C356   C357    1.398   .     A
C357   H375    1.082   .     S
C358   H377    1.083   .     S
C358   C555    1.399   .     S
C359   H381    1.082   .     S
C359   C939    1.385   1_554 S
C360   C559    1.335   .     S
C360   H580    1.088   .     S
C362   O391    1.285   .     A
C362   O393    1.285   .     A
C363   O394    1.285   .     A
C363   O392    1.285   .     A
H366   N254    1.028   1_655 S
H370   C218    1.083   1_655 S
H383   C559    1.088   .     S
N385   Zn396   2.016   .     S
N385   H252    1.028   1_655 S
N385   N254    1.273   1_655 S
N386   Zn395   2.016   .     S
O387   Zn395   1.949   .     S
O388   Zn396   1.949   .     S
O389   Zn396   1.971   .     S
O390   Zn395   1.971   .     S
O391   Zn395   1.994   .     S
O392   Zn396   1.994   .     S
O393   Zn396   2.019   .     S
O394   Zn395   2.019   .     S
C397   O453    1.275   .     A
C397   O455    1.284   .     A
C397   C426    1.397   .     S
C398   C418    1.485   .     S
C398   C400    1.405   .     A
C398   C409    1.402   .     A
C399   C401    1.388   .     A
C399   C429    1.421   .     S
C399   C430    1.405   .     A
C400   C428    1.421   .     S
C400   C402    1.388   .     A
C401   H431    1.086   .     S
C401   C403    1.378   .     A
C402   C404    1.378   .     A
C402   H442    1.086   .     S
C403   C410    1.396   .     A
C403   C405    1.410   .     A
C404   C406    1.410   .     A
C404   C411    1.396   .     A
C405   C407    1.419   .     A
C405   C1000   1.397   1_554 S
C406   C409    1.419   .     A
C406   C999    1.397   .     S
C407   C425    1.407   .     A
C407   C430    1.402   .     A
C408   O454    1.275   .     A
C408   C427    1.397   .     S
C408   O456    1.284   .     A
C409   C419    1.407   .     A
C410   H444    1.084   .     S
C410   C1013   1.385   1_554 S
C411   H445    1.084   .     S
C411   C1019   1.385   .     S
C412   C417    1.403   .     A
C412   C413    1.404   .     A
C412   C430    1.485   .     S
C413   H433    1.083   .     S
C414   H434    1.082   .     S
C414   C415    1.398   .     A
C414   C17     1.399   1_565 S
C415   H435    1.083   .     S
C415   C20     1.398   1_565 S
C416   C417    1.399   .     A
C416   H568    1.083   1_455 S
C417   H437    1.083   .     S
C418   C424    1.404   .     A
C418   C420    1.403   .     A
C419   H446    1.082   .     S
C419   C1004   1.385   .     S
C420   H438    1.083   .     S
C420   C421    1.399   .     A
C421   C26     1.398   1_565 S
C421   H505    1.083   .     S
C422   H440    1.083   .     S
C422   C423    1.398   .     A
C423   H441    1.082   .     S
C424   H443    1.083   .     S
C424   C27     1.399   1_565 S
C425   H447    1.082   .     S
C425   C1005   1.385   1_554 S
C426   C31     1.335   1_565 S
C426   H52     1.088   1_565 S
C428   O457    1.285   .     A
C428   O459    1.285   .     A
C429   O460    1.285   .     A
C429   O458    1.285   .     A
H432   N518    1.028   .     S
H436   C482    1.083   .     S
H439   C553    1.083   1_455 S
H449   C31     1.088   1_565 S
H450   N583    1.028   1_455 S
N451   Zn462   2.016   .     S
N451   H516    1.028   .     S
N451   N518    1.273   .     S
N452   Zn461   2.016   .     S
N452   H564    1.028   1_455 S
N452   N583    1.273   1_455 S
O453   Zn461   1.949   .     S
O454   Zn462   1.949   .     S
O455   Zn462   1.971   .     S
O456   Zn461   1.971   .     S
O457   Zn461   1.994   .     S
O458   Zn462   1.994   .     S
O459   Zn462   2.019   .     S
O460   Zn461   2.019   .     S
C463   O519    1.275   .     A
C463   O521    1.284   .     A
C463   C492    1.397   .     S
C464   C484    1.485   .     S
C464   C466    1.405   .     A
C464   C475    1.402   .     A
C465   C467    1.388   .     A
C465   C495    1.421   .     S
C465   C496    1.405   .     A
C466   C494    1.421   .     S
C466   C468    1.388   .     A
C467   H497    1.086   .     S
C467   C469    1.378   .     A
C468   C470    1.378   .     A
C468   H508    1.086   .     S
C469   C476    1.396   .     A
C469   C471    1.410   .     A
C470   C472    1.410   .     A
C470   C477    1.396   .     A
C471   C473    1.419   .     A
C471   C1066   1.397   1_554 S
C472   C475    1.419   .     A
C472   C1065   1.397   .     S
C473   C491    1.407   .     A
C473   C496    1.402   .     A
C474   O520    1.275   .     A
C474   C493    1.397   .     S
C474   O522    1.284   .     A
C475   C485    1.407   .     A
C476   H510    1.084   .     S
C476   C1079   1.385   1_554 S
C477   H511    1.084   .     S
C477   C1085   1.385   .     S
C478   C483    1.403   .     A
C478   C479    1.404   .     A
C478   C496    1.485   .     S
C479   H499    1.083   .     S
C480   H500    1.082   .     S
C480   C481    1.398   .     A
C480   C83     1.399   1_565 S
C481   H501    1.083   .     S
C481   C86     1.398   1_565 S
C482   C483    1.399   .     A
C483   H503    1.083   .     S
C484   C490    1.404   .     A
C484   C486    1.403   .     A
C485   H512    1.082   .     S
C485   C1070   1.385   .     S
C486   H504    1.083   .     S
C486   C487    1.399   .     A
C487   C92     1.398   1_565 S
C487   H571    1.083   .     S
C488   H506    1.083   .     S
C488   C489    1.398   .     A
C489   H507    1.082   .     S
C490   H509    1.083   .     S
C490   C93     1.399   1_565 S
C491   H513    1.082   .     S
C491   C1071   1.385   1_554 S
C492   C97     1.335   1_565 S
C492   H118    1.088   1_565 S
C494   O523    1.285   .     A
C494   O525    1.285   .     A
C495   O526    1.285   .     A
C495   O524    1.285   .     A
H498   N584    1.028   .     S
H502   C548    1.083   .     S
H515   C97     1.088   1_565 S
N517   Zn528   2.016   .     S
N517   H582    1.028   .     S
N517   N584    1.273   .     S
N518   Zn527   2.016   .     S
O519   Zn527   1.949   .     S
O520   Zn528   1.949   .     S
O521   Zn528   1.971   .     S
O522   Zn527   1.971   .     S
O523   Zn527   1.994   .     S
O524   Zn528   1.994   .     S
O525   Zn528   2.019   .     S
O526   Zn527   2.019   .     S
C529   O585    1.275   .     A
C529   O587    1.284   .     A
C529   C558    1.397   .     S
C530   C550    1.485   .     S
C530   C532    1.405   .     A
C530   C541    1.402   .     A
C531   C533    1.388   .     A
C531   C561    1.421   .     S
C531   C562    1.405   .     A
C532   C560    1.421   .     S
C532   C534    1.388   .     A
C533   H563    1.086   .     S
C533   C535    1.378   .     A
C534   C536    1.378   .     A
C534   H574    1.086   .     S
C535   C542    1.396   .     A
C535   C537    1.410   .     A
C536   C538    1.410   .     A
C536   C543    1.396   .     A
C537   C539    1.419   .     A
C537   C1132   1.397   1_554 S
C538   C541    1.419   .     A
C538   C1131   1.397   .     S
C539   C557    1.407   .     A
C539   C562    1.402   .     A
C540   O586    1.275   .     A
C540   C559    1.397   .     S
C540   O588    1.284   .     A
C541   C551    1.407   .     A
C542   H576    1.084   .     S
C542   C1145   1.385   1_554 S
C543   H577    1.084   .     S
C543   C1151   1.385   .     S
C544   C549    1.403   .     A
C544   C545    1.404   .     A
C544   C562    1.485   .     S
C545   H565    1.083   .     S
C546   H566    1.082   .     S
C546   C547    1.398   .     A
C546   C149    1.399   1_565 S
C547   H567    1.083   .     S
C547   C152    1.398   1_565 S
C548   C549    1.399   .     A
C549   H569    1.083   .     S
C550   C556    1.404   .     A
C550   C552    1.403   .     A
C551   H578    1.082   .     S
C551   C1136   1.385   .     S
C552   H570    1.083   .     S
C552   C553    1.399   .     A
C553   C158    1.398   1_565 S
C553   H439    1.083   1_655 S
C554   H572    1.083   .     S
C554   C555    1.398   .     A
C555   H573    1.082   .     S
C556   H575    1.083   .     S
C556   C159    1.399   1_565 S
C557   H579    1.082   .     S
C557   C1137   1.385   1_554 S
C558   C163    1.335   1_565 S
C558   H184    1.088   1_565 S
C560   O589    1.285   .     A
C560   O591    1.285   .     A
C561   O592    1.285   .     A
C561   O590    1.285   .     A
H564   N452    1.028   1_655 S
H568   C416    1.083   1_655 S
H581   C163    1.088   1_565 S
N583   Zn594   2.016   .     S
N583   H450    1.028   1_655 S
N583   N452    1.273   1_655 S
N584   Zn593   2.016   .     S
O585   Zn593   1.949   .     S
O586   Zn594   1.949   .     S
O587   Zn594   1.971   .     S
O588   Zn593   1.971   .     S
O589   Zn593   1.994   .     S
O590   Zn594   1.994   .     S
O591   Zn594   2.019   .     S
O592   Zn593   2.019   .     S
C595   O651    1.275   .     A
C595   O653    1.284   .     A
C595   C624    1.397   .     S
C596   C616    1.485   .     S
C596   C598    1.405   .     A
C596   C607    1.402   .     A
C597   C599    1.388   .     A
C597   C627    1.421   .     S
C597   C628    1.405   .     A
C598   C626    1.421   .     S
C598   C600    1.388   .     A
C599   H629    1.086   .     S
C599   C601    1.378   .     A
C600   C602    1.378   .     A
C600   H640    1.086   .     S
C601   C608    1.396   .     A
C601   C603    1.410   .     A
C602   C604    1.410   .     A
C602   C609    1.396   .     A
C603   C605    1.419   .     A
C604   C607    1.419   .     A
C604   C9      1.397   1_556 S
C605   C623    1.407   .     A
C605   C628    1.402   .     A
C606   O652    1.275   .     A
C606   C625    1.397   .     S
C606   O654    1.284   .     A
C607   C617    1.407   .     A
C608   H642    1.084   .     S
C609   H643    1.084   .     S
C609   C29     1.385   1_556 S
C610   C615    1.403   .     A
C610   C611    1.404   .     A
C610   C628    1.485   .     S
C611   H631    1.083   .     S
C611   C1008   1.399   1_545 S
C612   H632    1.082   .     S
C612   C613    1.398   .     A
C612   C809    1.399   .     S
C613   H633    1.083   .     S
C613   C812    1.398   .     S
C614   C615    1.399   .     A
C614   C1009   1.398   1_545 S
C614   H766    1.083   1_455 S
C615   H635    1.083   .     S
C616   C622    1.404   .     A
C616   C618    1.403   .     A
C617   H644    1.082   .     S
C617   C14     1.385   1_556 S
C618   H636    1.083   .     S
C618   C619    1.399   .     A
C619   C818    1.398   .     S
C619   H703    1.083   .     S
C620   H638    1.083   .     S
C620   C621    1.398   .     A
C620   C1015   1.398   1_545 S
C621   H639    1.082   .     S
C621   C1018   1.399   1_545 S
C622   H641    1.083   .     S
C622   C819    1.399   .     S
C623   H645    1.082   .     S
C624   C823    1.335   .     S
C624   H844    1.088   .     S
C625   C1020   1.335   1_545 S
C625   H1043   1.088   1_545 S
C626   O655    1.285   .     A
C626   O657    1.285   .     A
C627   O658    1.285   .     A
C627   O656    1.285   .     A
H630   N716    1.028   .     S
H634   C680    1.083   .     S
H637   C751    1.083   1_455 S
H646   C1020   1.088   1_545 S
H647   C823    1.088   .     S
H648   N781    1.028   1_455 S
N649   Zn660   2.016   .     S
N649   H714    1.028   .     S
N649   N716    1.273   .     S
N650   Zn659   2.016   .     S
N650   H762    1.028   1_455 S
N650   N781    1.273   1_455 S
O651   Zn659   1.949   .     S
O652   Zn660   1.949   .     S
O653   Zn660   1.971   .     S
O654   Zn659   1.971   .     S
O655   Zn659   1.994   .     S
O656   Zn660   1.994   .     S
O657   Zn660   2.019   .     S
O658   Zn659   2.019   .     S
C661   O717    1.275   .     A
C661   O719    1.284   .     A
C661   C690    1.397   .     S
C662   C682    1.485   .     S
C662   C664    1.405   .     A
C662   C673    1.402   .     A
C663   C665    1.388   .     A
C663   C693    1.421   .     S
C663   C694    1.405   .     A
C664   C692    1.421   .     S
C664   C666    1.388   .     A
C665   H695    1.086   .     S
C665   C667    1.378   .     A
C666   C668    1.378   .     A
C666   H706    1.086   .     S
C667   C674    1.396   .     A
C667   C669    1.410   .     A
C668   C670    1.410   .     A
C668   C675    1.396   .     A
C669   C671    1.419   .     A
C670   C673    1.419   .     A
C670   C75     1.397   1_556 S
C671   C689    1.407   .     A
C671   C694    1.402   .     A
C672   O718    1.275   .     A
C672   C691    1.397   .     S
C672   O720    1.284   .     A
C673   C683    1.407   .     A
C674   H708    1.084   .     S
C675   H709    1.084   .     S
C675   C95     1.385   1_556 S
C676   C681    1.403   .     A
C676   C677    1.404   .     A
C676   C694    1.485   .     S
C677   H697    1.083   .     S
C677   C1074   1.399   1_545 S
C678   H698    1.082   .     S
C678   C679    1.398   .     A
C678   C875    1.399   .     S
C679   H699    1.083   .     S
C679   C878    1.398   .     S
C680   C681    1.399   .     A
C680   C1075   1.398   1_545 S
C681   H701    1.083   .     S
C682   C688    1.404   .     A
C682   C684    1.403   .     A
C683   H710    1.082   .     S
C683   C80     1.385   1_556 S
C684   H702    1.083   .     S
C684   C685    1.399   .     A
C685   C884    1.398   .     S
C685   H769    1.083   .     S
C686   H704    1.083   .     S
C686   C687    1.398   .     A
C686   C1081   1.398   1_545 S
C687   H705    1.082   .     S
C687   C1084   1.399   1_545 S
C688   H707    1.083   .     S
C688   C885    1.399   .     S
C689   H711    1.082   .     S
C690   C889    1.335   .     S
C690   H910    1.088   .     S
C691   C1086   1.335   1_545 S
C691   H1109   1.088   1_545 S
C692   O721    1.285   .     A
C692   O723    1.285   .     A
C693   O724    1.285   .     A
C693   O722    1.285   .     A
H696   N782    1.028   .     S
H700   C746    1.083   .     S
H712   C1086   1.088   1_545 S
H713   C889    1.088   .     S
N715   Zn726   2.016   .     S
N715   H780    1.028   .     S
N715   N782    1.273   .     S
N716   Zn725   2.016   .     S
O717   Zn725   1.949   .     S
O718   Zn726   1.949   .     S
O719   Zn726   1.971   .     S
O720   Zn725   1.971   .     S
O721   Zn725   1.994   .     S
O722   Zn726   1.994   .     S
O723   Zn726   2.019   .     S
O724   Zn725   2.019   .     S
C727   O783    1.275   .     A
C727   O785    1.284   .     A
C727   C756    1.397   .     S
C728   C748    1.485   .     S
C728   C730    1.405   .     A
C728   C739    1.402   .     A
C729   C731    1.388   .     A
C729   C759    1.421   .     S
C729   C760    1.405   .     A
C730   C758    1.421   .     S
C730   C732    1.388   .     A
C731   H761    1.086   .     S
C731   C733    1.378   .     A
C732   C734    1.378   .     A
C732   H772    1.086   .     S
C733   C740    1.396   .     A
C733   C735    1.410   .     A
C734   C736    1.410   .     A
C734   C741    1.396   .     A
C735   C737    1.419   .     A
C736   C739    1.419   .     A
C736   C141    1.397   1_556 S
C737   C755    1.407   .     A
C737   C760    1.402   .     A
C738   O784    1.275   .     A
C738   C757    1.397   .     S
C738   O786    1.284   .     A
C739   C749    1.407   .     A
C740   H774    1.084   .     S
C741   H775    1.084   .     S
C741   C161    1.385   1_556 S
C742   C747    1.403   .     A
C742   C743    1.404   .     A
C742   C760    1.485   .     S
C743   H763    1.083   .     S
C743   C1140   1.399   1_545 S
C744   H764    1.082   .     S
C744   C745    1.398   .     A
C744   C941    1.399   .     S
C745   H765    1.083   .     S
C745   C944    1.398   .     S
C746   C747    1.399   .     A
C746   C1141   1.398   1_545 S
C747   H767    1.083   .     S
C748   C754    1.404   .     A
C748   C750    1.403   .     A
C749   H776    1.082   .     S
C749   C146    1.385   1_556 S
C750   H768    1.083   .     S
C750   C751    1.399   .     A
C751   C950    1.398   .     S
C751   H637    1.083   1_655 S
C752   H770    1.083   .     S
C752   C753    1.398   .     A
C752   C1147   1.398   1_545 S
C753   H771    1.082   .     S
C753   C1150   1.399   1_545 S
C754   H773    1.083   .     S
C754   C951    1.399   .     S
C755   H777    1.082   .     S
C756   C955    1.335   .     S
C756   H976    1.088   .     S
C757   C1152   1.335   1_545 S
C757   H1175   1.088   1_545 S
C758   O787    1.285   .     A
C758   O789    1.285   .     A
C759   O790    1.285   .     A
C759   O788    1.285   .     A
H762   N650    1.028   1_655 S
H766   C614    1.083   1_655 S
H778   C1152   1.088   1_545 S
H779   C955    1.088   .     S
N781   Zn792   2.016   .     S
N781   H648    1.028   1_655 S
N781   N650    1.273   1_655 S
N782   Zn791   2.016   .     S
O783   Zn791   1.949   .     S
O784   Zn792   1.949   .     S
O785   Zn792   1.971   .     S
O786   Zn791   1.971   .     S
O787   Zn791   1.994   .     S
O788   Zn792   1.994   .     S
O789   Zn792   2.019   .     S
O790   Zn791   2.019   .     S
C793   O849    1.275   .     A
C793   O851    1.284   .     A
C793   C822    1.397   .     S
C794   C814    1.485   .     S
C794   C796    1.405   .     A
C794   C805    1.402   .     A
C795   C797    1.388   .     A
C795   C825    1.421   .     S
C795   C826    1.405   .     A
C796   C824    1.421   .     S
C796   C798    1.388   .     A
C797   H827    1.086   .     S
C797   C799    1.378   .     A
C798   C800    1.378   .     A
C798   H838    1.086   .     S
C799   C806    1.396   .     A
C799   C801    1.410   .     A
C800   C802    1.410   .     A
C800   C807    1.396   .     A
C801   C803    1.419   .     A
C802   C805    1.419   .     A
C802   C207    1.397   1_556 S
C803   C821    1.407   .     A
C803   C826    1.402   .     A
C804   O850    1.275   .     A
C804   C823    1.397   .     S
C804   O852    1.284   .     A
C805   C815    1.407   .     A
C806   H840    1.084   .     S
C807   H841    1.084   .     S
C807   C227    1.385   1_556 S
C808   C813    1.403   .     A
C808   C809    1.404   .     A
C808   C826    1.485   .     S
C809   H829    1.083   .     S
C810   H830    1.082   .     S
C810   C811    1.398   .     A
C810   C1007   1.399   .     S
C811   H831    1.083   .     S
C811   C1010   1.398   .     S
C812   C813    1.399   .     A
C812   H964    1.083   1_455 S
C813   H833    1.083   .     S
C814   C820    1.404   .     A
C814   C816    1.403   .     A
C815   H842    1.082   .     S
C815   C212    1.385   1_556 S
C816   H834    1.083   .     S
C816   C817    1.399   .     A
C817   C1016   1.398   .     S
C817   H901    1.083   .     S
C818   H836    1.083   .     S
C818   C819    1.398   .     A
C819   H837    1.082   .     S
C820   H839    1.083   .     S
C820   C1017   1.399   .     S
C821   H843    1.082   .     S
C822   C1021   1.335   .     S
C822   H1042   1.088   .     S
C824   O853    1.285   .     A
C824   O855    1.285   .     A
C825   O856    1.285   .     A
C825   O854    1.285   .     A
H828   N914    1.028   .     S
H832   C878    1.083   .     S
H835   C949    1.083   1_455 S
H845   C1021   1.088   .     S
H846   N979    1.028   1_455 S
N847   Zn858   2.016   .     S
N847   H912    1.028   .     S
N847   N914    1.273   .     S
N848   Zn857   2.016   .     S
N848   H960    1.028   1_455 S
N848   N979    1.273   1_455 S
O849   Zn857   1.949   .     S
O850   Zn858   1.949   .     S
O851   Zn858   1.971   .     S
O852   Zn857   1.971   .     S
O853   Zn857   1.994   .     S
O854   Zn858   1.994   .     S
O855   Zn858   2.019   .     S
O856   Zn857   2.019   .     S
C859   O915    1.275   .     A
C859   O917    1.284   .     A
C859   C888    1.397   .     S
C860   C880    1.485   .     S
C860   C862    1.405   .     A
C860   C871    1.402   .     A
C861   C863    1.388   .     A
C861   C891    1.421   .     S
C861   C892    1.405   .     A
C862   C890    1.421   .     S
C862   C864    1.388   .     A
C863   H893    1.086   .     S
C863   C865    1.378   .     A
C864   C866    1.378   .     A
C864   H904    1.086   .     S
C865   C872    1.396   .     A
C865   C867    1.410   .     A
C866   C868    1.410   .     A
C866   C873    1.396   .     A
C867   C869    1.419   .     A
C868   C871    1.419   .     A
C868   C273    1.397   1_556 S
C869   C887    1.407   .     A
C869   C892    1.402   .     A
C870   O916    1.275   .     A
C870   C889    1.397   .     S
C870   O918    1.284   .     A
C871   C881    1.407   .     A
C872   H906    1.084   .     S
C873   H907    1.084   .     S
C873   C293    1.385   1_556 S
C874   C879    1.403   .     A
C874   C875    1.404   .     A
C874   C892    1.485   .     S
C875   H895    1.083   .     S
C876   H896    1.082   .     S
C876   C877    1.398   .     A
C876   C1073   1.399   .     S
C877   H897    1.083   .     S
C877   C1076   1.398   .     S
C878   C879    1.399   .     A
C879   H899    1.083   .     S
C880   C886    1.404   .     A
C880   C882    1.403   .     A
C881   H908    1.082   .     S
C881   C278    1.385   1_556 S
C882   H900    1.083   .     S
C882   C883    1.399   .     A
C883   C1082   1.398   .     S
C883   H967    1.083   .     S
C884   H902    1.083   .     S
C884   C885    1.398   .     A
C885   H903    1.082   .     S
C886   H905    1.083   .     S
C886   C1083   1.399   .     S
C887   H909    1.082   .     S
C888   C1087   1.335   .     S
C888   H1108   1.088   .     S
C890   O919    1.285   .     A
C890   O921    1.285   .     A
C891   O922    1.285   .     A
C891   O920    1.285   .     A
H894   N980    1.028   .     S
H898   C944    1.083   .     S
H911   C1087   1.088   .     S
N913   Zn924   2.016   .     S
N913   H978    1.028   .     S
N913   N980    1.273   .     S
N914   Zn923   2.016   .     S
O915   Zn923   1.949   .     S
O916   Zn924   1.949   .     S
O917   Zn924   1.971   .     S
O918   Zn923   1.971   .     S
O919   Zn923   1.994   .     S
O920   Zn924   1.994   .     S
O921   Zn924   2.019   .     S
O922   Zn923   2.019   .     S
C925   O981    1.275   .     A
C925   O983    1.284   .     A
C925   C954    1.397   .     S
C926   C946    1.485   .     S
C926   C928    1.405   .     A
C926   C937    1.402   .     A
C927   C929    1.388   .     A
C927   C957    1.421   .     S
C927   C958    1.405   .     A
C928   C956    1.421   .     S
C928   C930    1.388   .     A
C929   H959    1.086   .     S
C929   C931    1.378   .     A
C930   C932    1.378   .     A
C930   H970    1.086   .     S
C931   C938    1.396   .     A
C931   C933    1.410   .     A
C932   C934    1.410   .     A
C932   C939    1.396   .     A
C933   C935    1.419   .     A
C934   C937    1.419   .     A
C934   C339    1.397   1_556 S
C935   C953    1.407   .     A
C935   C958    1.402   .     A
C936   O982    1.275   .     A
C936   C955    1.397   .     S
C936   O984    1.284   .     A
C937   C947    1.407   .     A
C938   H972    1.084   .     S
C939   H973    1.084   .     S
C939   C359    1.385   1_556 S
C940   C945    1.403   .     A
C940   C941    1.404   .     A
C940   C958    1.485   .     S
C941   H961    1.083   .     S
C942   H962    1.082   .     S
C942   C943    1.398   .     A
C942   C1139   1.399   .     S
C943   H963    1.083   .     S
C943   C1142   1.398   .     S
C944   C945    1.399   .     A
C945   H965    1.083   .     S
C946   C952    1.404   .     A
C946   C948    1.403   .     A
C947   H974    1.082   .     S
C947   C344    1.385   1_556 S
C948   H966    1.083   .     S
C948   C949    1.399   .     A
C949   C1148   1.398   .     S
C949   H835    1.083   1_655 S
C950   H968    1.083   .     S
C950   C951    1.398   .     A
C951   H969    1.082   .     S
C952   H971    1.083   .     S
C952   C1149   1.399   .     S
C953   H975    1.082   .     S
C954   C1153   1.335   .     S
C954   H1174   1.088   .     S
C956   O985    1.285   .     A
C956   O987    1.285   .     A
C957   O988    1.285   .     A
C957   O986    1.285   .     A
H960   N848    1.028   1_655 S
H964   C812    1.083   1_655 S
H977   C1153   1.088   .     S
N979   Zn990   2.016   .     S
N979   H846    1.028   1_655 S
N979   N848    1.273   1_655 S
N980   Zn989   2.016   .     S
O981   Zn989   1.949   .     S
O982   Zn990   1.949   .     S
O983   Zn990   1.971   .     S
O984   Zn989   1.971   .     S
O985   Zn989   1.994   .     S
O986   Zn990   1.994   .     S
O987   Zn990   2.019   .     S
O988   Zn989   2.019   .     S
C991   O1047   1.275   .     A
C991   O1049   1.284   .     A
C991   C1020   1.397   .     S
C992   C1012   1.485   .     S
C992   C994    1.405   .     A
C992   C1003   1.402   .     A
C993   C995    1.388   .     A
C993   C1023   1.421   .     S
C993   C1024   1.405   .     A
C994   C1022   1.421   .     S
C994   C996    1.388   .     A
C995   H1025   1.086   .     S
C995   C997    1.378   .     A
C996   C998    1.378   .     A
C996   H1036   1.086   .     S
C997   C1004   1.396   .     A
C997   C999    1.410   .     A
C998   C1000   1.410   .     A
C998   C1005   1.396   .     A
C999   C1001   1.419   .     A
C1000  C1003   1.419   .     A
C1000  C405    1.397   1_556 S
C1001  C1019   1.407   .     A
C1001  C1024   1.402   .     A
C1002  O1048   1.275   .     A
C1002  C1021   1.397   .     S
C1002  O1050   1.284   .     A
C1003  C1013   1.407   .     A
C1004  H1038   1.084   .     S
C1005  H1039   1.084   .     S
C1005  C425    1.385   1_556 S
C1006  C1011   1.403   .     A
C1006  C1007   1.404   .     A
C1006  C1024   1.485   .     S
C1007  H1027   1.083   .     S
C1008  H1028   1.082   .     S
C1008  C1009   1.398   .     A
C1008  C611    1.399   1_565 S
C1009  H1029   1.083   .     S
C1009  C614    1.398   1_565 S
C1010  C1011   1.399   .     A
C1010  H1162   1.083   1_455 S
C1011  H1031   1.083   .     S
C1012  C1018   1.404   .     A
C1012  C1014   1.403   .     A
C1013  H1040   1.082   .     S
C1013  C410    1.385   1_556 S
C1014  H1032   1.083   .     S
C1014  C1015   1.399   .     A
C1015  C620    1.398   1_565 S
C1015  H1099   1.083   .     S
C1016  H1034   1.083   .     S
C1016  C1017   1.398   .     A
C1017  H1035   1.082   .     S
C1018  H1037   1.083   .     S
C1018  C621    1.399   1_565 S
C1019  H1041   1.082   .     S
C1020  C625    1.335   1_565 S
C1020  H646    1.088   1_565 S
C1022  O1051   1.285   .     A
C1022  O1053   1.285   .     A
C1023  O1054   1.285   .     A
C1023  O1052   1.285   .     A
H1026  N1112   1.028   .     S
H1030  C1076   1.083   .     S
H1033  C1147   1.083   1_455 S
H1043  C625    1.088   1_565 S
H1044  N1177   1.028   1_455 S
N1045  Zn1056  2.016   .     S
N1045  H1110   1.028   .     S
N1045  N1112   1.273   .     S
N1046  Zn1055  2.016   .     S
N1046  H1158   1.028   1_455 S
N1046  N1177   1.273   1_455 S
O1047  Zn1055  1.949   .     S
O1048  Zn1056  1.949   .     S
O1049  Zn1056  1.971   .     S
O1050  Zn1055  1.971   .     S
O1051  Zn1055  1.994   .     S
O1052  Zn1056  1.994   .     S
O1053  Zn1056  2.019   .     S
O1054  Zn1055  2.019   .     S
C1057  O1113   1.275   .     A
C1057  O1115   1.284   .     A
C1057  C1086   1.397   .     S
C1058  C1078   1.485   .     S
C1058  C1060   1.405   .     A
C1058  C1069   1.402   .     A
C1059  C1061   1.388   .     A
C1059  C1089   1.421   .     S
C1059  C1090   1.405   .     A
C1060  C1088   1.421   .     S
C1060  C1062   1.388   .     A
C1061  H1091   1.086   .     S
C1061  C1063   1.378   .     A
C1062  C1064   1.378   .     A
C1062  H1102   1.086   .     S
C1063  C1070   1.396   .     A
C1063  C1065   1.410   .     A
C1064  C1066   1.410   .     A
C1064  C1071   1.396   .     A
C1065  C1067   1.419   .     A
C1066  C1069   1.419   .     A
C1066  C471    1.397   1_556 S
C1067  C1085   1.407   .     A
C1067  C1090   1.402   .     A
C1068  O1114   1.275   .     A
C1068  C1087   1.397   .     S
C1068  O1116   1.284   .     A
C1069  C1079   1.407   .     A
C1070  H1104   1.084   .     S
C1071  H1105   1.084   .     S
C1071  C491    1.385   1_556 S
C1072  C1077   1.403   .     A
C1072  C1073   1.404   .     A
C1072  C1090   1.485   .     S
C1073  H1093   1.083   .     S
C1074  H1094   1.082   .     S
C1074  C1075   1.398   .     A
C1074  C677    1.399   1_565 S
C1075  H1095   1.083   .     S
C1075  C680    1.398   1_565 S
C1076  C1077   1.399   .     A
C1077  H1097   1.083   .     S
C1078  C1084   1.404   .     A
C1078  C1080   1.403   .     A
C1079  H1106   1.082   .     S
C1079  C476    1.385   1_556 S
C1080  H1098   1.083   .     S
C1080  C1081   1.399   .     A
C1081  C686    1.398   1_565 S
C1081  H1165   1.083   .     S
C1082  H1100   1.083   .     S
C1082  C1083   1.398   .     A
C1083  H1101   1.082   .     S
C1084  H1103   1.083   .     S
C1084  C687    1.399   1_565 S
C1085  H1107   1.082   .     S
C1086  C691    1.335   1_565 S
C1086  H712    1.088   1_565 S
C1088  O1117   1.285   .     A
C1088  O1119   1.285   .     A
C1089  O1120   1.285   .     A
C1089  O1118   1.285   .     A
H1092  N1178   1.028   .     S
H1096  C1142   1.083   .     S
H1109  C691    1.088   1_565 S
N1111  Zn1122  2.016   .     S
N1111  H1176   1.028   .     S
N1111  N1178   1.273   .     S
N1112  Zn1121  2.016   .     S
O1113  Zn1121  1.949   .     S
O1114  Zn1122  1.949   .     S
O1115  Zn1122  1.971   .     S
O1116  Zn1121  1.971   .     S
O1117  Zn1121  1.994   .     S
O1118  Zn1122  1.994   .     S
O1119  Zn1122  2.019   .     S
O1120  Zn1121  2.019   .     S
C1123  O1179   1.275   .     A
C1123  O1181   1.284   .     A
C1123  C1152   1.397   .     S
C1124  C1144   1.485   .     S
C1124  C1126   1.405   .     A
C1124  C1135   1.402   .     A
C1125  C1127   1.388   .     A
C1125  C1155   1.421   .     S
C1125  C1156   1.405   .     A
C1126  C1154   1.421   .     S
C1126  C1128   1.388   .     A
C1127  H1157   1.086   .     S
C1127  C1129   1.378   .     A
C1128  C1130   1.378   .     A
C1128  H1168   1.086   .     S
C1129  C1136   1.396   .     A
C1129  C1131   1.410   .     A
C1130  C1132   1.410   .     A
C1130  C1137   1.396   .     A
C1131  C1133   1.419   .     A
C1132  C1135   1.419   .     A
C1132  C537    1.397   1_556 S
C1133  C1151   1.407   .     A
C1133  C1156   1.402   .     A
C1134  O1180   1.275   .     A
C1134  C1153   1.397   .     S
C1134  O1182   1.284   .     A
C1135  C1145   1.407   .     A
C1136  H1170   1.084   .     S
C1137  H1171   1.084   .     S
C1137  C557    1.385   1_556 S
C1138  C1143   1.403   .     A
C1138  C1139   1.404   .     A
C1138  C1156   1.485   .     S
C1139  H1159   1.083   .     S
C1140  H1160   1.082   .     S
C1140  C1141   1.398   .     A
C1140  C743    1.399   1_565 S
C1141  H1161   1.083   .     S
C1141  C746    1.398   1_565 S
C1142  C1143   1.399   .     A
C1143  H1163   1.083   .     S
C1144  C1150   1.404   .     A
C1144  C1146   1.403   .     A
C1145  H1172   1.082   .     S
C1145  C542    1.385   1_556 S
C1146  H1164   1.083   .     S
C1146  C1147   1.399   .     A
C1147  C752    1.398   1_565 S
C1147  H1033   1.083   1_655 S
C1148  H1166   1.083   .     S
C1148  C1149   1.398   .     A
C1149  H1167   1.082   .     S
C1150  H1169   1.083   .     S
C1150  C753    1.399   1_565 S
C1151  H1173   1.082   .     S
C1152  C757    1.335   1_565 S
C1152  H778    1.088   1_565 S
C1154  O1183   1.285   .     A
C1154  O1185   1.285   .     A
C1155  O1186   1.285   .     A
C1155  O1184   1.285   .     A
H1158  N1046   1.028   1_655 S
H1162  C1010   1.083   1_655 S
H1175  C757    1.088   1_565 S
N1177  Zn1188  2.016   .     S
N1177  H1044   1.028   1_655 S
N1177  N1046   1.273   1_655 S
N1178  Zn1187  2.016   .     S
O1179  Zn1187  1.949   .     S
O1180  Zn1188  1.949   .     S
O1181  Zn1188  1.971   .     S
O1182  Zn1187  1.971   .     S
O1183  Zn1187  1.994   .     S
O1184  Zn1188  1.994   .     S
O1185  Zn1188  2.019   .     S
O1186  Zn1187  2.019   .     S
