data_str_m3_o1_o2_pcu_sym.86
_audit_creation_date              2020-01-03
_audit_creation_method            'Materials Studio'
_symmetry_space_group_name_H-M    'P1'
_symmetry_Int_Tables_number       1
_symmetry_cell_setting            triclinic
loop_
_symmetry_equiv_pos_as_xyz
  x,y,z
_cell_length_a                    31.9721
_cell_length_b                    29.5408
_cell_length_c                    29.9519
_cell_angle_alpha                 89.9852
_cell_angle_beta                  90.1219
_cell_angle_gamma                 89.9713
loop_
_atom_site_label
_atom_site_type_symbol
_atom_site_fract_x
_atom_site_fract_y
_atom_site_fract_z
_atom_site_U_iso_or_equiv
_atom_site_adp_type
_atom_site_occupancy
C1     C     0.08686   0.16668   0.24999   0.00000  Uiso   1.00
C2     C     0.31178   0.18630   0.28633   0.00000  Uiso   1.00
C3     C     0.31166   0.14702   0.21368   0.00000  Uiso   1.00
C4     C     0.02176   0.18623   0.28637   0.00000  Uiso   1.00
C5     C     0.14197   0.20423   0.04823   0.00000  Uiso   1.00
C6     C     0.14179   0.12932   0.45164   0.00000  Uiso   1.00
C7     C     0.17067   0.20548   0.45395   0.00000  Uiso   1.00
C8     C     0.17033   0.12781   0.04606   0.00000  Uiso   1.00
C9     C     0.14611   0.20459   0.09415   0.00000  Uiso   1.00
C10    C     0.14598   0.12891   0.40575   0.00000  Uiso   1.00
C11    C     0.17427   0.20533   0.40804   0.00000  Uiso   1.00
C12    C     0.24649   0.16666   0.25001   0.00000  Uiso   1.00
C13    C     0.17389   0.12791   0.09199   0.00000  Uiso   1.00
C14    C     0.16241   0.16656   0.11598   0.00000  Uiso   1.00
C15    C     0.16254   0.16679   0.38400   0.00000  Uiso   1.00
C16    C     0.15468   0.16610   0.02410   0.00000  Uiso   1.00
C17    C     0.15472   0.16735   0.47584   0.00000  Uiso   1.00
C18    C     0.29068   0.16665   0.25001   0.00000  Uiso   1.00
C19    C     0.04270   0.16669   0.24999   0.00000  Uiso   1.00
C20    C     0.04445   0.12835   0.17594   0.00000  Uiso   1.00
C21    C     0.28904   0.20537   0.32389   0.00000  Uiso   1.00
C22    C     0.28878   0.12800   0.17610   0.00000  Uiso   1.00
C23    C     0.16602   0.16666   0.16387   0.00000  Uiso   1.00
C24    C     0.04470   0.20495   0.32407   0.00000  Uiso   1.00
C25    C     0.16609   0.16668   0.33613   0.00000  Uiso   1.00
C26    C     0.19200   0.02395   0.27847   0.00000  Uiso   1.00
C27    C     0.14134   0.30938   0.22152   0.00000  Uiso   1.00
C28    C     0.14134   0.02400   0.22153   0.00000  Uiso   1.00
C29    C     0.19199   0.30933   0.27848   0.00000  Uiso   1.00
C30    C     0.02164   0.14711   0.21363   0.00000  Uiso   1.00
H31    H     0.21226   0.04209   0.30123   0.00000  Uiso   1.00
H32    H     0.13600   0.09925   0.38733   0.00000  Uiso   1.00
H33    H     0.18694   0.23490   0.39148   0.00000  Uiso   1.00
H34    H     0.18634   0.09823   0.10861   0.00000  Uiso   1.00
H35    H     0.12109   0.29124   0.19875   0.00000  Uiso   1.00
H36    H     0.12108   0.04218   0.19876   0.00000  Uiso   1.00
H37    H     0.21225   0.29115   0.30125   0.00000  Uiso   1.00
H38    H     0.12934   0.23377   0.03152   0.00000  Uiso   1.00
H39    H     0.12894   0.09990   0.46828   0.00000  Uiso   1.00
H40    H     0.18144   0.23479   0.47242   0.00000  Uiso   1.00
H41    H     0.18093   0.09841   0.02766   0.00000  Uiso   1.00
H42    H     0.13631   0.23434   0.11252   0.00000  Uiso   1.00
N43    N     0.16667   0.28573   0.25000   0.00000  Uiso   1.00
N44    N     0.16667   0.04760   0.25000   0.00000  Uiso   1.00
N45    N     0.06263   0.11344   0.14597   0.00000  Uiso   1.00
N46    N     0.27096   0.22055   0.35378   0.00000  Uiso   1.00
N47    N     0.27061   0.11285   0.14618   0.00000  Uiso   1.00
N48    N     0.06298   0.21981   0.35407   0.00000  Uiso   1.00
O49    O     0.10559   0.20487   0.24999   0.00000  Uiso   1.00
O50    O     0.22774   0.12846   0.25001   0.00000  Uiso   1.00
O51    O     0.22774   0.20487   0.25000   0.00000  Uiso   1.00
O52    O     0.10559   0.12846   0.24999   0.00000  Uiso   1.00
O53    O     0.16666   0.20489   0.18453   0.00000  Uiso   1.00
O54    O     0.16667   0.12845   0.31547   0.00000  Uiso   1.00
O55    O     0.16667   0.20489   0.31547   0.00000  Uiso   1.00
O56    O     0.16666   0.12845   0.18453   0.00000  Uiso   1.00
Zn57   Zn    0.16667   0.21771   0.25000   0.00000  Uiso   1.00
Zn58   Zn    0.16667   0.11563   0.25000   0.00000  Uiso   1.00
C59    C     0.42020   0.16668   0.24999   0.00000  Uiso   1.00
C60    C     0.64512   0.18630   0.28633   0.00000  Uiso   1.00
C61    C     0.64499   0.14702   0.21368   0.00000  Uiso   1.00
C62    C     0.35509   0.18623   0.28637   0.00000  Uiso   1.00
C63    C     0.47530   0.20423   0.04823   0.00000  Uiso   1.00
C64    C     0.47512   0.12932   0.45164   0.00000  Uiso   1.00
C65    C     0.50400   0.20548   0.45395   0.00000  Uiso   1.00
C66    C     0.50367   0.12781   0.04606   0.00000  Uiso   1.00
C67    C     0.47944   0.20459   0.09415   0.00000  Uiso   1.00
C68    C     0.47931   0.12891   0.40575   0.00000  Uiso   1.00
C69    C     0.50761   0.20533   0.40804   0.00000  Uiso   1.00
C70    C     0.57982   0.16666   0.25001   0.00000  Uiso   1.00
C71    C     0.50722   0.12791   0.09199   0.00000  Uiso   1.00
C72    C     0.49574   0.16656   0.11598   0.00000  Uiso   1.00
C73    C     0.49587   0.16679   0.38400   0.00000  Uiso   1.00
C74    C     0.48801   0.16610   0.02410   0.00000  Uiso   1.00
C75    C     0.48805   0.16735   0.47584   0.00000  Uiso   1.00
C76    C     0.62402   0.16665   0.25001   0.00000  Uiso   1.00
C77    C     0.37604   0.16669   0.24999   0.00000  Uiso   1.00
C78    C     0.37778   0.12835   0.17594   0.00000  Uiso   1.00
C79    C     0.62237   0.20537   0.32389   0.00000  Uiso   1.00
C80    C     0.62212   0.12800   0.17610   0.00000  Uiso   1.00
C81    C     0.49935   0.16666   0.16387   0.00000  Uiso   1.00
C82    C     0.37803   0.20495   0.32407   0.00000  Uiso   1.00
C83    C     0.49943   0.16668   0.33613   0.00000  Uiso   1.00
C84    C     0.52533   0.02395   0.27847   0.00000  Uiso   1.00
C85    C     0.47467   0.30938   0.22152   0.00000  Uiso   1.00
C86    C     0.47467   0.02400   0.22153   0.00000  Uiso   1.00
C87    C     0.52533   0.30933   0.27848   0.00000  Uiso   1.00
C88    C     0.35497   0.14711   0.21363   0.00000  Uiso   1.00
H89    H     0.54559   0.04209   0.30123   0.00000  Uiso   1.00
H90    H     0.46933   0.09925   0.38733   0.00000  Uiso   1.00
H91    H     0.52028   0.23490   0.39148   0.00000  Uiso   1.00
H92    H     0.51967   0.09823   0.10861   0.00000  Uiso   1.00
H93    H     0.45442   0.29124   0.19875   0.00000  Uiso   1.00
H94    H     0.45441   0.04218   0.19876   0.00000  Uiso   1.00
H95    H     0.54558   0.29115   0.30125   0.00000  Uiso   1.00
H96    H     0.46267   0.23377   0.03152   0.00000  Uiso   1.00
H97    H     0.46227   0.09990   0.46828   0.00000  Uiso   1.00
H98    H     0.51477   0.23479   0.47242   0.00000  Uiso   1.00
H99    H     0.51426   0.09841   0.02766   0.00000  Uiso   1.00
H100   H     0.46964   0.23434   0.11252   0.00000  Uiso   1.00
N101   N     0.50000   0.28573   0.25000   0.00000  Uiso   1.00
N102   N     0.50000   0.04760   0.25000   0.00000  Uiso   1.00
N103   N     0.39596   0.11344   0.14597   0.00000  Uiso   1.00
N104   N     0.60430   0.22055   0.35378   0.00000  Uiso   1.00
N105   N     0.60394   0.11285   0.14618   0.00000  Uiso   1.00
N106   N     0.39631   0.21981   0.35407   0.00000  Uiso   1.00
O107   O     0.43892   0.20487   0.24999   0.00000  Uiso   1.00
O108   O     0.56108   0.12846   0.25001   0.00000  Uiso   1.00
O109   O     0.56108   0.20487   0.25000   0.00000  Uiso   1.00
O110   O     0.43892   0.12846   0.24999   0.00000  Uiso   1.00
O111   O     0.50000   0.20489   0.18453   0.00000  Uiso   1.00
O112   O     0.50000   0.12845   0.31547   0.00000  Uiso   1.00
O113   O     0.50000   0.20489   0.31547   0.00000  Uiso   1.00
O114   O     0.50000   0.12845   0.18453   0.00000  Uiso   1.00
Zn115  Zn    0.50000   0.21771   0.25000   0.00000  Uiso   1.00
Zn116  Zn    0.50000   0.11563   0.25000   0.00000  Uiso   1.00
C117   C     0.75353   0.16668   0.24999   0.00000  Uiso   1.00
C118   C     0.97845   0.18630   0.28633   0.00000  Uiso   1.00
C119   C     0.97832   0.14702   0.21368   0.00000  Uiso   1.00
C120   C     0.68843   0.18623   0.28637   0.00000  Uiso   1.00
C121   C     0.80864   0.20423   0.04823   0.00000  Uiso   1.00
C122   C     0.80846   0.12932   0.45164   0.00000  Uiso   1.00
C123   C     0.83734   0.20548   0.45395   0.00000  Uiso   1.00
C124   C     0.83700   0.12781   0.04606   0.00000  Uiso   1.00
C125   C     0.81277   0.20459   0.09415   0.00000  Uiso   1.00
C126   C     0.81265   0.12891   0.40575   0.00000  Uiso   1.00
C127   C     0.84094   0.20533   0.40804   0.00000  Uiso   1.00
C128   C     0.91316   0.16666   0.25001   0.00000  Uiso   1.00
C129   C     0.84055   0.12791   0.09199   0.00000  Uiso   1.00
C130   C     0.82908   0.16656   0.11598   0.00000  Uiso   1.00
C131   C     0.82920   0.16679   0.38400   0.00000  Uiso   1.00
C132   C     0.82135   0.16610   0.02410   0.00000  Uiso   1.00
C133   C     0.82139   0.16735   0.47584   0.00000  Uiso   1.00
C134   C     0.95735   0.16665   0.25001   0.00000  Uiso   1.00
C135   C     0.70937   0.16669   0.24999   0.00000  Uiso   1.00
C136   C     0.71112   0.12835   0.17594   0.00000  Uiso   1.00
C137   C     0.95570   0.20537   0.32389   0.00000  Uiso   1.00
C138   C     0.95545   0.12800   0.17610   0.00000  Uiso   1.00
C139   C     0.83269   0.16666   0.16387   0.00000  Uiso   1.00
C140   C     0.71137   0.20495   0.32407   0.00000  Uiso   1.00
C141   C     0.83276   0.16668   0.33613   0.00000  Uiso   1.00
C142   C     0.85866   0.02395   0.27847   0.00000  Uiso   1.00
C143   C     0.80801   0.30938   0.22152   0.00000  Uiso   1.00
C144   C     0.80800   0.02400   0.22153   0.00000  Uiso   1.00
C145   C     0.85866   0.30933   0.27848   0.00000  Uiso   1.00
C146   C     0.68830   0.14711   0.21363   0.00000  Uiso   1.00
H147   H     0.87892   0.04209   0.30123   0.00000  Uiso   1.00
H148   H     0.80267   0.09925   0.38733   0.00000  Uiso   1.00
H149   H     0.85361   0.23490   0.39148   0.00000  Uiso   1.00
H150   H     0.85301   0.09823   0.10861   0.00000  Uiso   1.00
H151   H     0.78775   0.29124   0.19875   0.00000  Uiso   1.00
H152   H     0.78775   0.04218   0.19876   0.00000  Uiso   1.00
H153   H     0.87891   0.29115   0.30125   0.00000  Uiso   1.00
H154   H     0.79601   0.23377   0.03152   0.00000  Uiso   1.00
H155   H     0.79561   0.09990   0.46828   0.00000  Uiso   1.00
H156   H     0.84811   0.23479   0.47242   0.00000  Uiso   1.00
H157   H     0.84759   0.09841   0.02766   0.00000  Uiso   1.00
H158   H     0.80297   0.23434   0.11252   0.00000  Uiso   1.00
N159   N     0.83333   0.28573   0.25000   0.00000  Uiso   1.00
N160   N     0.83333   0.04760   0.25000   0.00000  Uiso   1.00
N161   N     0.72929   0.11344   0.14597   0.00000  Uiso   1.00
N162   N     0.93763   0.22055   0.35378   0.00000  Uiso   1.00
N163   N     0.93728   0.11285   0.14618   0.00000  Uiso   1.00
N164   N     0.72964   0.21981   0.35407   0.00000  Uiso   1.00
O165   O     0.77226   0.20487   0.24999   0.00000  Uiso   1.00
O166   O     0.89441   0.12846   0.25001   0.00000  Uiso   1.00
O167   O     0.89441   0.20487   0.25000   0.00000  Uiso   1.00
O168   O     0.77226   0.12846   0.24999   0.00000  Uiso   1.00
O169   O     0.83333   0.20489   0.18453   0.00000  Uiso   1.00
O170   O     0.83334   0.12845   0.31547   0.00000  Uiso   1.00
O171   O     0.83334   0.20489   0.31547   0.00000  Uiso   1.00
O172   O     0.83333   0.12845   0.18453   0.00000  Uiso   1.00
Zn173  Zn    0.83333   0.21771   0.25000   0.00000  Uiso   1.00
Zn174  Zn    0.83333   0.11563   0.25000   0.00000  Uiso   1.00
C175   C     0.08686   0.50001   0.24999   0.00000  Uiso   1.00
C176   C     0.31178   0.51964   0.28633   0.00000  Uiso   1.00
C177   C     0.31166   0.48035   0.21368   0.00000  Uiso   1.00
C178   C     0.02176   0.51956   0.28637   0.00000  Uiso   1.00
C179   C     0.14197   0.53756   0.04823   0.00000  Uiso   1.00
C180   C     0.14179   0.46266   0.45164   0.00000  Uiso   1.00
C181   C     0.17067   0.53882   0.45395   0.00000  Uiso   1.00
C182   C     0.17033   0.46114   0.04606   0.00000  Uiso   1.00
C183   C     0.14611   0.53792   0.09415   0.00000  Uiso   1.00
C184   C     0.14598   0.46224   0.40575   0.00000  Uiso   1.00
C185   C     0.17427   0.53867   0.40804   0.00000  Uiso   1.00
C186   C     0.24649   0.49999   0.25001   0.00000  Uiso   1.00
C187   C     0.17389   0.46125   0.09199   0.00000  Uiso   1.00
C188   C     0.16241   0.49989   0.11598   0.00000  Uiso   1.00
C189   C     0.16254   0.50012   0.38400   0.00000  Uiso   1.00
C190   C     0.15468   0.49943   0.02410   0.00000  Uiso   1.00
C191   C     0.15472   0.50068   0.47584   0.00000  Uiso   1.00
C192   C     0.29068   0.49998   0.25001   0.00000  Uiso   1.00
C193   C     0.04270   0.50002   0.24999   0.00000  Uiso   1.00
C194   C     0.04445   0.46168   0.17594   0.00000  Uiso   1.00
C195   C     0.28904   0.53870   0.32389   0.00000  Uiso   1.00
C196   C     0.28878   0.46133   0.17610   0.00000  Uiso   1.00
C197   C     0.16602   0.49999   0.16387   0.00000  Uiso   1.00
C198   C     0.04470   0.53828   0.32407   0.00000  Uiso   1.00
C199   C     0.16609   0.50001   0.33613   0.00000  Uiso   1.00
C200   C     0.19200   0.35728   0.27847   0.00000  Uiso   1.00
C201   C     0.14134   0.64271   0.22152   0.00000  Uiso   1.00
C202   C     0.14134   0.35733   0.22153   0.00000  Uiso   1.00
C203   C     0.19199   0.64266   0.27848   0.00000  Uiso   1.00
C204   C     0.02164   0.48044   0.21363   0.00000  Uiso   1.00
H205   H     0.21226   0.37542   0.30123   0.00000  Uiso   1.00
H206   H     0.13600   0.43258   0.38733   0.00000  Uiso   1.00
H207   H     0.18694   0.56823   0.39148   0.00000  Uiso   1.00
H208   H     0.18634   0.43156   0.10861   0.00000  Uiso   1.00
H209   H     0.12109   0.62457   0.19875   0.00000  Uiso   1.00
H210   H     0.12108   0.37552   0.19876   0.00000  Uiso   1.00
H211   H     0.21225   0.62448   0.30125   0.00000  Uiso   1.00
H212   H     0.12934   0.56710   0.03152   0.00000  Uiso   1.00
H213   H     0.12894   0.43323   0.46828   0.00000  Uiso   1.00
H214   H     0.18144   0.56812   0.47242   0.00000  Uiso   1.00
H215   H     0.18093   0.43175   0.02766   0.00000  Uiso   1.00
H216   H     0.13631   0.56767   0.11252   0.00000  Uiso   1.00
N217   N     0.16667   0.61907   0.25000   0.00000  Uiso   1.00
N218   N     0.16667   0.38093   0.25000   0.00000  Uiso   1.00
N219   N     0.06263   0.44678   0.14597   0.00000  Uiso   1.00
N220   N     0.27096   0.55388   0.35378   0.00000  Uiso   1.00
N221   N     0.27061   0.44618   0.14618   0.00000  Uiso   1.00
N222   N     0.06298   0.55314   0.35407   0.00000  Uiso   1.00
O223   O     0.10559   0.53821   0.24999   0.00000  Uiso   1.00
O224   O     0.22774   0.46179   0.25001   0.00000  Uiso   1.00
O225   O     0.22774   0.53821   0.25000   0.00000  Uiso   1.00
O226   O     0.10559   0.46179   0.24999   0.00000  Uiso   1.00
O227   O     0.16666   0.53822   0.18453   0.00000  Uiso   1.00
O228   O     0.16667   0.46178   0.31547   0.00000  Uiso   1.00
O229   O     0.16667   0.53822   0.31547   0.00000  Uiso   1.00
O230   O     0.16666   0.46178   0.18453   0.00000  Uiso   1.00
Zn231  Zn    0.16667   0.55104   0.25000   0.00000  Uiso   1.00
Zn232  Zn    0.16667   0.44896   0.25000   0.00000  Uiso   1.00
C233   C     0.42020   0.50001   0.24999   0.00000  Uiso   1.00
C234   C     0.64512   0.51964   0.28633   0.00000  Uiso   1.00
C235   C     0.64499   0.48035   0.21368   0.00000  Uiso   1.00
C236   C     0.35509   0.51956   0.28637   0.00000  Uiso   1.00
C237   C     0.47530   0.53756   0.04823   0.00000  Uiso   1.00
C238   C     0.47512   0.46266   0.45164   0.00000  Uiso   1.00
C239   C     0.50400   0.53882   0.45395   0.00000  Uiso   1.00
C240   C     0.50367   0.46114   0.04606   0.00000  Uiso   1.00
C241   C     0.47944   0.53792   0.09415   0.00000  Uiso   1.00
C242   C     0.47931   0.46224   0.40575   0.00000  Uiso   1.00
C243   C     0.50761   0.53867   0.40804   0.00000  Uiso   1.00
C244   C     0.57982   0.49999   0.25001   0.00000  Uiso   1.00
C245   C     0.50722   0.46125   0.09199   0.00000  Uiso   1.00
C246   C     0.49574   0.49989   0.11598   0.00000  Uiso   1.00
C247   C     0.49587   0.50012   0.38400   0.00000  Uiso   1.00
C248   C     0.48801   0.49943   0.02410   0.00000  Uiso   1.00
C249   C     0.48805   0.50068   0.47584   0.00000  Uiso   1.00
C250   C     0.62402   0.49998   0.25001   0.00000  Uiso   1.00
C251   C     0.37604   0.50002   0.24999   0.00000  Uiso   1.00
C252   C     0.37778   0.46168   0.17594   0.00000  Uiso   1.00
C253   C     0.62237   0.53870   0.32389   0.00000  Uiso   1.00
C254   C     0.62212   0.46133   0.17610   0.00000  Uiso   1.00
C255   C     0.49935   0.49999   0.16387   0.00000  Uiso   1.00
C256   C     0.37803   0.53828   0.32407   0.00000  Uiso   1.00
C257   C     0.49943   0.50001   0.33613   0.00000  Uiso   1.00
C258   C     0.52533   0.35728   0.27847   0.00000  Uiso   1.00
C259   C     0.47467   0.64271   0.22152   0.00000  Uiso   1.00
C260   C     0.47467   0.35733   0.22153   0.00000  Uiso   1.00
C261   C     0.52533   0.64266   0.27848   0.00000  Uiso   1.00
C262   C     0.35497   0.48044   0.21363   0.00000  Uiso   1.00
H263   H     0.54559   0.37542   0.30123   0.00000  Uiso   1.00
H264   H     0.46933   0.43258   0.38733   0.00000  Uiso   1.00
H265   H     0.52028   0.56823   0.39148   0.00000  Uiso   1.00
H266   H     0.51967   0.43156   0.10861   0.00000  Uiso   1.00
H267   H     0.45442   0.62457   0.19875   0.00000  Uiso   1.00
H268   H     0.45441   0.37552   0.19876   0.00000  Uiso   1.00
H269   H     0.54558   0.62448   0.30125   0.00000  Uiso   1.00
H270   H     0.46267   0.56710   0.03152   0.00000  Uiso   1.00
H271   H     0.46227   0.43323   0.46828   0.00000  Uiso   1.00
H272   H     0.51477   0.56812   0.47242   0.00000  Uiso   1.00
H273   H     0.51426   0.43175   0.02766   0.00000  Uiso   1.00
H274   H     0.46964   0.56767   0.11252   0.00000  Uiso   1.00
N275   N     0.50000   0.61907   0.25000   0.00000  Uiso   1.00
N276   N     0.50000   0.38093   0.25000   0.00000  Uiso   1.00
N277   N     0.39596   0.44678   0.14597   0.00000  Uiso   1.00
N278   N     0.60430   0.55388   0.35378   0.00000  Uiso   1.00
N279   N     0.60394   0.44618   0.14618   0.00000  Uiso   1.00
N280   N     0.39631   0.55314   0.35407   0.00000  Uiso   1.00
O281   O     0.43892   0.53821   0.24999   0.00000  Uiso   1.00
O282   O     0.56108   0.46179   0.25001   0.00000  Uiso   1.00
O283   O     0.56108   0.53821   0.25000   0.00000  Uiso   1.00
O284   O     0.43892   0.46179   0.24999   0.00000  Uiso   1.00
O285   O     0.50000   0.53822   0.18453   0.00000  Uiso   1.00
O286   O     0.50000   0.46178   0.31547   0.00000  Uiso   1.00
O287   O     0.50000   0.53822   0.31547   0.00000  Uiso   1.00
O288   O     0.50000   0.46178   0.18453   0.00000  Uiso   1.00
Zn289  Zn    0.50000   0.55104   0.25000   0.00000  Uiso   1.00
Zn290  Zn    0.50000   0.44896   0.25000   0.00000  Uiso   1.00
C291   C     0.75353   0.50001   0.24999   0.00000  Uiso   1.00
C292   C     0.97845   0.51964   0.28633   0.00000  Uiso   1.00
C293   C     0.97832   0.48035   0.21368   0.00000  Uiso   1.00
C294   C     0.68843   0.51956   0.28637   0.00000  Uiso   1.00
C295   C     0.80864   0.53756   0.04823   0.00000  Uiso   1.00
C296   C     0.80846   0.46266   0.45164   0.00000  Uiso   1.00
C297   C     0.83734   0.53882   0.45395   0.00000  Uiso   1.00
C298   C     0.83700   0.46114   0.04606   0.00000  Uiso   1.00
C299   C     0.81277   0.53792   0.09415   0.00000  Uiso   1.00
C300   C     0.81265   0.46224   0.40575   0.00000  Uiso   1.00
C301   C     0.84094   0.53867   0.40804   0.00000  Uiso   1.00
C302   C     0.91316   0.49999   0.25001   0.00000  Uiso   1.00
C303   C     0.84055   0.46125   0.09199   0.00000  Uiso   1.00
C304   C     0.82908   0.49989   0.11598   0.00000  Uiso   1.00
C305   C     0.82920   0.50012   0.38400   0.00000  Uiso   1.00
C306   C     0.82135   0.49943   0.02410   0.00000  Uiso   1.00
C307   C     0.82139   0.50068   0.47584   0.00000  Uiso   1.00
C308   C     0.95735   0.49998   0.25001   0.00000  Uiso   1.00
C309   C     0.70937   0.50002   0.24999   0.00000  Uiso   1.00
C310   C     0.71112   0.46168   0.17594   0.00000  Uiso   1.00
C311   C     0.95570   0.53870   0.32389   0.00000  Uiso   1.00
C312   C     0.95545   0.46133   0.17610   0.00000  Uiso   1.00
C313   C     0.83269   0.49999   0.16387   0.00000  Uiso   1.00
C314   C     0.71137   0.53828   0.32407   0.00000  Uiso   1.00
C315   C     0.83276   0.50001   0.33613   0.00000  Uiso   1.00
C316   C     0.85866   0.35728   0.27847   0.00000  Uiso   1.00
C317   C     0.80801   0.64271   0.22152   0.00000  Uiso   1.00
C318   C     0.80800   0.35733   0.22153   0.00000  Uiso   1.00
C319   C     0.85866   0.64266   0.27848   0.00000  Uiso   1.00
C320   C     0.68830   0.48044   0.21363   0.00000  Uiso   1.00
H321   H     0.87892   0.37542   0.30123   0.00000  Uiso   1.00
H322   H     0.80267   0.43258   0.38733   0.00000  Uiso   1.00
H323   H     0.85361   0.56823   0.39148   0.00000  Uiso   1.00
H324   H     0.85301   0.43156   0.10861   0.00000  Uiso   1.00
H325   H     0.78775   0.62457   0.19875   0.00000  Uiso   1.00
H326   H     0.78775   0.37552   0.19876   0.00000  Uiso   1.00
H327   H     0.87891   0.62448   0.30125   0.00000  Uiso   1.00
H328   H     0.79601   0.56710   0.03152   0.00000  Uiso   1.00
H329   H     0.79561   0.43323   0.46828   0.00000  Uiso   1.00
H330   H     0.84811   0.56812   0.47242   0.00000  Uiso   1.00
H331   H     0.84759   0.43175   0.02766   0.00000  Uiso   1.00
H332   H     0.80297   0.56767   0.11252   0.00000  Uiso   1.00
N333   N     0.83333   0.61907   0.25000   0.00000  Uiso   1.00
N334   N     0.83333   0.38093   0.25000   0.00000  Uiso   1.00
N335   N     0.72929   0.44678   0.14597   0.00000  Uiso   1.00
N336   N     0.93763   0.55388   0.35378   0.00000  Uiso   1.00
N337   N     0.93728   0.44618   0.14618   0.00000  Uiso   1.00
N338   N     0.72964   0.55314   0.35407   0.00000  Uiso   1.00
O339   O     0.77226   0.53821   0.24999   0.00000  Uiso   1.00
O340   O     0.89441   0.46179   0.25001   0.00000  Uiso   1.00
O341   O     0.89441   0.53821   0.25000   0.00000  Uiso   1.00
O342   O     0.77226   0.46179   0.24999   0.00000  Uiso   1.00
O343   O     0.83333   0.53822   0.18453   0.00000  Uiso   1.00
O344   O     0.83334   0.46178   0.31547   0.00000  Uiso   1.00
O345   O     0.83334   0.53822   0.31547   0.00000  Uiso   1.00
O346   O     0.83333   0.46178   0.18453   0.00000  Uiso   1.00
Zn347  Zn    0.83333   0.55104   0.25000   0.00000  Uiso   1.00
Zn348  Zn    0.83333   0.44896   0.25000   0.00000  Uiso   1.00
C349   C     0.08686   0.83334   0.24999   0.00000  Uiso   1.00
C350   C     0.31178   0.85297   0.28633   0.00000  Uiso   1.00
C351   C     0.31166   0.81369   0.21368   0.00000  Uiso   1.00
C352   C     0.02176   0.85290   0.28637   0.00000  Uiso   1.00
C353   C     0.14197   0.87089   0.04823   0.00000  Uiso   1.00
C354   C     0.14179   0.79599   0.45164   0.00000  Uiso   1.00
C355   C     0.17067   0.87215   0.45395   0.00000  Uiso   1.00
C356   C     0.17033   0.79448   0.04606   0.00000  Uiso   1.00
C357   C     0.14611   0.87125   0.09415   0.00000  Uiso   1.00
C358   C     0.14598   0.79558   0.40575   0.00000  Uiso   1.00
C359   C     0.17427   0.87200   0.40804   0.00000  Uiso   1.00
C360   C     0.24649   0.83332   0.25001   0.00000  Uiso   1.00
C361   C     0.17389   0.79458   0.09199   0.00000  Uiso   1.00
C362   C     0.16241   0.83323   0.11598   0.00000  Uiso   1.00
C363   C     0.16254   0.83346   0.38400   0.00000  Uiso   1.00
C364   C     0.15468   0.83277   0.02410   0.00000  Uiso   1.00
C365   C     0.15472   0.83401   0.47584   0.00000  Uiso   1.00
C366   C     0.29068   0.83331   0.25001   0.00000  Uiso   1.00
C367   C     0.04270   0.83335   0.24999   0.00000  Uiso   1.00
C368   C     0.04445   0.79501   0.17594   0.00000  Uiso   1.00
C369   C     0.28904   0.87203   0.32389   0.00000  Uiso   1.00
C370   C     0.28878   0.79467   0.17610   0.00000  Uiso   1.00
C371   C     0.16602   0.83333   0.16387   0.00000  Uiso   1.00
C372   C     0.04470   0.87161   0.32407   0.00000  Uiso   1.00
C373   C     0.16609   0.83334   0.33613   0.00000  Uiso   1.00
C374   C     0.19200   0.69062   0.27847   0.00000  Uiso   1.00
C375   C     0.14134   0.97605   0.22152   0.00000  Uiso   1.00
C376   C     0.14134   0.69067   0.22153   0.00000  Uiso   1.00
C377   C     0.19199   0.97600   0.27848   0.00000  Uiso   1.00
C378   C     0.02164   0.81378   0.21363   0.00000  Uiso   1.00
H379   H     0.21226   0.70876   0.30123   0.00000  Uiso   1.00
H380   H     0.13600   0.76591   0.38733   0.00000  Uiso   1.00
H381   H     0.18694   0.90156   0.39148   0.00000  Uiso   1.00
H382   H     0.18634   0.76490   0.10861   0.00000  Uiso   1.00
H383   H     0.12109   0.95790   0.19875   0.00000  Uiso   1.00
H384   H     0.12108   0.70885   0.19876   0.00000  Uiso   1.00
H385   H     0.21225   0.95782   0.30125   0.00000  Uiso   1.00
H386   H     0.12934   0.90044   0.03152   0.00000  Uiso   1.00
H387   H     0.12894   0.76657   0.46828   0.00000  Uiso   1.00
H388   H     0.18144   0.90145   0.47242   0.00000  Uiso   1.00
H389   H     0.18093   0.76508   0.02766   0.00000  Uiso   1.00
H390   H     0.13631   0.90100   0.11252   0.00000  Uiso   1.00
N391   N     0.16667   0.95240   0.25000   0.00000  Uiso   1.00
N392   N     0.16667   0.71427   0.25000   0.00000  Uiso   1.00
N393   N     0.06263   0.78011   0.14597   0.00000  Uiso   1.00
N394   N     0.27096   0.88722   0.35378   0.00000  Uiso   1.00
N395   N     0.27061   0.77952   0.14618   0.00000  Uiso   1.00
N396   N     0.06298   0.88648   0.35407   0.00000  Uiso   1.00
O397   O     0.10559   0.87154   0.24999   0.00000  Uiso   1.00
O398   O     0.22774   0.79513   0.25001   0.00000  Uiso   1.00
O399   O     0.22774   0.87154   0.25000   0.00000  Uiso   1.00
O400   O     0.10559   0.79513   0.24999   0.00000  Uiso   1.00
O401   O     0.16666   0.87155   0.18453   0.00000  Uiso   1.00
O402   O     0.16667   0.79511   0.31547   0.00000  Uiso   1.00
O403   O     0.16667   0.87155   0.31547   0.00000  Uiso   1.00
O404   O     0.16666   0.79511   0.18453   0.00000  Uiso   1.00
Zn405  Zn    0.16667   0.88437   0.25000   0.00000  Uiso   1.00
Zn406  Zn    0.16667   0.78229   0.25000   0.00000  Uiso   1.00
C407   C     0.42020   0.83334   0.24999   0.00000  Uiso   1.00
C408   C     0.64512   0.85297   0.28633   0.00000  Uiso   1.00
C409   C     0.64499   0.81369   0.21368   0.00000  Uiso   1.00
C410   C     0.35509   0.85290   0.28637   0.00000  Uiso   1.00
C411   C     0.47530   0.87089   0.04823   0.00000  Uiso   1.00
C412   C     0.47512   0.79599   0.45164   0.00000  Uiso   1.00
C413   C     0.50400   0.87215   0.45395   0.00000  Uiso   1.00
C414   C     0.50367   0.79448   0.04606   0.00000  Uiso   1.00
C415   C     0.47944   0.87125   0.09415   0.00000  Uiso   1.00
C416   C     0.47931   0.79558   0.40575   0.00000  Uiso   1.00
C417   C     0.50761   0.87200   0.40804   0.00000  Uiso   1.00
C418   C     0.57982   0.83332   0.25001   0.00000  Uiso   1.00
C419   C     0.50722   0.79458   0.09199   0.00000  Uiso   1.00
C420   C     0.49574   0.83323   0.11598   0.00000  Uiso   1.00
C421   C     0.49587   0.83346   0.38400   0.00000  Uiso   1.00
C422   C     0.48801   0.83277   0.02410   0.00000  Uiso   1.00
C423   C     0.48805   0.83401   0.47584   0.00000  Uiso   1.00
C424   C     0.62402   0.83331   0.25001   0.00000  Uiso   1.00
C425   C     0.37604   0.83335   0.24999   0.00000  Uiso   1.00
C426   C     0.37778   0.79501   0.17594   0.00000  Uiso   1.00
C427   C     0.62237   0.87203   0.32389   0.00000  Uiso   1.00
C428   C     0.62212   0.79467   0.17610   0.00000  Uiso   1.00
C429   C     0.49935   0.83333   0.16387   0.00000  Uiso   1.00
C430   C     0.37803   0.87161   0.32407   0.00000  Uiso   1.00
C431   C     0.49943   0.83334   0.33613   0.00000  Uiso   1.00
C432   C     0.52533   0.69062   0.27847   0.00000  Uiso   1.00
C433   C     0.47467   0.97605   0.22152   0.00000  Uiso   1.00
C434   C     0.47467   0.69067   0.22153   0.00000  Uiso   1.00
C435   C     0.52533   0.97600   0.27848   0.00000  Uiso   1.00
C436   C     0.35497   0.81378   0.21363   0.00000  Uiso   1.00
H437   H     0.54559   0.70876   0.30123   0.00000  Uiso   1.00
H438   H     0.46933   0.76591   0.38733   0.00000  Uiso   1.00
H439   H     0.52028   0.90156   0.39148   0.00000  Uiso   1.00
H440   H     0.51967   0.76490   0.10861   0.00000  Uiso   1.00
H441   H     0.45442   0.95790   0.19875   0.00000  Uiso   1.00
H442   H     0.45441   0.70885   0.19876   0.00000  Uiso   1.00
H443   H     0.54558   0.95782   0.30125   0.00000  Uiso   1.00
H444   H     0.46267   0.90044   0.03152   0.00000  Uiso   1.00
H445   H     0.46227   0.76657   0.46828   0.00000  Uiso   1.00
H446   H     0.51477   0.90145   0.47242   0.00000  Uiso   1.00
H447   H     0.51426   0.76508   0.02766   0.00000  Uiso   1.00
H448   H     0.46964   0.90100   0.11252   0.00000  Uiso   1.00
N449   N     0.50000   0.95240   0.25000   0.00000  Uiso   1.00
N450   N     0.50000   0.71427   0.25000   0.00000  Uiso   1.00
N451   N     0.39596   0.78011   0.14597   0.00000  Uiso   1.00
N452   N     0.60430   0.88722   0.35378   0.00000  Uiso   1.00
N453   N     0.60394   0.77952   0.14618   0.00000  Uiso   1.00
N454   N     0.39631   0.88648   0.35407   0.00000  Uiso   1.00
O455   O     0.43892   0.87154   0.24999   0.00000  Uiso   1.00
O456   O     0.56108   0.79513   0.25001   0.00000  Uiso   1.00
O457   O     0.56108   0.87154   0.25000   0.00000  Uiso   1.00
O458   O     0.43892   0.79513   0.24999   0.00000  Uiso   1.00
O459   O     0.50000   0.87155   0.18453   0.00000  Uiso   1.00
O460   O     0.50000   0.79511   0.31547   0.00000  Uiso   1.00
O461   O     0.50000   0.87155   0.31547   0.00000  Uiso   1.00
O462   O     0.50000   0.79511   0.18453   0.00000  Uiso   1.00
Zn463  Zn    0.50000   0.88437   0.25000   0.00000  Uiso   1.00
Zn464  Zn    0.50000   0.78229   0.25000   0.00000  Uiso   1.00
C465   C     0.75353   0.83334   0.24999   0.00000  Uiso   1.00
C466   C     0.97845   0.85297   0.28633   0.00000  Uiso   1.00
C467   C     0.97832   0.81369   0.21368   0.00000  Uiso   1.00
C468   C     0.68843   0.85290   0.28637   0.00000  Uiso   1.00
C469   C     0.80864   0.87089   0.04823   0.00000  Uiso   1.00
C470   C     0.80846   0.79599   0.45164   0.00000  Uiso   1.00
C471   C     0.83734   0.87215   0.45395   0.00000  Uiso   1.00
C472   C     0.83700   0.79448   0.04606   0.00000  Uiso   1.00
C473   C     0.81277   0.87125   0.09415   0.00000  Uiso   1.00
C474   C     0.81265   0.79558   0.40575   0.00000  Uiso   1.00
C475   C     0.84094   0.87200   0.40804   0.00000  Uiso   1.00
C476   C     0.91316   0.83332   0.25001   0.00000  Uiso   1.00
C477   C     0.84055   0.79458   0.09199   0.00000  Uiso   1.00
C478   C     0.82908   0.83323   0.11598   0.00000  Uiso   1.00
C479   C     0.82920   0.83346   0.38400   0.00000  Uiso   1.00
C480   C     0.82135   0.83277   0.02410   0.00000  Uiso   1.00
C481   C     0.82139   0.83401   0.47584   0.00000  Uiso   1.00
C482   C     0.95735   0.83331   0.25001   0.00000  Uiso   1.00
C483   C     0.70937   0.83335   0.24999   0.00000  Uiso   1.00
C484   C     0.71112   0.79501   0.17594   0.00000  Uiso   1.00
C485   C     0.95570   0.87203   0.32389   0.00000  Uiso   1.00
C486   C     0.95545   0.79467   0.17610   0.00000  Uiso   1.00
C487   C     0.83269   0.83333   0.16387   0.00000  Uiso   1.00
C488   C     0.71137   0.87161   0.32407   0.00000  Uiso   1.00
C489   C     0.83276   0.83334   0.33613   0.00000  Uiso   1.00
C490   C     0.85866   0.69062   0.27847   0.00000  Uiso   1.00
C491   C     0.80801   0.97605   0.22152   0.00000  Uiso   1.00
C492   C     0.80800   0.69067   0.22153   0.00000  Uiso   1.00
C493   C     0.85866   0.97600   0.27848   0.00000  Uiso   1.00
C494   C     0.68830   0.81378   0.21363   0.00000  Uiso   1.00
H495   H     0.87892   0.70876   0.30123   0.00000  Uiso   1.00
H496   H     0.80267   0.76591   0.38733   0.00000  Uiso   1.00
H497   H     0.85361   0.90156   0.39148   0.00000  Uiso   1.00
H498   H     0.85301   0.76490   0.10861   0.00000  Uiso   1.00
H499   H     0.78775   0.95790   0.19875   0.00000  Uiso   1.00
H500   H     0.78775   0.70885   0.19876   0.00000  Uiso   1.00
H501   H     0.87891   0.95782   0.30125   0.00000  Uiso   1.00
H502   H     0.79601   0.90044   0.03152   0.00000  Uiso   1.00
H503   H     0.79561   0.76657   0.46828   0.00000  Uiso   1.00
H504   H     0.84811   0.90145   0.47242   0.00000  Uiso   1.00
H505   H     0.84759   0.76508   0.02766   0.00000  Uiso   1.00
H506   H     0.80297   0.90100   0.11252   0.00000  Uiso   1.00
N507   N     0.83333   0.95240   0.25000   0.00000  Uiso   1.00
N508   N     0.83333   0.71427   0.25000   0.00000  Uiso   1.00
N509   N     0.72929   0.78011   0.14597   0.00000  Uiso   1.00
N510   N     0.93763   0.88722   0.35378   0.00000  Uiso   1.00
N511   N     0.93728   0.77952   0.14618   0.00000  Uiso   1.00
N512   N     0.72964   0.88648   0.35407   0.00000  Uiso   1.00
O513   O     0.77226   0.87154   0.24999   0.00000  Uiso   1.00
O514   O     0.89441   0.79513   0.25001   0.00000  Uiso   1.00
O515   O     0.89441   0.87154   0.25000   0.00000  Uiso   1.00
O516   O     0.77226   0.79513   0.24999   0.00000  Uiso   1.00
O517   O     0.83333   0.87155   0.18453   0.00000  Uiso   1.00
O518   O     0.83334   0.79511   0.31547   0.00000  Uiso   1.00
O519   O     0.83334   0.87155   0.31547   0.00000  Uiso   1.00
O520   O     0.83333   0.79511   0.18453   0.00000  Uiso   1.00
Zn521  Zn    0.83333   0.88437   0.25000   0.00000  Uiso   1.00
Zn522  Zn    0.83333   0.78229   0.25000   0.00000  Uiso   1.00
C523   C     0.08686   0.16668   0.74999   0.00000  Uiso   1.00
C524   C     0.31178   0.18630   0.78633   0.00000  Uiso   1.00
C525   C     0.31166   0.14702   0.71368   0.00000  Uiso   1.00
C526   C     0.02176   0.18623   0.78637   0.00000  Uiso   1.00
C527   C     0.14197   0.20423   0.54823   0.00000  Uiso   1.00
C528   C     0.14179   0.12932   0.95164   0.00000  Uiso   1.00
C529   C     0.17067   0.20548   0.95395   0.00000  Uiso   1.00
C530   C     0.17033   0.12781   0.54606   0.00000  Uiso   1.00
C531   C     0.14611   0.20459   0.59415   0.00000  Uiso   1.00
C532   C     0.14598   0.12891   0.90575   0.00000  Uiso   1.00
C533   C     0.17427   0.20533   0.90804   0.00000  Uiso   1.00
C534   C     0.24649   0.16666   0.75001   0.00000  Uiso   1.00
C535   C     0.17389   0.12791   0.59199   0.00000  Uiso   1.00
C536   C     0.16241   0.16656   0.61598   0.00000  Uiso   1.00
C537   C     0.16254   0.16679   0.88400   0.00000  Uiso   1.00
C538   C     0.15468   0.16610   0.52410   0.00000  Uiso   1.00
C539   C     0.15472   0.16735   0.97584   0.00000  Uiso   1.00
C540   C     0.29068   0.16665   0.75001   0.00000  Uiso   1.00
C541   C     0.04270   0.16669   0.74999   0.00000  Uiso   1.00
C542   C     0.04445   0.12835   0.67594   0.00000  Uiso   1.00
C543   C     0.28904   0.20537   0.82389   0.00000  Uiso   1.00
C544   C     0.28878   0.12800   0.67610   0.00000  Uiso   1.00
C545   C     0.16602   0.16666   0.66387   0.00000  Uiso   1.00
C546   C     0.04470   0.20495   0.82407   0.00000  Uiso   1.00
C547   C     0.16609   0.16668   0.83613   0.00000  Uiso   1.00
C548   C     0.19200   0.02395   0.77847   0.00000  Uiso   1.00
C549   C     0.14134   0.30938   0.72152   0.00000  Uiso   1.00
C550   C     0.14134   0.02400   0.72153   0.00000  Uiso   1.00
C551   C     0.19199   0.30933   0.77848   0.00000  Uiso   1.00
C552   C     0.02164   0.14711   0.71363   0.00000  Uiso   1.00
H553   H     0.21226   0.04209   0.80123   0.00000  Uiso   1.00
H554   H     0.13600   0.09925   0.88733   0.00000  Uiso   1.00
H555   H     0.18694   0.23490   0.89148   0.00000  Uiso   1.00
H556   H     0.18634   0.09823   0.60861   0.00000  Uiso   1.00
H557   H     0.12109   0.29124   0.69875   0.00000  Uiso   1.00
H558   H     0.12108   0.04218   0.69876   0.00000  Uiso   1.00
H559   H     0.21225   0.29115   0.80125   0.00000  Uiso   1.00
H560   H     0.12934   0.23377   0.53152   0.00000  Uiso   1.00
H561   H     0.12894   0.09990   0.96828   0.00000  Uiso   1.00
H562   H     0.18144   0.23479   0.97242   0.00000  Uiso   1.00
H563   H     0.18093   0.09841   0.52766   0.00000  Uiso   1.00
H564   H     0.13631   0.23434   0.61252   0.00000  Uiso   1.00
N565   N     0.16667   0.28573   0.75000   0.00000  Uiso   1.00
N566   N     0.16667   0.04760   0.75000   0.00000  Uiso   1.00
N567   N     0.06263   0.11344   0.64597   0.00000  Uiso   1.00
N568   N     0.27096   0.22055   0.85378   0.00000  Uiso   1.00
N569   N     0.27061   0.11285   0.64618   0.00000  Uiso   1.00
N570   N     0.06298   0.21981   0.85407   0.00000  Uiso   1.00
O571   O     0.10559   0.20487   0.74999   0.00000  Uiso   1.00
O572   O     0.22774   0.12846   0.75001   0.00000  Uiso   1.00
O573   O     0.22774   0.20487   0.75000   0.00000  Uiso   1.00
O574   O     0.10559   0.12846   0.74999   0.00000  Uiso   1.00
O575   O     0.16666   0.20489   0.68453   0.00000  Uiso   1.00
O576   O     0.16667   0.12845   0.81547   0.00000  Uiso   1.00
O577   O     0.16667   0.20489   0.81547   0.00000  Uiso   1.00
O578   O     0.16666   0.12845   0.68453   0.00000  Uiso   1.00
Zn579  Zn    0.16667   0.21771   0.75000   0.00000  Uiso   1.00
Zn580  Zn    0.16667   0.11563   0.75000   0.00000  Uiso   1.00
C581   C     0.42020   0.16668   0.74999   0.00000  Uiso   1.00
C582   C     0.64512   0.18630   0.78633   0.00000  Uiso   1.00
C583   C     0.64499   0.14702   0.71368   0.00000  Uiso   1.00
C584   C     0.35509   0.18623   0.78637   0.00000  Uiso   1.00
C585   C     0.47530   0.20423   0.54823   0.00000  Uiso   1.00
C586   C     0.47512   0.12932   0.95164   0.00000  Uiso   1.00
C587   C     0.50400   0.20548   0.95395   0.00000  Uiso   1.00
C588   C     0.50367   0.12781   0.54606   0.00000  Uiso   1.00
C589   C     0.47944   0.20459   0.59415   0.00000  Uiso   1.00
C590   C     0.47931   0.12891   0.90575   0.00000  Uiso   1.00
C591   C     0.50761   0.20533   0.90804   0.00000  Uiso   1.00
C592   C     0.57982   0.16666   0.75001   0.00000  Uiso   1.00
C593   C     0.50722   0.12791   0.59199   0.00000  Uiso   1.00
C594   C     0.49574   0.16656   0.61598   0.00000  Uiso   1.00
C595   C     0.49587   0.16679   0.88400   0.00000  Uiso   1.00
C596   C     0.48801   0.16610   0.52410   0.00000  Uiso   1.00
C597   C     0.48805   0.16735   0.97584   0.00000  Uiso   1.00
C598   C     0.62402   0.16665   0.75001   0.00000  Uiso   1.00
C599   C     0.37604   0.16669   0.74999   0.00000  Uiso   1.00
C600   C     0.37778   0.12835   0.67594   0.00000  Uiso   1.00
C601   C     0.62237   0.20537   0.82389   0.00000  Uiso   1.00
C602   C     0.62212   0.12800   0.67610   0.00000  Uiso   1.00
C603   C     0.49935   0.16666   0.66387   0.00000  Uiso   1.00
C604   C     0.37803   0.20495   0.82407   0.00000  Uiso   1.00
C605   C     0.49943   0.16668   0.83613   0.00000  Uiso   1.00
C606   C     0.52533   0.02395   0.77847   0.00000  Uiso   1.00
C607   C     0.47467   0.30938   0.72152   0.00000  Uiso   1.00
C608   C     0.47467   0.02400   0.72153   0.00000  Uiso   1.00
C609   C     0.52533   0.30933   0.77848   0.00000  Uiso   1.00
C610   C     0.35497   0.14711   0.71363   0.00000  Uiso   1.00
H611   H     0.54559   0.04209   0.80123   0.00000  Uiso   1.00
H612   H     0.46933   0.09925   0.88733   0.00000  Uiso   1.00
H613   H     0.52028   0.23490   0.89148   0.00000  Uiso   1.00
H614   H     0.51967   0.09823   0.60861   0.00000  Uiso   1.00
H615   H     0.45442   0.29124   0.69875   0.00000  Uiso   1.00
H616   H     0.45441   0.04218   0.69876   0.00000  Uiso   1.00
H617   H     0.54558   0.29115   0.80125   0.00000  Uiso   1.00
H618   H     0.46267   0.23377   0.53152   0.00000  Uiso   1.00
H619   H     0.46227   0.09990   0.96828   0.00000  Uiso   1.00
H620   H     0.51477   0.23479   0.97242   0.00000  Uiso   1.00
H621   H     0.51426   0.09841   0.52766   0.00000  Uiso   1.00
H622   H     0.46964   0.23434   0.61252   0.00000  Uiso   1.00
N623   N     0.50000   0.28573   0.75000   0.00000  Uiso   1.00
N624   N     0.50000   0.04760   0.75000   0.00000  Uiso   1.00
N625   N     0.39596   0.11344   0.64597   0.00000  Uiso   1.00
N626   N     0.60430   0.22055   0.85378   0.00000  Uiso   1.00
N627   N     0.60394   0.11285   0.64618   0.00000  Uiso   1.00
N628   N     0.39631   0.21981   0.85407   0.00000  Uiso   1.00
O629   O     0.43892   0.20487   0.74999   0.00000  Uiso   1.00
O630   O     0.56108   0.12846   0.75001   0.00000  Uiso   1.00
O631   O     0.56108   0.20487   0.75000   0.00000  Uiso   1.00
O632   O     0.43892   0.12846   0.74999   0.00000  Uiso   1.00
O633   O     0.50000   0.20489   0.68453   0.00000  Uiso   1.00
O634   O     0.50000   0.12845   0.81547   0.00000  Uiso   1.00
O635   O     0.50000   0.20489   0.81547   0.00000  Uiso   1.00
O636   O     0.50000   0.12845   0.68453   0.00000  Uiso   1.00
Zn637  Zn    0.50000   0.21771   0.75000   0.00000  Uiso   1.00
Zn638  Zn    0.50000   0.11563   0.75000   0.00000  Uiso   1.00
C639   C     0.75353   0.16668   0.74999   0.00000  Uiso   1.00
C640   C     0.97845   0.18630   0.78633   0.00000  Uiso   1.00
C641   C     0.97832   0.14702   0.71368   0.00000  Uiso   1.00
C642   C     0.68843   0.18623   0.78637   0.00000  Uiso   1.00
C643   C     0.80864   0.20423   0.54823   0.00000  Uiso   1.00
C644   C     0.80846   0.12932   0.95164   0.00000  Uiso   1.00
C645   C     0.83734   0.20548   0.95395   0.00000  Uiso   1.00
C646   C     0.83700   0.12781   0.54606   0.00000  Uiso   1.00
C647   C     0.81277   0.20459   0.59415   0.00000  Uiso   1.00
C648   C     0.81265   0.12891   0.90575   0.00000  Uiso   1.00
C649   C     0.84094   0.20533   0.90804   0.00000  Uiso   1.00
C650   C     0.91316   0.16666   0.75001   0.00000  Uiso   1.00
C651   C     0.84055   0.12791   0.59199   0.00000  Uiso   1.00
C652   C     0.82908   0.16656   0.61598   0.00000  Uiso   1.00
C653   C     0.82920   0.16679   0.88400   0.00000  Uiso   1.00
C654   C     0.82135   0.16610   0.52410   0.00000  Uiso   1.00
C655   C     0.82139   0.16735   0.97584   0.00000  Uiso   1.00
C656   C     0.95735   0.16665   0.75001   0.00000  Uiso   1.00
C657   C     0.70937   0.16669   0.74999   0.00000  Uiso   1.00
C658   C     0.71112   0.12835   0.67594   0.00000  Uiso   1.00
C659   C     0.95570   0.20537   0.82389   0.00000  Uiso   1.00
C660   C     0.95545   0.12800   0.67610   0.00000  Uiso   1.00
C661   C     0.83269   0.16666   0.66387   0.00000  Uiso   1.00
C662   C     0.71137   0.20495   0.82407   0.00000  Uiso   1.00
C663   C     0.83276   0.16668   0.83613   0.00000  Uiso   1.00
C664   C     0.85866   0.02395   0.77847   0.00000  Uiso   1.00
C665   C     0.80801   0.30938   0.72152   0.00000  Uiso   1.00
C666   C     0.80800   0.02400   0.72153   0.00000  Uiso   1.00
C667   C     0.85866   0.30933   0.77848   0.00000  Uiso   1.00
C668   C     0.68830   0.14711   0.71363   0.00000  Uiso   1.00
H669   H     0.87892   0.04209   0.80123   0.00000  Uiso   1.00
H670   H     0.80267   0.09925   0.88733   0.00000  Uiso   1.00
H671   H     0.85361   0.23490   0.89148   0.00000  Uiso   1.00
H672   H     0.85301   0.09823   0.60861   0.00000  Uiso   1.00
H673   H     0.78775   0.29124   0.69875   0.00000  Uiso   1.00
H674   H     0.78775   0.04218   0.69876   0.00000  Uiso   1.00
H675   H     0.87891   0.29115   0.80125   0.00000  Uiso   1.00
H676   H     0.79601   0.23377   0.53152   0.00000  Uiso   1.00
H677   H     0.79561   0.09990   0.96828   0.00000  Uiso   1.00
H678   H     0.84811   0.23479   0.97242   0.00000  Uiso   1.00
H679   H     0.84759   0.09841   0.52766   0.00000  Uiso   1.00
H680   H     0.80297   0.23434   0.61252   0.00000  Uiso   1.00
N681   N     0.83333   0.28573   0.75000   0.00000  Uiso   1.00
N682   N     0.83333   0.04760   0.75000   0.00000  Uiso   1.00
N683   N     0.72929   0.11344   0.64597   0.00000  Uiso   1.00
N684   N     0.93763   0.22055   0.85378   0.00000  Uiso   1.00
N685   N     0.93728   0.11285   0.64618   0.00000  Uiso   1.00
N686   N     0.72964   0.21981   0.85407   0.00000  Uiso   1.00
O687   O     0.77226   0.20487   0.74999   0.00000  Uiso   1.00
O688   O     0.89441   0.12846   0.75001   0.00000  Uiso   1.00
O689   O     0.89441   0.20487   0.75000   0.00000  Uiso   1.00
O690   O     0.77226   0.12846   0.74999   0.00000  Uiso   1.00
O691   O     0.83333   0.20489   0.68453   0.00000  Uiso   1.00
O692   O     0.83334   0.12845   0.81547   0.00000  Uiso   1.00
O693   O     0.83334   0.20489   0.81547   0.00000  Uiso   1.00
O694   O     0.83333   0.12845   0.68453   0.00000  Uiso   1.00
Zn695  Zn    0.83333   0.21771   0.75000   0.00000  Uiso   1.00
Zn696  Zn    0.83333   0.11563   0.75000   0.00000  Uiso   1.00
C697   C     0.08686   0.50001   0.74999   0.00000  Uiso   1.00
C698   C     0.31178   0.51964   0.78633   0.00000  Uiso   1.00
C699   C     0.31166   0.48035   0.71368   0.00000  Uiso   1.00
C700   C     0.02176   0.51956   0.78637   0.00000  Uiso   1.00
C701   C     0.14197   0.53756   0.54823   0.00000  Uiso   1.00
C702   C     0.14179   0.46266   0.95164   0.00000  Uiso   1.00
C703   C     0.17067   0.53882   0.95395   0.00000  Uiso   1.00
C704   C     0.17033   0.46114   0.54606   0.00000  Uiso   1.00
C705   C     0.14611   0.53792   0.59415   0.00000  Uiso   1.00
C706   C     0.14598   0.46224   0.90575   0.00000  Uiso   1.00
C707   C     0.17427   0.53867   0.90804   0.00000  Uiso   1.00
C708   C     0.24649   0.49999   0.75001   0.00000  Uiso   1.00
C709   C     0.17389   0.46125   0.59199   0.00000  Uiso   1.00
C710   C     0.16241   0.49989   0.61598   0.00000  Uiso   1.00
C711   C     0.16254   0.50012   0.88400   0.00000  Uiso   1.00
C712   C     0.15468   0.49943   0.52410   0.00000  Uiso   1.00
C713   C     0.15472   0.50068   0.97584   0.00000  Uiso   1.00
C714   C     0.29068   0.49998   0.75001   0.00000  Uiso   1.00
C715   C     0.04270   0.50002   0.74999   0.00000  Uiso   1.00
C716   C     0.04445   0.46168   0.67594   0.00000  Uiso   1.00
C717   C     0.28904   0.53870   0.82389   0.00000  Uiso   1.00
C718   C     0.28878   0.46133   0.67610   0.00000  Uiso   1.00
C719   C     0.16602   0.49999   0.66387   0.00000  Uiso   1.00
C720   C     0.04470   0.53828   0.82407   0.00000  Uiso   1.00
C721   C     0.16609   0.50001   0.83613   0.00000  Uiso   1.00
C722   C     0.19200   0.35728   0.77847   0.00000  Uiso   1.00
C723   C     0.14134   0.64271   0.72152   0.00000  Uiso   1.00
C724   C     0.14134   0.35733   0.72153   0.00000  Uiso   1.00
C725   C     0.19199   0.64266   0.77848   0.00000  Uiso   1.00
C726   C     0.02164   0.48044   0.71363   0.00000  Uiso   1.00
H727   H     0.21226   0.37542   0.80123   0.00000  Uiso   1.00
H728   H     0.13600   0.43258   0.88733   0.00000  Uiso   1.00
H729   H     0.18694   0.56823   0.89148   0.00000  Uiso   1.00
H730   H     0.18634   0.43156   0.60861   0.00000  Uiso   1.00
H731   H     0.12109   0.62457   0.69875   0.00000  Uiso   1.00
H732   H     0.12108   0.37552   0.69876   0.00000  Uiso   1.00
H733   H     0.21225   0.62448   0.80125   0.00000  Uiso   1.00
H734   H     0.12934   0.56710   0.53152   0.00000  Uiso   1.00
H735   H     0.12894   0.43323   0.96828   0.00000  Uiso   1.00
H736   H     0.18144   0.56812   0.97242   0.00000  Uiso   1.00
H737   H     0.18093   0.43175   0.52766   0.00000  Uiso   1.00
H738   H     0.13631   0.56767   0.61252   0.00000  Uiso   1.00
N739   N     0.16667   0.61907   0.75000   0.00000  Uiso   1.00
N740   N     0.16667   0.38093   0.75000   0.00000  Uiso   1.00
N741   N     0.06263   0.44678   0.64597   0.00000  Uiso   1.00
N742   N     0.27096   0.55388   0.85378   0.00000  Uiso   1.00
N743   N     0.27061   0.44618   0.64618   0.00000  Uiso   1.00
N744   N     0.06298   0.55314   0.85407   0.00000  Uiso   1.00
O745   O     0.10559   0.53821   0.74999   0.00000  Uiso   1.00
O746   O     0.22774   0.46179   0.75001   0.00000  Uiso   1.00
O747   O     0.22774   0.53821   0.75000   0.00000  Uiso   1.00
O748   O     0.10559   0.46179   0.74999   0.00000  Uiso   1.00
O749   O     0.16666   0.53822   0.68453   0.00000  Uiso   1.00
O750   O     0.16667   0.46178   0.81547   0.00000  Uiso   1.00
O751   O     0.16667   0.53822   0.81547   0.00000  Uiso   1.00
O752   O     0.16666   0.46178   0.68453   0.00000  Uiso   1.00
Zn753  Zn    0.16667   0.55104   0.75000   0.00000  Uiso   1.00
Zn754  Zn    0.16667   0.44896   0.75000   0.00000  Uiso   1.00
C755   C     0.42020   0.50001   0.74999   0.00000  Uiso   1.00
C756   C     0.64512   0.51964   0.78633   0.00000  Uiso   1.00
C757   C     0.64499   0.48035   0.71368   0.00000  Uiso   1.00
C758   C     0.35509   0.51956   0.78637   0.00000  Uiso   1.00
C759   C     0.47530   0.53756   0.54823   0.00000  Uiso   1.00
C760   C     0.47512   0.46266   0.95164   0.00000  Uiso   1.00
C761   C     0.50400   0.53882   0.95395   0.00000  Uiso   1.00
C762   C     0.50367   0.46114   0.54606   0.00000  Uiso   1.00
C763   C     0.47944   0.53792   0.59415   0.00000  Uiso   1.00
C764   C     0.47931   0.46224   0.90575   0.00000  Uiso   1.00
C765   C     0.50761   0.53867   0.90804   0.00000  Uiso   1.00
C766   C     0.57982   0.49999   0.75001   0.00000  Uiso   1.00
C767   C     0.50722   0.46125   0.59199   0.00000  Uiso   1.00
C768   C     0.49574   0.49989   0.61598   0.00000  Uiso   1.00
C769   C     0.49587   0.50012   0.88400   0.00000  Uiso   1.00
C770   C     0.48801   0.49943   0.52410   0.00000  Uiso   1.00
C771   C     0.48805   0.50068   0.97584   0.00000  Uiso   1.00
C772   C     0.62402   0.49998   0.75001   0.00000  Uiso   1.00
C773   C     0.37604   0.50002   0.74999   0.00000  Uiso   1.00
C774   C     0.37778   0.46168   0.67594   0.00000  Uiso   1.00
C775   C     0.62237   0.53870   0.82389   0.00000  Uiso   1.00
C776   C     0.62212   0.46133   0.67610   0.00000  Uiso   1.00
C777   C     0.49935   0.49999   0.66387   0.00000  Uiso   1.00
C778   C     0.37803   0.53828   0.82407   0.00000  Uiso   1.00
C779   C     0.49943   0.50001   0.83613   0.00000  Uiso   1.00
C780   C     0.52533   0.35728   0.77847   0.00000  Uiso   1.00
C781   C     0.47467   0.64271   0.72152   0.00000  Uiso   1.00
C782   C     0.47467   0.35733   0.72153   0.00000  Uiso   1.00
C783   C     0.52533   0.64266   0.77848   0.00000  Uiso   1.00
C784   C     0.35497   0.48044   0.71363   0.00000  Uiso   1.00
H785   H     0.54559   0.37542   0.80123   0.00000  Uiso   1.00
H786   H     0.46933   0.43258   0.88733   0.00000  Uiso   1.00
H787   H     0.52028   0.56823   0.89148   0.00000  Uiso   1.00
H788   H     0.51967   0.43156   0.60861   0.00000  Uiso   1.00
H789   H     0.45442   0.62457   0.69875   0.00000  Uiso   1.00
H790   H     0.45441   0.37552   0.69876   0.00000  Uiso   1.00
H791   H     0.54558   0.62448   0.80125   0.00000  Uiso   1.00
H792   H     0.46267   0.56710   0.53152   0.00000  Uiso   1.00
H793   H     0.46227   0.43323   0.96828   0.00000  Uiso   1.00
H794   H     0.51477   0.56812   0.97242   0.00000  Uiso   1.00
H795   H     0.51426   0.43175   0.52766   0.00000  Uiso   1.00
H796   H     0.46964   0.56767   0.61252   0.00000  Uiso   1.00
N797   N     0.50000   0.61907   0.75000   0.00000  Uiso   1.00
N798   N     0.50000   0.38093   0.75000   0.00000  Uiso   1.00
N799   N     0.39596   0.44678   0.64597   0.00000  Uiso   1.00
N800   N     0.60430   0.55388   0.85378   0.00000  Uiso   1.00
N801   N     0.60394   0.44618   0.64618   0.00000  Uiso   1.00
N802   N     0.39631   0.55314   0.85407   0.00000  Uiso   1.00
O803   O     0.43892   0.53821   0.74999   0.00000  Uiso   1.00
O804   O     0.56108   0.46179   0.75001   0.00000  Uiso   1.00
O805   O     0.56108   0.53821   0.75000   0.00000  Uiso   1.00
O806   O     0.43892   0.46179   0.74999   0.00000  Uiso   1.00
O807   O     0.50000   0.53822   0.68453   0.00000  Uiso   1.00
O808   O     0.50000   0.46178   0.81547   0.00000  Uiso   1.00
O809   O     0.50000   0.53822   0.81547   0.00000  Uiso   1.00
O810   O     0.50000   0.46178   0.68453   0.00000  Uiso   1.00
Zn811  Zn    0.50000   0.55104   0.75000   0.00000  Uiso   1.00
Zn812  Zn    0.50000   0.44896   0.75000   0.00000  Uiso   1.00
C813   C     0.75353   0.50001   0.74999   0.00000  Uiso   1.00
C814   C     0.97845   0.51964   0.78633   0.00000  Uiso   1.00
C815   C     0.97832   0.48035   0.71368   0.00000  Uiso   1.00
C816   C     0.68843   0.51956   0.78637   0.00000  Uiso   1.00
C817   C     0.80864   0.53756   0.54823   0.00000  Uiso   1.00
C818   C     0.80846   0.46266   0.95164   0.00000  Uiso   1.00
C819   C     0.83734   0.53882   0.95395   0.00000  Uiso   1.00
C820   C     0.83700   0.46114   0.54606   0.00000  Uiso   1.00
C821   C     0.81277   0.53792   0.59415   0.00000  Uiso   1.00
C822   C     0.81265   0.46224   0.90575   0.00000  Uiso   1.00
C823   C     0.84094   0.53867   0.90804   0.00000  Uiso   1.00
C824   C     0.91316   0.49999   0.75001   0.00000  Uiso   1.00
C825   C     0.84055   0.46125   0.59199   0.00000  Uiso   1.00
C826   C     0.82908   0.49989   0.61598   0.00000  Uiso   1.00
C827   C     0.82920   0.50012   0.88400   0.00000  Uiso   1.00
C828   C     0.82135   0.49943   0.52410   0.00000  Uiso   1.00
C829   C     0.82139   0.50068   0.97584   0.00000  Uiso   1.00
C830   C     0.95735   0.49998   0.75001   0.00000  Uiso   1.00
C831   C     0.70937   0.50002   0.74999   0.00000  Uiso   1.00
C832   C     0.71112   0.46168   0.67594   0.00000  Uiso   1.00
C833   C     0.95570   0.53870   0.82389   0.00000  Uiso   1.00
C834   C     0.95545   0.46133   0.67610   0.00000  Uiso   1.00
C835   C     0.83269   0.49999   0.66387   0.00000  Uiso   1.00
C836   C     0.71137   0.53828   0.82407   0.00000  Uiso   1.00
C837   C     0.83276   0.50001   0.83613   0.00000  Uiso   1.00
C838   C     0.85866   0.35728   0.77847   0.00000  Uiso   1.00
C839   C     0.80801   0.64271   0.72152   0.00000  Uiso   1.00
C840   C     0.80800   0.35733   0.72153   0.00000  Uiso   1.00
C841   C     0.85866   0.64266   0.77848   0.00000  Uiso   1.00
C842   C     0.68830   0.48044   0.71363   0.00000  Uiso   1.00
H843   H     0.87892   0.37542   0.80123   0.00000  Uiso   1.00
H844   H     0.80267   0.43258   0.88733   0.00000  Uiso   1.00
H845   H     0.85361   0.56823   0.89148   0.00000  Uiso   1.00
H846   H     0.85301   0.43156   0.60861   0.00000  Uiso   1.00
H847   H     0.78775   0.62457   0.69875   0.00000  Uiso   1.00
H848   H     0.78775   0.37552   0.69876   0.00000  Uiso   1.00
H849   H     0.87891   0.62448   0.80125   0.00000  Uiso   1.00
H850   H     0.79601   0.56710   0.53152   0.00000  Uiso   1.00
H851   H     0.79561   0.43323   0.96828   0.00000  Uiso   1.00
H852   H     0.84811   0.56812   0.97242   0.00000  Uiso   1.00
H853   H     0.84759   0.43175   0.52766   0.00000  Uiso   1.00
H854   H     0.80297   0.56767   0.61252   0.00000  Uiso   1.00
N855   N     0.83333   0.61907   0.75000   0.00000  Uiso   1.00
N856   N     0.83333   0.38093   0.75000   0.00000  Uiso   1.00
N857   N     0.72929   0.44678   0.64597   0.00000  Uiso   1.00
N858   N     0.93763   0.55388   0.85378   0.00000  Uiso   1.00
N859   N     0.93728   0.44618   0.64618   0.00000  Uiso   1.00
N860   N     0.72964   0.55314   0.85407   0.00000  Uiso   1.00
O861   O     0.77226   0.53821   0.74999   0.00000  Uiso   1.00
O862   O     0.89441   0.46179   0.75001   0.00000  Uiso   1.00
O863   O     0.89441   0.53821   0.75000   0.00000  Uiso   1.00
O864   O     0.77226   0.46179   0.74999   0.00000  Uiso   1.00
O865   O     0.83333   0.53822   0.68453   0.00000  Uiso   1.00
O866   O     0.83334   0.46178   0.81547   0.00000  Uiso   1.00
O867   O     0.83334   0.53822   0.81547   0.00000  Uiso   1.00
O868   O     0.83333   0.46178   0.68453   0.00000  Uiso   1.00
Zn869  Zn    0.83333   0.55104   0.75000   0.00000  Uiso   1.00
Zn870  Zn    0.83333   0.44896   0.75000   0.00000  Uiso   1.00
C871   C     0.08686   0.83334   0.74999   0.00000  Uiso   1.00
C872   C     0.31178   0.85297   0.78633   0.00000  Uiso   1.00
C873   C     0.31166   0.81369   0.71368   0.00000  Uiso   1.00
C874   C     0.02176   0.85290   0.78637   0.00000  Uiso   1.00
C875   C     0.14197   0.87089   0.54823   0.00000  Uiso   1.00
C876   C     0.14179   0.79599   0.95164   0.00000  Uiso   1.00
C877   C     0.17067   0.87215   0.95395   0.00000  Uiso   1.00
C878   C     0.17033   0.79448   0.54606   0.00000  Uiso   1.00
C879   C     0.14611   0.87125   0.59415   0.00000  Uiso   1.00
C880   C     0.14598   0.79558   0.90575   0.00000  Uiso   1.00
C881   C     0.17427   0.87200   0.90804   0.00000  Uiso   1.00
C882   C     0.24649   0.83332   0.75001   0.00000  Uiso   1.00
C883   C     0.17389   0.79458   0.59199   0.00000  Uiso   1.00
C884   C     0.16241   0.83323   0.61598   0.00000  Uiso   1.00
C885   C     0.16254   0.83346   0.88400   0.00000  Uiso   1.00
C886   C     0.15468   0.83277   0.52410   0.00000  Uiso   1.00
C887   C     0.15472   0.83401   0.97584   0.00000  Uiso   1.00
C888   C     0.29068   0.83331   0.75001   0.00000  Uiso   1.00
C889   C     0.04270   0.83335   0.74999   0.00000  Uiso   1.00
C890   C     0.04445   0.79501   0.67594   0.00000  Uiso   1.00
C891   C     0.28904   0.87203   0.82389   0.00000  Uiso   1.00
C892   C     0.28878   0.79467   0.67610   0.00000  Uiso   1.00
C893   C     0.16602   0.83333   0.66387   0.00000  Uiso   1.00
C894   C     0.04470   0.87161   0.82407   0.00000  Uiso   1.00
C895   C     0.16609   0.83334   0.83613   0.00000  Uiso   1.00
C896   C     0.19200   0.69062   0.77847   0.00000  Uiso   1.00
C897   C     0.14134   0.97605   0.72152   0.00000  Uiso   1.00
C898   C     0.14134   0.69067   0.72153   0.00000  Uiso   1.00
C899   C     0.19199   0.97600   0.77848   0.00000  Uiso   1.00
C900   C     0.02164   0.81378   0.71363   0.00000  Uiso   1.00
H901   H     0.21226   0.70876   0.80123   0.00000  Uiso   1.00
H902   H     0.13600   0.76591   0.88733   0.00000  Uiso   1.00
H903   H     0.18694   0.90156   0.89148   0.00000  Uiso   1.00
H904   H     0.18634   0.76490   0.60861   0.00000  Uiso   1.00
H905   H     0.12109   0.95790   0.69875   0.00000  Uiso   1.00
H906   H     0.12108   0.70885   0.69876   0.00000  Uiso   1.00
H907   H     0.21225   0.95782   0.80125   0.00000  Uiso   1.00
H908   H     0.12934   0.90044   0.53152   0.00000  Uiso   1.00
H909   H     0.12894   0.76657   0.96828   0.00000  Uiso   1.00
H910   H     0.18144   0.90145   0.97242   0.00000  Uiso   1.00
H911   H     0.18093   0.76508   0.52766   0.00000  Uiso   1.00
H912   H     0.13631   0.90100   0.61252   0.00000  Uiso   1.00
N913   N     0.16667   0.95240   0.75000   0.00000  Uiso   1.00
N914   N     0.16667   0.71427   0.75000   0.00000  Uiso   1.00
N915   N     0.06263   0.78011   0.64597   0.00000  Uiso   1.00
N916   N     0.27096   0.88722   0.85378   0.00000  Uiso   1.00
N917   N     0.27061   0.77952   0.64618   0.00000  Uiso   1.00
N918   N     0.06298   0.88648   0.85407   0.00000  Uiso   1.00
O919   O     0.10559   0.87154   0.74999   0.00000  Uiso   1.00
O920   O     0.22774   0.79513   0.75001   0.00000  Uiso   1.00
O921   O     0.22774   0.87154   0.75000   0.00000  Uiso   1.00
O922   O     0.10559   0.79513   0.74999   0.00000  Uiso   1.00
O923   O     0.16666   0.87155   0.68453   0.00000  Uiso   1.00
O924   O     0.16667   0.79511   0.81547   0.00000  Uiso   1.00
O925   O     0.16667   0.87155   0.81547   0.00000  Uiso   1.00
O926   O     0.16666   0.79511   0.68453   0.00000  Uiso   1.00
Zn927  Zn    0.16667   0.88437   0.75000   0.00000  Uiso   1.00
Zn928  Zn    0.16667   0.78229   0.75000   0.00000  Uiso   1.00
C929   C     0.42020   0.83334   0.74999   0.00000  Uiso   1.00
C930   C     0.64512   0.85297   0.78633   0.00000  Uiso   1.00
C931   C     0.64499   0.81369   0.71368   0.00000  Uiso   1.00
C932   C     0.35509   0.85290   0.78637   0.00000  Uiso   1.00
C933   C     0.47530   0.87089   0.54823   0.00000  Uiso   1.00
C934   C     0.47512   0.79599   0.95164   0.00000  Uiso   1.00
C935   C     0.50400   0.87215   0.95395   0.00000  Uiso   1.00
C936   C     0.50367   0.79448   0.54606   0.00000  Uiso   1.00
C937   C     0.47944   0.87125   0.59415   0.00000  Uiso   1.00
C938   C     0.47931   0.79558   0.90575   0.00000  Uiso   1.00
C939   C     0.50761   0.87200   0.90804   0.00000  Uiso   1.00
C940   C     0.57982   0.83332   0.75001   0.00000  Uiso   1.00
C941   C     0.50722   0.79458   0.59199   0.00000  Uiso   1.00
C942   C     0.49574   0.83323   0.61598   0.00000  Uiso   1.00
C943   C     0.49587   0.83346   0.88400   0.00000  Uiso   1.00
C944   C     0.48801   0.83277   0.52410   0.00000  Uiso   1.00
C945   C     0.48805   0.83401   0.97584   0.00000  Uiso   1.00
C946   C     0.62402   0.83331   0.75001   0.00000  Uiso   1.00
C947   C     0.37604   0.83335   0.74999   0.00000  Uiso   1.00
C948   C     0.37778   0.79501   0.67594   0.00000  Uiso   1.00
C949   C     0.62237   0.87203   0.82389   0.00000  Uiso   1.00
C950   C     0.62212   0.79467   0.67610   0.00000  Uiso   1.00
C951   C     0.49935   0.83333   0.66387   0.00000  Uiso   1.00
C952   C     0.37803   0.87161   0.82407   0.00000  Uiso   1.00
C953   C     0.49943   0.83334   0.83613   0.00000  Uiso   1.00
C954   C     0.52533   0.69062   0.77847   0.00000  Uiso   1.00
C955   C     0.47467   0.97605   0.72152   0.00000  Uiso   1.00
C956   C     0.47467   0.69067   0.72153   0.00000  Uiso   1.00
C957   C     0.52533   0.97600   0.77848   0.00000  Uiso   1.00
C958   C     0.35497   0.81378   0.71363   0.00000  Uiso   1.00
H959   H     0.54559   0.70876   0.80123   0.00000  Uiso   1.00
H960   H     0.46933   0.76591   0.88733   0.00000  Uiso   1.00
H961   H     0.52028   0.90156   0.89148   0.00000  Uiso   1.00
H962   H     0.51967   0.76490   0.60861   0.00000  Uiso   1.00
H963   H     0.45442   0.95790   0.69875   0.00000  Uiso   1.00
H964   H     0.45441   0.70885   0.69876   0.00000  Uiso   1.00
H965   H     0.54558   0.95782   0.80125   0.00000  Uiso   1.00
H966   H     0.46267   0.90044   0.53152   0.00000  Uiso   1.00
H967   H     0.46227   0.76657   0.96828   0.00000  Uiso   1.00
H968   H     0.51477   0.90145   0.97242   0.00000  Uiso   1.00
H969   H     0.51426   0.76508   0.52766   0.00000  Uiso   1.00
H970   H     0.46964   0.90100   0.61252   0.00000  Uiso   1.00
N971   N     0.50000   0.95240   0.75000   0.00000  Uiso   1.00
N972   N     0.50000   0.71427   0.75000   0.00000  Uiso   1.00
N973   N     0.39596   0.78011   0.64597   0.00000  Uiso   1.00
N974   N     0.60430   0.88722   0.85378   0.00000  Uiso   1.00
N975   N     0.60394   0.77952   0.64618   0.00000  Uiso   1.00
N976   N     0.39631   0.88648   0.85407   0.00000  Uiso   1.00
O977   O     0.43892   0.87154   0.74999   0.00000  Uiso   1.00
O978   O     0.56108   0.79513   0.75001   0.00000  Uiso   1.00
O979   O     0.56108   0.87154   0.75000   0.00000  Uiso   1.00
O980   O     0.43892   0.79513   0.74999   0.00000  Uiso   1.00
O981   O     0.50000   0.87155   0.68453   0.00000  Uiso   1.00
O982   O     0.50000   0.79511   0.81547   0.00000  Uiso   1.00
O983   O     0.50000   0.87155   0.81547   0.00000  Uiso   1.00
O984   O     0.50000   0.79511   0.68453   0.00000  Uiso   1.00
Zn985  Zn    0.50000   0.88437   0.75000   0.00000  Uiso   1.00
Zn986  Zn    0.50000   0.78229   0.75000   0.00000  Uiso   1.00
C987   C     0.75353   0.83334   0.74999   0.00000  Uiso   1.00
C988   C     0.97845   0.85297   0.78633   0.00000  Uiso   1.00
C989   C     0.97832   0.81369   0.71368   0.00000  Uiso   1.00
C990   C     0.68843   0.85290   0.78637   0.00000  Uiso   1.00
C991   C     0.80864   0.87089   0.54823   0.00000  Uiso   1.00
C992   C     0.80846   0.79599   0.95164   0.00000  Uiso   1.00
C993   C     0.83734   0.87215   0.95395   0.00000  Uiso   1.00
C994   C     0.83700   0.79448   0.54606   0.00000  Uiso   1.00
C995   C     0.81277   0.87125   0.59415   0.00000  Uiso   1.00
C996   C     0.81265   0.79558   0.90575   0.00000  Uiso   1.00
C997   C     0.84094   0.87200   0.90804   0.00000  Uiso   1.00
C998   C     0.91316   0.83332   0.75001   0.00000  Uiso   1.00
C999   C     0.84055   0.79458   0.59199   0.00000  Uiso   1.00
C1000  C     0.82908   0.83323   0.61598   0.00000  Uiso   1.00
C1001  C     0.82920   0.83346   0.88400   0.00000  Uiso   1.00
C1002  C     0.82135   0.83277   0.52410   0.00000  Uiso   1.00
C1003  C     0.82139   0.83401   0.97584   0.00000  Uiso   1.00
C1004  C     0.95735   0.83331   0.75001   0.00000  Uiso   1.00
C1005  C     0.70937   0.83335   0.74999   0.00000  Uiso   1.00
C1006  C     0.71112   0.79501   0.67594   0.00000  Uiso   1.00
C1007  C     0.95570   0.87203   0.82389   0.00000  Uiso   1.00
C1008  C     0.95545   0.79467   0.67610   0.00000  Uiso   1.00
C1009  C     0.83269   0.83333   0.66387   0.00000  Uiso   1.00
C1010  C     0.71137   0.87161   0.82407   0.00000  Uiso   1.00
C1011  C     0.83276   0.83334   0.83613   0.00000  Uiso   1.00
C1012  C     0.85866   0.69062   0.77847   0.00000  Uiso   1.00
C1013  C     0.80801   0.97605   0.72152   0.00000  Uiso   1.00
C1014  C     0.80800   0.69067   0.72153   0.00000  Uiso   1.00
C1015  C     0.85866   0.97600   0.77848   0.00000  Uiso   1.00
C1016  C     0.68830   0.81378   0.71363   0.00000  Uiso   1.00
H1017  H     0.87892   0.70876   0.80123   0.00000  Uiso   1.00
H1018  H     0.80267   0.76591   0.88733   0.00000  Uiso   1.00
H1019  H     0.85361   0.90156   0.89148   0.00000  Uiso   1.00
H1020  H     0.85301   0.76490   0.60861   0.00000  Uiso   1.00
H1021  H     0.78775   0.95790   0.69875   0.00000  Uiso   1.00
H1022  H     0.78775   0.70885   0.69876   0.00000  Uiso   1.00
H1023  H     0.87891   0.95782   0.80125   0.00000  Uiso   1.00
H1024  H     0.79601   0.90044   0.53152   0.00000  Uiso   1.00
H1025  H     0.79561   0.76657   0.96828   0.00000  Uiso   1.00
H1026  H     0.84811   0.90145   0.97242   0.00000  Uiso   1.00
H1027  H     0.84759   0.76508   0.52766   0.00000  Uiso   1.00
H1028  H     0.80297   0.90100   0.61252   0.00000  Uiso   1.00
N1029  N     0.83333   0.95240   0.75000   0.00000  Uiso   1.00
N1030  N     0.83333   0.71427   0.75000   0.00000  Uiso   1.00
N1031  N     0.72929   0.78011   0.64597   0.00000  Uiso   1.00
N1032  N     0.93763   0.88722   0.85378   0.00000  Uiso   1.00
N1033  N     0.93728   0.77952   0.64618   0.00000  Uiso   1.00
N1034  N     0.72964   0.88648   0.85407   0.00000  Uiso   1.00
O1035  O     0.77226   0.87154   0.74999   0.00000  Uiso   1.00
O1036  O     0.89441   0.79513   0.75001   0.00000  Uiso   1.00
O1037  O     0.89441   0.87154   0.75000   0.00000  Uiso   1.00
O1038  O     0.77226   0.79513   0.74999   0.00000  Uiso   1.00
O1039  O     0.83333   0.87155   0.68453   0.00000  Uiso   1.00
O1040  O     0.83334   0.79511   0.81547   0.00000  Uiso   1.00
O1041  O     0.83334   0.87155   0.81547   0.00000  Uiso   1.00
O1042  O     0.83333   0.79511   0.68453   0.00000  Uiso   1.00
Zn1043 Zn    0.83333   0.88437   0.75000   0.00000  Uiso   1.00
Zn1044 Zn    0.83333   0.78229   0.75000   0.00000  Uiso   1.00
loop_
_geom_bond_atom_site_label_1
_geom_bond_atom_site_label_2
_geom_bond_distance
_geom_bond_site_symmetry_2
_ccdc_geom_bond_type
C1     O52     1.278   .     A
C1     C19     1.412   .     S
C1     O49     1.278   .     A
C2     C18     1.405   .     A
C2     C21     1.454   .     S
C2     C62     1.385   .     S
C3     C18     1.405   .     A
C3     C22     1.454   .     S
C3     C88     1.385   .     S
C4     C24     1.455   .     S
C4     C19     1.404   .     A
C4     C118    1.385   1_455 S
C5     C9      1.381   .     A
C5     C16     1.399   .     A
C5     H38     1.083   .     S
C6     C10     1.381   .     A
C6     C17     1.399   .     A
C6     H39     1.083   .     S
C7     H40     1.083   .     S
C7     C11     1.380   .     A
C7     C17     1.400   .     A
C8     C13     1.380   .     A
C8     C16     1.400   .     A
C8     H41     1.083   .     S
C9     C14     1.400   .     A
C9     H42     1.084   .     S
C10    C15     1.400   .     A
C10    H32     1.083   .     S
C11    H33     1.083   .     S
C11    C15     1.398   .     A
C12    O50     1.278   .     A
C12    C18     1.413   .     S
C12    O51     1.278   .     A
C13    H34     1.083   .     S
C13    C14     1.398   .     A
C14    C23     1.439   .     S
C15    C25     1.438   .     S
C16    C539    1.446   1_554 S
C17    C538    1.446   .     S
C19    C30     1.404   .     A
C20    N45     1.157   .     T
C20    C30     1.455   .     S
C21    N46     1.157   .     T
C22    N47     1.157   .     T
C23    O53     1.288   .     A
C23    O56     1.287   .     A
C24    N48     1.157   .     T
C25    O54     1.288   .     A
C25    O55     1.287   .     A
C26    N44     1.366   .     A
C26    H31     1.082   .     S
C26    C377    1.417   1_545 S
C27    N43     1.367   .     A
C27    H35     1.082   .     S
C27    C202    1.417   .     S
C28    H36     1.082   .     S
C28    N44     1.366   .     A
C28    C375    1.417   1_545 S
C29    N43     1.366   .     A
C29    H37     1.082   .     S
C29    C200    1.417   .     S
C30    C119    1.385   1_455 S
N43    Zn57    2.010   .     S
N44    Zn58    2.010   .     S
O49    Zn57    1.989   .     S
O50    Zn58    1.989   .     S
O51    Zn57    1.989   .     S
O52    Zn58    1.989   .     S
O53    Zn57    1.997   .     S
O54    Zn58    1.997   .     S
O55    Zn57    1.997   .     S
O56    Zn58    1.997   .     S
C59    O110    1.278   .     A
C59    C77     1.412   .     S
C59    O107    1.278   .     A
C60    C76     1.405   .     A
C60    C79     1.454   .     S
C60    C120    1.385   .     S
C61    C76     1.405   .     A
C61    C80     1.454   .     S
C61    C146    1.385   .     S
C62    C82     1.455   .     S
C62    C77     1.404   .     A
C63    C67     1.381   .     A
C63    C74     1.399   .     A
C63    H96     1.083   .     S
C64    C68     1.381   .     A
C64    C75     1.399   .     A
C64    H97     1.083   .     S
C65    H98     1.083   .     S
C65    C69     1.380   .     A
C65    C75     1.400   .     A
C66    C71     1.380   .     A
C66    C74     1.400   .     A
C66    H99     1.083   .     S
C67    C72     1.400   .     A
C67    H100    1.084   .     S
C68    C73     1.400   .     A
C68    H90     1.083   .     S
C69    H91     1.083   .     S
C69    C73     1.398   .     A
C70    O108    1.278   .     A
C70    C76     1.413   .     S
C70    O109    1.278   .     A
C71    H92     1.083   .     S
C71    C72     1.398   .     A
C72    C81     1.439   .     S
C73    C83     1.438   .     S
C74    C597    1.446   1_554 S
C75    C596    1.446   .     S
C77    C88     1.404   .     A
C78    N103    1.157   .     T
C78    C88     1.455   .     S
C79    N104    1.157   .     T
C80    N105    1.157   .     T
C81    O111    1.288   .     A
C81    O114    1.287   .     A
C82    N106    1.157   .     T
C83    O112    1.288   .     A
C83    O113    1.287   .     A
C84    N102    1.366   .     A
C84    H89     1.082   .     S
C84    C435    1.417   1_545 S
C85    N101    1.367   .     A
C85    H93     1.082   .     S
C85    C260    1.417   .     S
C86    H94     1.082   .     S
C86    N102    1.366   .     A
C86    C433    1.417   1_545 S
C87    N101    1.366   .     A
C87    H95     1.082   .     S
C87    C258    1.417   .     S
N101   Zn115   2.010   .     S
N102   Zn116   2.010   .     S
O107   Zn115   1.989   .     S
O108   Zn116   1.989   .     S
O109   Zn115   1.989   .     S
O110   Zn116   1.989   .     S
O111   Zn115   1.997   .     S
O112   Zn116   1.997   .     S
O113   Zn115   1.997   .     S
O114   Zn116   1.997   .     S
C117   O168    1.278   .     A
C117   C135    1.412   .     S
C117   O165    1.278   .     A
C118   C134    1.405   .     A
C118   C137    1.454   .     S
C118   C4      1.385   1_655 S
C119   C134    1.405   .     A
C119   C138    1.454   .     S
C119   C30     1.385   1_655 S
C120   C140    1.455   .     S
C120   C135    1.404   .     A
C121   C125    1.381   .     A
C121   C132    1.399   .     A
C121   H154    1.083   .     S
C122   C126    1.381   .     A
C122   C133    1.399   .     A
C122   H155    1.083   .     S
C123   H156    1.083   .     S
C123   C127    1.380   .     A
C123   C133    1.400   .     A
C124   C129    1.380   .     A
C124   C132    1.400   .     A
C124   H157    1.083   .     S
C125   C130    1.400   .     A
C125   H158    1.084   .     S
C126   C131    1.400   .     A
C126   H148    1.083   .     S
C127   H149    1.083   .     S
C127   C131    1.398   .     A
C128   O166    1.278   .     A
C128   C134    1.413   .     S
C128   O167    1.278   .     A
C129   H150    1.083   .     S
C129   C130    1.398   .     A
C130   C139    1.439   .     S
C131   C141    1.438   .     S
C132   C655    1.446   1_554 S
C133   C654    1.446   .     S
C135   C146    1.404   .     A
C136   N161    1.157   .     T
C136   C146    1.455   .     S
C137   N162    1.157   .     T
C138   N163    1.157   .     T
C139   O169    1.288   .     A
C139   O172    1.287   .     A
C140   N164    1.157   .     T
C141   O170    1.288   .     A
C141   O171    1.287   .     A
C142   N160    1.366   .     A
C142   H147    1.082   .     S
C142   C493    1.417   1_545 S
C143   N159    1.367   .     A
C143   H151    1.082   .     S
C143   C318    1.417   .     S
C144   H152    1.082   .     S
C144   N160    1.366   .     A
C144   C491    1.417   1_545 S
C145   N159    1.366   .     A
C145   H153    1.082   .     S
C145   C316    1.417   .     S
N159   Zn173   2.010   .     S
N160   Zn174   2.010   .     S
O165   Zn173   1.989   .     S
O166   Zn174   1.989   .     S
O167   Zn173   1.989   .     S
O168   Zn174   1.989   .     S
O169   Zn173   1.997   .     S
O170   Zn174   1.997   .     S
O171   Zn173   1.997   .     S
O172   Zn174   1.997   .     S
C175   O226    1.278   .     A
C175   C193    1.412   .     S
C175   O223    1.278   .     A
C176   C192    1.405   .     A
C176   C195    1.454   .     S
C176   C236    1.385   .     S
C177   C192    1.405   .     A
C177   C196    1.454   .     S
C177   C262    1.385   .     S
C178   C198    1.455   .     S
C178   C193    1.404   .     A
C178   C292    1.385   1_455 S
C179   C183    1.381   .     A
C179   C190    1.399   .     A
C179   H212    1.083   .     S
C180   C184    1.381   .     A
C180   C191    1.399   .     A
C180   H213    1.083   .     S
C181   H214    1.083   .     S
C181   C185    1.380   .     A
C181   C191    1.400   .     A
C182   C187    1.380   .     A
C182   C190    1.400   .     A
C182   H215    1.083   .     S
C183   C188    1.400   .     A
C183   H216    1.084   .     S
C184   C189    1.400   .     A
C184   H206    1.083   .     S
C185   H207    1.083   .     S
C185   C189    1.398   .     A
C186   O224    1.278   .     A
C186   C192    1.413   .     S
C186   O225    1.278   .     A
C187   H208    1.083   .     S
C187   C188    1.398   .     A
C188   C197    1.439   .     S
C189   C199    1.438   .     S
C190   C713    1.446   1_554 S
C191   C712    1.446   .     S
C193   C204    1.404   .     A
C194   N219    1.157   .     T
C194   C204    1.455   .     S
C195   N220    1.157   .     T
C196   N221    1.157   .     T
C197   O227    1.288   .     A
C197   O230    1.287   .     A
C198   N222    1.157   .     T
C199   O228    1.288   .     A
C199   O229    1.287   .     A
C200   N218    1.366   .     A
C200   H205    1.082   .     S
C201   N217    1.367   .     A
C201   H209    1.082   .     S
C201   C376    1.417   .     S
C202   H210    1.082   .     S
C202   N218    1.366   .     A
C203   N217    1.366   .     A
C203   H211    1.082   .     S
C203   C374    1.417   .     S
C204   C293    1.385   1_455 S
N217   Zn231   2.010   .     S
N218   Zn232   2.010   .     S
O223   Zn231   1.989   .     S
O224   Zn232   1.989   .     S
O225   Zn231   1.989   .     S
O226   Zn232   1.989   .     S
O227   Zn231   1.997   .     S
O228   Zn232   1.997   .     S
O229   Zn231   1.997   .     S
O230   Zn232   1.997   .     S
C233   O284    1.278   .     A
C233   C251    1.412   .     S
C233   O281    1.278   .     A
C234   C250    1.405   .     A
C234   C253    1.454   .     S
C234   C294    1.385   .     S
C235   C250    1.405   .     A
C235   C254    1.454   .     S
C235   C320    1.385   .     S
C236   C256    1.455   .     S
C236   C251    1.404   .     A
C237   C241    1.381   .     A
C237   C248    1.399   .     A
C237   H270    1.083   .     S
C238   C242    1.381   .     A
C238   C249    1.399   .     A
C238   H271    1.083   .     S
C239   H272    1.083   .     S
C239   C243    1.380   .     A
C239   C249    1.400   .     A
C240   C245    1.380   .     A
C240   C248    1.400   .     A
C240   H273    1.083   .     S
C241   C246    1.400   .     A
C241   H274    1.084   .     S
C242   C247    1.400   .     A
C242   H264    1.083   .     S
C243   H265    1.083   .     S
C243   C247    1.398   .     A
C244   O282    1.278   .     A
C244   C250    1.413   .     S
C244   O283    1.278   .     A
C245   H266    1.083   .     S
C245   C246    1.398   .     A
C246   C255    1.439   .     S
C247   C257    1.438   .     S
C248   C771    1.446   1_554 S
C249   C770    1.446   .     S
C251   C262    1.404   .     A
C252   N277    1.157   .     T
C252   C262    1.455   .     S
C253   N278    1.157   .     T
C254   N279    1.157   .     T
C255   O285    1.288   .     A
C255   O288    1.287   .     A
C256   N280    1.157   .     T
C257   O286    1.288   .     A
C257   O287    1.287   .     A
C258   N276    1.366   .     A
C258   H263    1.082   .     S
C259   N275    1.367   .     A
C259   H267    1.082   .     S
C259   C434    1.417   .     S
C260   H268    1.082   .     S
C260   N276    1.366   .     A
C261   N275    1.366   .     A
C261   H269    1.082   .     S
C261   C432    1.417   .     S
N275   Zn289   2.010   .     S
N276   Zn290   2.010   .     S
O281   Zn289   1.989   .     S
O282   Zn290   1.989   .     S
O283   Zn289   1.989   .     S
O284   Zn290   1.989   .     S
O285   Zn289   1.997   .     S
O286   Zn290   1.997   .     S
O287   Zn289   1.997   .     S
O288   Zn290   1.997   .     S
C291   O342    1.278   .     A
C291   C309    1.412   .     S
C291   O339    1.278   .     A
C292   C308    1.405   .     A
C292   C311    1.454   .     S
C292   C178    1.385   1_655 S
C293   C308    1.405   .     A
C293   C312    1.454   .     S
C293   C204    1.385   1_655 S
C294   C314    1.455   .     S
C294   C309    1.404   .     A
C295   C299    1.381   .     A
C295   C306    1.399   .     A
C295   H328    1.083   .     S
C296   C300    1.381   .     A
C296   C307    1.399   .     A
C296   H329    1.083   .     S
C297   H330    1.083   .     S
C297   C301    1.380   .     A
C297   C307    1.400   .     A
C298   C303    1.380   .     A
C298   C306    1.400   .     A
C298   H331    1.083   .     S
C299   C304    1.400   .     A
C299   H332    1.084   .     S
C300   C305    1.400   .     A
C300   H322    1.083   .     S
C301   H323    1.083   .     S
C301   C305    1.398   .     A
C302   O340    1.278   .     A
C302   C308    1.413   .     S
C302   O341    1.278   .     A
C303   H324    1.083   .     S
C303   C304    1.398   .     A
C304   C313    1.439   .     S
C305   C315    1.438   .     S
C306   C829    1.446   1_554 S
C307   C828    1.446   .     S
C309   C320    1.404   .     A
C310   N335    1.157   .     T
C310   C320    1.455   .     S
C311   N336    1.157   .     T
C312   N337    1.157   .     T
C313   O343    1.288   .     A
C313   O346    1.287   .     A
C314   N338    1.157   .     T
C315   O344    1.288   .     A
C315   O345    1.287   .     A
C316   N334    1.366   .     A
C316   H321    1.082   .     S
C317   N333    1.367   .     A
C317   H325    1.082   .     S
C317   C492    1.417   .     S
C318   H326    1.082   .     S
C318   N334    1.366   .     A
C319   N333    1.366   .     A
C319   H327    1.082   .     S
C319   C490    1.417   .     S
N333   Zn347   2.010   .     S
N334   Zn348   2.010   .     S
O339   Zn347   1.989   .     S
O340   Zn348   1.989   .     S
O341   Zn347   1.989   .     S
O342   Zn348   1.989   .     S
O343   Zn347   1.997   .     S
O344   Zn348   1.997   .     S
O345   Zn347   1.997   .     S
O346   Zn348   1.997   .     S
C349   O400    1.278   .     A
C349   C367    1.412   .     S
C349   O397    1.278   .     A
C350   C366    1.405   .     A
C350   C369    1.454   .     S
C350   C410    1.385   .     S
C351   C366    1.405   .     A
C351   C370    1.454   .     S
C351   C436    1.385   .     S
C352   C372    1.455   .     S
C352   C367    1.404   .     A
C352   C466    1.385   1_455 S
C353   C357    1.381   .     A
C353   C364    1.399   .     A
C353   H386    1.083   .     S
C354   C358    1.381   .     A
C354   C365    1.399   .     A
C354   H387    1.083   .     S
C355   H388    1.083   .     S
C355   C359    1.380   .     A
C355   C365    1.400   .     A
C356   C361    1.380   .     A
C356   C364    1.400   .     A
C356   H389    1.083   .     S
C357   C362    1.400   .     A
C357   H390    1.084   .     S
C358   C363    1.400   .     A
C358   H380    1.083   .     S
C359   H381    1.083   .     S
C359   C363    1.398   .     A
C360   O398    1.278   .     A
C360   C366    1.413   .     S
C360   O399    1.278   .     A
C361   H382    1.083   .     S
C361   C362    1.398   .     A
C362   C371    1.439   .     S
C363   C373    1.438   .     S
C364   C887    1.446   1_554 S
C365   C886    1.446   .     S
C367   C378    1.404   .     A
C368   N393    1.157   .     T
C368   C378    1.455   .     S
C369   N394    1.157   .     T
C370   N395    1.157   .     T
C371   O401    1.288   .     A
C371   O404    1.287   .     A
C372   N396    1.157   .     T
C373   O402    1.288   .     A
C373   O403    1.287   .     A
C374   N392    1.366   .     A
C374   H379    1.082   .     S
C375   N391    1.367   .     A
C375   H383    1.082   .     S
C375   C28     1.417   1_565 S
C376   H384    1.082   .     S
C376   N392    1.366   .     A
C377   N391    1.366   .     A
C377   H385    1.082   .     S
C377   C26     1.417   1_565 S
C378   C467    1.385   1_455 S
N391   Zn405   2.010   .     S
N392   Zn406   2.010   .     S
O397   Zn405   1.989   .     S
O398   Zn406   1.989   .     S
O399   Zn405   1.989   .     S
O400   Zn406   1.989   .     S
O401   Zn405   1.997   .     S
O402   Zn406   1.997   .     S
O403   Zn405   1.997   .     S
O404   Zn406   1.997   .     S
C407   O458    1.278   .     A
C407   C425    1.412   .     S
C407   O455    1.278   .     A
C408   C424    1.405   .     A
C408   C427    1.454   .     S
C408   C468    1.385   .     S
C409   C424    1.405   .     A
C409   C428    1.454   .     S
C409   C494    1.385   .     S
C410   C430    1.455   .     S
C410   C425    1.404   .     A
C411   C415    1.381   .     A
C411   C422    1.399   .     A
C411   H444    1.083   .     S
C412   C416    1.381   .     A
C412   C423    1.399   .     A
C412   H445    1.083   .     S
C413   H446    1.083   .     S
C413   C417    1.380   .     A
C413   C423    1.400   .     A
C414   C419    1.380   .     A
C414   C422    1.400   .     A
C414   H447    1.083   .     S
C415   C420    1.400   .     A
C415   H448    1.084   .     S
C416   C421    1.400   .     A
C416   H438    1.083   .     S
C417   H439    1.083   .     S
C417   C421    1.398   .     A
C418   O456    1.278   .     A
C418   C424    1.413   .     S
C418   O457    1.278   .     A
C419   H440    1.083   .     S
C419   C420    1.398   .     A
C420   C429    1.439   .     S
C421   C431    1.438   .     S
C422   C945    1.446   1_554 S
C423   C944    1.446   .     S
C425   C436    1.404   .     A
C426   N451    1.157   .     T
C426   C436    1.455   .     S
C427   N452    1.157   .     T
C428   N453    1.157   .     T
C429   O459    1.288   .     A
C429   O462    1.287   .     A
C430   N454    1.157   .     T
C431   O460    1.288   .     A
C431   O461    1.287   .     A
C432   N450    1.366   .     A
C432   H437    1.082   .     S
C433   N449    1.367   .     A
C433   H441    1.082   .     S
C433   C86     1.417   1_565 S
C434   H442    1.082   .     S
C434   N450    1.366   .     A
C435   N449    1.366   .     A
C435   H443    1.082   .     S
C435   C84     1.417   1_565 S
N449   Zn463   2.010   .     S
N450   Zn464   2.010   .     S
O455   Zn463   1.989   .     S
O456   Zn464   1.989   .     S
O457   Zn463   1.989   .     S
O458   Zn464   1.989   .     S
O459   Zn463   1.997   .     S
O460   Zn464   1.997   .     S
O461   Zn463   1.997   .     S
O462   Zn464   1.997   .     S
C465   O516    1.278   .     A
C465   C483    1.412   .     S
C465   O513    1.278   .     A
C466   C482    1.405   .     A
C466   C485    1.454   .     S
C466   C352    1.385   1_655 S
C467   C482    1.405   .     A
C467   C486    1.454   .     S
C467   C378    1.385   1_655 S
C468   C488    1.455   .     S
C468   C483    1.404   .     A
C469   C473    1.381   .     A
C469   C480    1.399   .     A
C469   H502    1.083   .     S
C470   C474    1.381   .     A
C470   C481    1.399   .     A
C470   H503    1.083   .     S
C471   H504    1.083   .     S
C471   C475    1.380   .     A
C471   C481    1.400   .     A
C472   C477    1.380   .     A
C472   C480    1.400   .     A
C472   H505    1.083   .     S
C473   C478    1.400   .     A
C473   H506    1.084   .     S
C474   C479    1.400   .     A
C474   H496    1.083   .     S
C475   H497    1.083   .     S
C475   C479    1.398   .     A
C476   O514    1.278   .     A
C476   C482    1.413   .     S
C476   O515    1.278   .     A
C477   H498    1.083   .     S
C477   C478    1.398   .     A
C478   C487    1.439   .     S
C479   C489    1.438   .     S
C480   C1003   1.446   1_554 S
C481   C1002   1.446   .     S
C483   C494    1.404   .     A
C484   N509    1.157   .     T
C484   C494    1.455   .     S
C485   N510    1.157   .     T
C486   N511    1.157   .     T
C487   O517    1.288   .     A
C487   O520    1.287   .     A
C488   N512    1.157   .     T
C489   O518    1.288   .     A
C489   O519    1.287   .     A
C490   N508    1.366   .     A
C490   H495    1.082   .     S
C491   N507    1.367   .     A
C491   H499    1.082   .     S
C491   C144    1.417   1_565 S
C492   H500    1.082   .     S
C492   N508    1.366   .     A
C493   N507    1.366   .     A
C493   H501    1.082   .     S
C493   C142    1.417   1_565 S
N507   Zn521   2.010   .     S
N508   Zn522   2.010   .     S
O513   Zn521   1.989   .     S
O514   Zn522   1.989   .     S
O515   Zn521   1.989   .     S
O516   Zn522   1.989   .     S
O517   Zn521   1.997   .     S
O518   Zn522   1.997   .     S
O519   Zn521   1.997   .     S
O520   Zn522   1.997   .     S
C523   O574    1.278   .     A
C523   C541    1.412   .     S
C523   O571    1.278   .     A
C524   C540    1.405   .     A
C524   C543    1.454   .     S
C524   C584    1.385   .     S
C525   C540    1.405   .     A
C525   C544    1.454   .     S
C525   C610    1.385   .     S
C526   C546    1.455   .     S
C526   C541    1.404   .     A
C526   C640    1.385   1_455 S
C527   C531    1.381   .     A
C527   C538    1.399   .     A
C527   H560    1.083   .     S
C528   C532    1.381   .     A
C528   C539    1.399   .     A
C528   H561    1.083   .     S
C529   H562    1.083   .     S
C529   C533    1.380   .     A
C529   C539    1.400   .     A
C530   C535    1.380   .     A
C530   C538    1.400   .     A
C530   H563    1.083   .     S
C531   C536    1.400   .     A
C531   H564    1.084   .     S
C532   C537    1.400   .     A
C532   H554    1.083   .     S
C533   H555    1.083   .     S
C533   C537    1.398   .     A
C534   O572    1.278   .     A
C534   C540    1.413   .     S
C534   O573    1.278   .     A
C535   H556    1.083   .     S
C535   C536    1.398   .     A
C536   C545    1.439   .     S
C537   C547    1.438   .     S
C539   C16     1.446   1_556 S
C541   C552    1.404   .     A
C542   N567    1.157   .     T
C542   C552    1.455   .     S
C543   N568    1.157   .     T
C544   N569    1.157   .     T
C545   O575    1.288   .     A
C545   O578    1.287   .     A
C546   N570    1.157   .     T
C547   O576    1.288   .     A
C547   O577    1.287   .     A
C548   N566    1.366   .     A
C548   H553    1.082   .     S
C548   C899    1.417   1_545 S
C549   N565    1.367   .     A
C549   H557    1.082   .     S
C549   C724    1.417   .     S
C550   H558    1.082   .     S
C550   N566    1.366   .     A
C550   C897    1.417   1_545 S
C551   N565    1.366   .     A
C551   H559    1.082   .     S
C551   C722    1.417   .     S
C552   C641    1.385   1_455 S
N565   Zn579   2.010   .     S
N566   Zn580   2.010   .     S
O571   Zn579   1.989   .     S
O572   Zn580   1.989   .     S
O573   Zn579   1.989   .     S
O574   Zn580   1.989   .     S
O575   Zn579   1.997   .     S
O576   Zn580   1.997   .     S
O577   Zn579   1.997   .     S
O578   Zn580   1.997   .     S
C581   O632    1.278   .     A
C581   C599    1.412   .     S
C581   O629    1.278   .     A
C582   C598    1.405   .     A
C582   C601    1.454   .     S
C582   C642    1.385   .     S
C583   C598    1.405   .     A
C583   C602    1.454   .     S
C583   C668    1.385   .     S
C584   C604    1.455   .     S
C584   C599    1.404   .     A
C585   C589    1.381   .     A
C585   C596    1.399   .     A
C585   H618    1.083   .     S
C586   C590    1.381   .     A
C586   C597    1.399   .     A
C586   H619    1.083   .     S
C587   H620    1.083   .     S
C587   C591    1.380   .     A
C587   C597    1.400   .     A
C588   C593    1.380   .     A
C588   C596    1.400   .     A
C588   H621    1.083   .     S
C589   C594    1.400   .     A
C589   H622    1.084   .     S
C590   C595    1.400   .     A
C590   H612    1.083   .     S
C591   H613    1.083   .     S
C591   C595    1.398   .     A
C592   O630    1.278   .     A
C592   C598    1.413   .     S
C592   O631    1.278   .     A
C593   H614    1.083   .     S
C593   C594    1.398   .     A
C594   C603    1.439   .     S
C595   C605    1.438   .     S
C597   C74     1.446   1_556 S
C599   C610    1.404   .     A
C600   N625    1.157   .     T
C600   C610    1.455   .     S
C601   N626    1.157   .     T
C602   N627    1.157   .     T
C603   O633    1.288   .     A
C603   O636    1.287   .     A
C604   N628    1.157   .     T
C605   O634    1.288   .     A
C605   O635    1.287   .     A
C606   N624    1.366   .     A
C606   H611    1.082   .     S
C606   C957    1.417   1_545 S
C607   N623    1.367   .     A
C607   H615    1.082   .     S
C607   C782    1.417   .     S
C608   H616    1.082   .     S
C608   N624    1.366   .     A
C608   C955    1.417   1_545 S
C609   N623    1.366   .     A
C609   H617    1.082   .     S
C609   C780    1.417   .     S
N623   Zn637   2.010   .     S
N624   Zn638   2.010   .     S
O629   Zn637   1.989   .     S
O630   Zn638   1.989   .     S
O631   Zn637   1.989   .     S
O632   Zn638   1.989   .     S
O633   Zn637   1.997   .     S
O634   Zn638   1.997   .     S
O635   Zn637   1.997   .     S
O636   Zn638   1.997   .     S
C639   O690    1.278   .     A
C639   C657    1.412   .     S
C639   O687    1.278   .     A
C640   C656    1.405   .     A
C640   C659    1.454   .     S
C640   C526    1.385   1_655 S
C641   C656    1.405   .     A
C641   C660    1.454   .     S
C641   C552    1.385   1_655 S
C642   C662    1.455   .     S
C642   C657    1.404   .     A
C643   C647    1.381   .     A
C643   C654    1.399   .     A
C643   H676    1.083   .     S
C644   C648    1.381   .     A
C644   C655    1.399   .     A
C644   H677    1.083   .     S
C645   H678    1.083   .     S
C645   C649    1.380   .     A
C645   C655    1.400   .     A
C646   C651    1.380   .     A
C646   C654    1.400   .     A
C646   H679    1.083   .     S
C647   C652    1.400   .     A
C647   H680    1.084   .     S
C648   C653    1.400   .     A
C648   H670    1.083   .     S
C649   H671    1.083   .     S
C649   C653    1.398   .     A
C650   O688    1.278   .     A
C650   C656    1.413   .     S
C650   O689    1.278   .     A
C651   H672    1.083   .     S
C651   C652    1.398   .     A
C652   C661    1.439   .     S
C653   C663    1.438   .     S
C655   C132    1.446   1_556 S
C657   C668    1.404   .     A
C658   N683    1.157   .     T
C658   C668    1.455   .     S
C659   N684    1.157   .     T
C660   N685    1.157   .     T
C661   O691    1.288   .     A
C661   O694    1.287   .     A
C662   N686    1.157   .     T
C663   O692    1.288   .     A
C663   O693    1.287   .     A
C664   N682    1.366   .     A
C664   H669    1.082   .     S
C664   C1015   1.417   1_545 S
C665   N681    1.367   .     A
C665   H673    1.082   .     S
C665   C840    1.417   .     S
C666   H674    1.082   .     S
C666   N682    1.366   .     A
C666   C1013   1.417   1_545 S
C667   N681    1.366   .     A
C667   H675    1.082   .     S
C667   C838    1.417   .     S
N681   Zn695   2.010   .     S
N682   Zn696   2.010   .     S
O687   Zn695   1.989   .     S
O688   Zn696   1.989   .     S
O689   Zn695   1.989   .     S
O690   Zn696   1.989   .     S
O691   Zn695   1.997   .     S
O692   Zn696   1.997   .     S
O693   Zn695   1.997   .     S
O694   Zn696   1.997   .     S
C697   O748    1.278   .     A
C697   C715    1.412   .     S
C697   O745    1.278   .     A
C698   C714    1.405   .     A
C698   C717    1.454   .     S
C698   C758    1.385   .     S
C699   C714    1.405   .     A
C699   C718    1.454   .     S
C699   C784    1.385   .     S
C700   C720    1.455   .     S
C700   C715    1.404   .     A
C700   C814    1.385   1_455 S
C701   C705    1.381   .     A
C701   C712    1.399   .     A
C701   H734    1.083   .     S
C702   C706    1.381   .     A
C702   C713    1.399   .     A
C702   H735    1.083   .     S
C703   H736    1.083   .     S
C703   C707    1.380   .     A
C703   C713    1.400   .     A
C704   C709    1.380   .     A
C704   C712    1.400   .     A
C704   H737    1.083   .     S
C705   C710    1.400   .     A
C705   H738    1.084   .     S
C706   C711    1.400   .     A
C706   H728    1.083   .     S
C707   H729    1.083   .     S
C707   C711    1.398   .     A
C708   O746    1.278   .     A
C708   C714    1.413   .     S
C708   O747    1.278   .     A
C709   H730    1.083   .     S
C709   C710    1.398   .     A
C710   C719    1.439   .     S
C711   C721    1.438   .     S
C713   C190    1.446   1_556 S
C715   C726    1.404   .     A
C716   N741    1.157   .     T
C716   C726    1.455   .     S
C717   N742    1.157   .     T
C718   N743    1.157   .     T
C719   O749    1.288   .     A
C719   O752    1.287   .     A
C720   N744    1.157   .     T
C721   O750    1.288   .     A
C721   O751    1.287   .     A
C722   N740    1.366   .     A
C722   H727    1.082   .     S
C723   N739    1.367   .     A
C723   H731    1.082   .     S
C723   C898    1.417   .     S
C724   H732    1.082   .     S
C724   N740    1.366   .     A
C725   N739    1.366   .     A
C725   H733    1.082   .     S
C725   C896    1.417   .     S
C726   C815    1.385   1_455 S
N739   Zn753   2.010   .     S
N740   Zn754   2.010   .     S
O745   Zn753   1.989   .     S
O746   Zn754   1.989   .     S
O747   Zn753   1.989   .     S
O748   Zn754   1.989   .     S
O749   Zn753   1.997   .     S
O750   Zn754   1.997   .     S
O751   Zn753   1.997   .     S
O752   Zn754   1.997   .     S
C755   O806    1.278   .     A
C755   C773    1.412   .     S
C755   O803    1.278   .     A
C756   C772    1.405   .     A
C756   C775    1.454   .     S
C756   C816    1.385   .     S
C757   C772    1.405   .     A
C757   C776    1.454   .     S
C757   C842    1.385   .     S
C758   C778    1.455   .     S
C758   C773    1.404   .     A
C759   C763    1.381   .     A
C759   C770    1.399   .     A
C759   H792    1.083   .     S
C760   C764    1.381   .     A
C760   C771    1.399   .     A
C760   H793    1.083   .     S
C761   H794    1.083   .     S
C761   C765    1.380   .     A
C761   C771    1.400   .     A
C762   C767    1.380   .     A
C762   C770    1.400   .     A
C762   H795    1.083   .     S
C763   C768    1.400   .     A
C763   H796    1.084   .     S
C764   C769    1.400   .     A
C764   H786    1.083   .     S
C765   H787    1.083   .     S
C765   C769    1.398   .     A
C766   O804    1.278   .     A
C766   C772    1.413   .     S
C766   O805    1.278   .     A
C767   H788    1.083   .     S
C767   C768    1.398   .     A
C768   C777    1.439   .     S
C769   C779    1.438   .     S
C771   C248    1.446   1_556 S
C773   C784    1.404   .     A
C774   N799    1.157   .     T
C774   C784    1.455   .     S
C775   N800    1.157   .     T
C776   N801    1.157   .     T
C777   O807    1.288   .     A
C777   O810    1.287   .     A
C778   N802    1.157   .     T
C779   O808    1.288   .     A
C779   O809    1.287   .     A
C780   N798    1.366   .     A
C780   H785    1.082   .     S
C781   N797    1.367   .     A
C781   H789    1.082   .     S
C781   C956    1.417   .     S
C782   H790    1.082   .     S
C782   N798    1.366   .     A
C783   N797    1.366   .     A
C783   H791    1.082   .     S
C783   C954    1.417   .     S
N797   Zn811   2.010   .     S
N798   Zn812   2.010   .     S
O803   Zn811   1.989   .     S
O804   Zn812   1.989   .     S
O805   Zn811   1.989   .     S
O806   Zn812   1.989   .     S
O807   Zn811   1.997   .     S
O808   Zn812   1.997   .     S
O809   Zn811   1.997   .     S
O810   Zn812   1.997   .     S
C813   O864    1.278   .     A
C813   C831    1.412   .     S
C813   O861    1.278   .     A
C814   C830    1.405   .     A
C814   C833    1.454   .     S
C814   C700    1.385   1_655 S
C815   C830    1.405   .     A
C815   C834    1.454   .     S
C815   C726    1.385   1_655 S
C816   C836    1.455   .     S
C816   C831    1.404   .     A
C817   C821    1.381   .     A
C817   C828    1.399   .     A
C817   H850    1.083   .     S
C818   C822    1.381   .     A
C818   C829    1.399   .     A
C818   H851    1.083   .     S
C819   H852    1.083   .     S
C819   C823    1.380   .     A
C819   C829    1.400   .     A
C820   C825    1.380   .     A
C820   C828    1.400   .     A
C820   H853    1.083   .     S
C821   C826    1.400   .     A
C821   H854    1.084   .     S
C822   C827    1.400   .     A
C822   H844    1.083   .     S
C823   H845    1.083   .     S
C823   C827    1.398   .     A
C824   O862    1.278   .     A
C824   C830    1.413   .     S
C824   O863    1.278   .     A
C825   H846    1.083   .     S
C825   C826    1.398   .     A
C826   C835    1.439   .     S
C827   C837    1.438   .     S
C829   C306    1.446   1_556 S
C831   C842    1.404   .     A
C832   N857    1.157   .     T
C832   C842    1.455   .     S
C833   N858    1.157   .     T
C834   N859    1.157   .     T
C835   O865    1.288   .     A
C835   O868    1.287   .     A
C836   N860    1.157   .     T
C837   O866    1.288   .     A
C837   O867    1.287   .     A
C838   N856    1.366   .     A
C838   H843    1.082   .     S
C839   N855    1.367   .     A
C839   H847    1.082   .     S
C839   C1014   1.417   .     S
C840   H848    1.082   .     S
C840   N856    1.366   .     A
C841   N855    1.366   .     A
C841   H849    1.082   .     S
C841   C1012   1.417   .     S
N855   Zn869   2.010   .     S
N856   Zn870   2.010   .     S
O861   Zn869   1.989   .     S
O862   Zn870   1.989   .     S
O863   Zn869   1.989   .     S
O864   Zn870   1.989   .     S
O865   Zn869   1.997   .     S
O866   Zn870   1.997   .     S
O867   Zn869   1.997   .     S
O868   Zn870   1.997   .     S
C871   O922    1.278   .     A
C871   C889    1.412   .     S
C871   O919    1.278   .     A
C872   C888    1.405   .     A
C872   C891    1.454   .     S
C872   C932    1.385   .     S
C873   C888    1.405   .     A
C873   C892    1.454   .     S
C873   C958    1.385   .     S
C874   C894    1.455   .     S
C874   C889    1.404   .     A
C874   C988    1.385   1_455 S
C875   C879    1.381   .     A
C875   C886    1.399   .     A
C875   H908    1.083   .     S
C876   C880    1.381   .     A
C876   C887    1.399   .     A
C876   H909    1.083   .     S
C877   H910    1.083   .     S
C877   C881    1.380   .     A
C877   C887    1.400   .     A
C878   C883    1.380   .     A
C878   C886    1.400   .     A
C878   H911    1.083   .     S
C879   C884    1.400   .     A
C879   H912    1.084   .     S
C880   C885    1.400   .     A
C880   H902    1.083   .     S
C881   H903    1.083   .     S
C881   C885    1.398   .     A
C882   O920    1.278   .     A
C882   C888    1.413   .     S
C882   O921    1.278   .     A
C883   H904    1.083   .     S
C883   C884    1.398   .     A
C884   C893    1.439   .     S
C885   C895    1.438   .     S
C887   C364    1.446   1_556 S
C889   C900    1.404   .     A
C890   N915    1.157   .     T
C890   C900    1.455   .     S
C891   N916    1.157   .     T
C892   N917    1.157   .     T
C893   O923    1.288   .     A
C893   O926    1.287   .     A
C894   N918    1.157   .     T
C895   O924    1.288   .     A
C895   O925    1.287   .     A
C896   N914    1.366   .     A
C896   H901    1.082   .     S
C897   N913    1.367   .     A
C897   H905    1.082   .     S
C897   C550    1.417   1_565 S
C898   H906    1.082   .     S
C898   N914    1.366   .     A
C899   N913    1.366   .     A
C899   H907    1.082   .     S
C899   C548    1.417   1_565 S
C900   C989    1.385   1_455 S
N913   Zn927   2.010   .     S
N914   Zn928   2.010   .     S
O919   Zn927   1.989   .     S
O920   Zn928   1.989   .     S
O921   Zn927   1.989   .     S
O922   Zn928   1.989   .     S
O923   Zn927   1.997   .     S
O924   Zn928   1.997   .     S
O925   Zn927   1.997   .     S
O926   Zn928   1.997   .     S
C929   O980    1.278   .     A
C929   C947    1.412   .     S
C929   O977    1.278   .     A
C930   C946    1.405   .     A
C930   C949    1.454   .     S
C930   C990    1.385   .     S
C931   C946    1.405   .     A
C931   C950    1.454   .     S
C931   C1016   1.385   .     S
C932   C952    1.455   .     S
C932   C947    1.404   .     A
C933   C937    1.381   .     A
C933   C944    1.399   .     A
C933   H966    1.083   .     S
C934   C938    1.381   .     A
C934   C945    1.399   .     A
C934   H967    1.083   .     S
C935   H968    1.083   .     S
C935   C939    1.380   .     A
C935   C945    1.400   .     A
C936   C941    1.380   .     A
C936   C944    1.400   .     A
C936   H969    1.083   .     S
C937   C942    1.400   .     A
C937   H970    1.084   .     S
C938   C943    1.400   .     A
C938   H960    1.083   .     S
C939   H961    1.083   .     S
C939   C943    1.398   .     A
C940   O978    1.278   .     A
C940   C946    1.413   .     S
C940   O979    1.278   .     A
C941   H962    1.083   .     S
C941   C942    1.398   .     A
C942   C951    1.439   .     S
C943   C953    1.438   .     S
C945   C422    1.446   1_556 S
C947   C958    1.404   .     A
C948   N973    1.157   .     T
C948   C958    1.455   .     S
C949   N974    1.157   .     T
C950   N975    1.157   .     T
C951   O981    1.288   .     A
C951   O984    1.287   .     A
C952   N976    1.157   .     T
C953   O982    1.288   .     A
C953   O983    1.287   .     A
C954   N972    1.366   .     A
C954   H959    1.082   .     S
C955   N971    1.367   .     A
C955   H963    1.082   .     S
C955   C608    1.417   1_565 S
C956   H964    1.082   .     S
C956   N972    1.366   .     A
C957   N971    1.366   .     A
C957   H965    1.082   .     S
C957   C606    1.417   1_565 S
N971   Zn985   2.010   .     S
N972   Zn986   2.010   .     S
O977   Zn985   1.989   .     S
O978   Zn986   1.989   .     S
O979   Zn985   1.989   .     S
O980   Zn986   1.989   .     S
O981   Zn985   1.997   .     S
O982   Zn986   1.997   .     S
O983   Zn985   1.997   .     S
O984   Zn986   1.997   .     S
C987   O1038   1.278   .     A
C987   C1005   1.412   .     S
C987   O1035   1.278   .     A
C988   C1004   1.405   .     A
C988   C1007   1.454   .     S
C988   C874    1.385   1_655 S
C989   C1004   1.405   .     A
C989   C1008   1.454   .     S
C989   C900    1.385   1_655 S
C990   C1010   1.455   .     S
C990   C1005   1.404   .     A
C991   C995    1.381   .     A
C991   C1002   1.399   .     A
C991   H1024   1.083   .     S
C992   C996    1.381   .     A
C992   C1003   1.399   .     A
C992   H1025   1.083   .     S
C993   H1026   1.083   .     S
C993   C997    1.380   .     A
C993   C1003   1.400   .     A
C994   C999    1.380   .     A
C994   C1002   1.400   .     A
C994   H1027   1.083   .     S
C995   C1000   1.400   .     A
C995   H1028   1.084   .     S
C996   C1001   1.400   .     A
C996   H1018   1.083   .     S
C997   H1019   1.083   .     S
C997   C1001   1.398   .     A
C998   O1036   1.278   .     A
C998   C1004   1.413   .     S
C998   O1037   1.278   .     A
C999   H1020   1.083   .     S
C999   C1000   1.398   .     A
C1000  C1009   1.439   .     S
C1001  C1011   1.438   .     S
C1003  C480    1.446   1_556 S
C1005  C1016   1.404   .     A
C1006  N1031   1.157   .     T
C1006  C1016   1.455   .     S
C1007  N1032   1.157   .     T
C1008  N1033   1.157   .     T
C1009  O1039   1.288   .     A
C1009  O1042   1.287   .     A
C1010  N1034   1.157   .     T
C1011  O1040   1.288   .     A
C1011  O1041   1.287   .     A
C1012  N1030   1.366   .     A
C1012  H1017   1.082   .     S
C1013  N1029   1.367   .     A
C1013  H1021   1.082   .     S
C1013  C666    1.417   1_565 S
C1014  H1022   1.082   .     S
C1014  N1030   1.366   .     A
C1015  N1029   1.366   .     A
C1015  H1023   1.082   .     S
C1015  C664    1.417   1_565 S
N1029  Zn1043  2.010   .     S
N1030  Zn1044  2.010   .     S
O1035  Zn1043  1.989   .     S
O1036  Zn1044  1.989   .     S
O1037  Zn1043  1.989   .     S
O1038  Zn1044  1.989   .     S
O1039  Zn1043  1.997   .     S
O1040  Zn1044  1.997   .     S
O1041  Zn1043  1.997   .     S
O1042  Zn1044  1.997   .     S
