data_str_m3_o1_o16_pcu_sym.105
_audit_creation_date              2020-01-03
_audit_creation_method            'Materials Studio'
_symmetry_space_group_name_H-M    'P1'
_symmetry_Int_Tables_number       1
_symmetry_cell_setting            triclinic
loop_
_symmetry_equiv_pos_as_xyz
  x,y,z
_cell_length_a                    29.5070
_cell_length_b                    32.1776
_cell_length_c                    26.2920
_cell_angle_alpha                 89.8127
_cell_angle_beta                  71.3486
_cell_angle_gamma                 89.9741
loop_
_atom_site_label
_atom_site_type_symbol
_atom_site_fract_x
_atom_site_fract_y
_atom_site_fract_z
_atom_site_U_iso_or_equiv
_atom_site_adp_type
_atom_site_occupancy
C1     C     0.16654   0.24672   0.25053   0.00000  Uiso   1.00
C2     C     0.14609   0.18715   0.49135   0.00000  Uiso   1.00
C3     C     0.15798   0.19155   0.43530   0.00000  Uiso   1.00
C4     C     0.18218   0.19383   0.01503   0.00000  Uiso   1.00
C5     C     0.23041   0.19754   0.48243   0.00000  Uiso   1.00
C6     C     0.24038   0.20799   0.42861   0.00000  Uiso   1.00
C7     C     0.20338   0.20841   0.40651   0.00000  Uiso   1.00
C8     C     0.17205   0.19600   0.07027   0.00000  Uiso   1.00
C9     C     0.25514   0.18017   0.05903   0.00000  Uiso   1.00
C10    C     0.12527   0.17703   0.40977   0.00000  Uiso   1.00
C11    C     0.20853   0.31203   0.24803   0.00000  Uiso   1.00
C12    C     0.14073   0.17001   0.35173   0.00000  Uiso   1.00
C13    C     0.20859   0.02126   0.24774   0.00000  Uiso   1.00
C14    C     0.16653   0.04245   0.25050   0.00000  Uiso   1.00
C15    C     0.12434   0.02127   0.25379   0.00000  Uiso   1.00
C16    C     0.12427   0.31205   0.25412   0.00000  Uiso   1.00
C17    C     0.16641   0.29086   0.25103   0.00000  Uiso   1.00
C18    C     0.31587   0.13475   0.22720   0.00000  Uiso   1.00
C19    C     0.03050   0.13477   0.22717   0.00000  Uiso   1.00
C20    C     0.01747   0.19856   0.27284   0.00000  Uiso   1.00
C21    C     0.30298   0.19869   0.27246   0.00000  Uiso   1.00
C22    C     0.16664   0.08661   0.25008   0.00000  Uiso   1.00
C23    C     0.19258   0.17031   0.14846   0.00000  Uiso   1.00
C24    C     0.26706   0.19134   0.00492   0.00000  Uiso   1.00
C25    C     0.20712   0.18174   0.09185   0.00000  Uiso   1.00
C26    C     0.07918   0.16436   0.44072   0.00000  Uiso   1.00
C27    C     0.06679   0.16222   0.49623   0.00000  Uiso   1.00
C28    C     0.10034   0.17204   0.02127   0.00000  Uiso   1.00
H29    H     0.28317   0.17188   0.07554   0.00000  Uiso   1.00
H30    H     0.24148   0.03739   0.24516   0.00000  Uiso   1.00
H31    H     0.09151   0.03743   0.25613   0.00000  Uiso   1.00
H32    H     0.09141   0.29590   0.25660   0.00000  Uiso   1.00
H33    H     0.30298   0.10928   0.20883   0.00000  Uiso   1.00
H34    H     0.05392   0.10935   0.20873   0.00000  Uiso   1.00
H35    H     0.03040   0.22410   0.29105   0.00000  Uiso   1.00
H36    H     0.27997   0.22455   0.28993   0.00000  Uiso   1.00
H37    H     0.27641   0.21586   0.40384   0.00000  Uiso   1.00
H38    H     0.30428   0.19286   0.48029   0.00000  Uiso   1.00
H39    H     0.05360   0.15373   0.42185   0.00000  Uiso   1.00
H40    H     0.09088   0.16565   0.06369   0.00000  Uiso   1.00
H41    H     0.03199   0.15052   0.01969   0.00000  Uiso   1.00
H42    H     0.21139   0.22040   0.36626   0.00000  Uiso   1.00
H43    H     0.24138   0.29588   0.24562   0.00000  Uiso   1.00
N44    N     0.04760   0.16668   0.25002   0.00000  Uiso   1.00
N45    N     0.28573   0.16665   0.25001   0.00000  Uiso   1.00
O46    O     0.12846   0.22775   0.25001   0.00000  Uiso   1.00
O47    O     0.20490   0.22774   0.25001   0.00000  Uiso   1.00
O48    O     0.10947   0.16666   0.32681   0.00000  Uiso   1.00
O49    O     0.18591   0.16665   0.32681   0.00000  Uiso   1.00
O50    O     0.12843   0.10559   0.25000   0.00000  Uiso   1.00
O51    O     0.20488   0.10558   0.25000   0.00000  Uiso   1.00
O52    O     0.14742   0.16668   0.17319   0.00000  Uiso   1.00
O53    O     0.22387   0.16667   0.17319   0.00000  Uiso   1.00
Zn54   Zn    0.11562   0.16667   0.25000   0.00000  Uiso   1.00
Zn55   Zn    0.21771   0.16666   0.25000   0.00000  Uiso   1.00
S56    S     0.12830   0.23303   0.10580   0.00000  Uiso   1.00
O57    O     0.14879   0.25922   0.14030   0.00000  Uiso   1.00
O58    O     0.11520   0.26091   0.06665   0.00000  Uiso   1.00
O59    O     0.07857   0.20927   0.14477   0.00000  Uiso   1.00
H60    H     0.05573   0.23207   0.15992   0.00000  Uiso   1.00
C61    C     0.49987   0.24672   0.25053   0.00000  Uiso   1.00
C62    C     0.47943   0.18715   0.49135   0.00000  Uiso   1.00
C63    C     0.49132   0.19155   0.43530   0.00000  Uiso   1.00
C64    C     0.51551   0.19383   0.01503   0.00000  Uiso   1.00
C65    C     0.56375   0.19754   0.48243   0.00000  Uiso   1.00
C66    C     0.57372   0.20799   0.42861   0.00000  Uiso   1.00
C67    C     0.53671   0.20841   0.40651   0.00000  Uiso   1.00
C68    C     0.50538   0.19600   0.07027   0.00000  Uiso   1.00
C69    C     0.58848   0.18017   0.05903   0.00000  Uiso   1.00
C70    C     0.45860   0.17703   0.40977   0.00000  Uiso   1.00
C71    C     0.54186   0.31203   0.24803   0.00000  Uiso   1.00
C72    C     0.47406   0.17001   0.35173   0.00000  Uiso   1.00
C73    C     0.54193   0.02126   0.24774   0.00000  Uiso   1.00
C74    C     0.49986   0.04245   0.25050   0.00000  Uiso   1.00
C75    C     0.45768   0.02127   0.25379   0.00000  Uiso   1.00
C76    C     0.45760   0.31205   0.25412   0.00000  Uiso   1.00
C77    C     0.49974   0.29086   0.25103   0.00000  Uiso   1.00
C78    C     0.64920   0.13475   0.22720   0.00000  Uiso   1.00
C79    C     0.36384   0.13477   0.22717   0.00000  Uiso   1.00
C80    C     0.35080   0.19856   0.27284   0.00000  Uiso   1.00
C81    C     0.63631   0.19869   0.27246   0.00000  Uiso   1.00
C82    C     0.49997   0.08661   0.25008   0.00000  Uiso   1.00
C83    C     0.52591   0.17031   0.14846   0.00000  Uiso   1.00
C84    C     0.60039   0.19134   0.00492   0.00000  Uiso   1.00
C85    C     0.54045   0.18174   0.09185   0.00000  Uiso   1.00
C86    C     0.41252   0.16436   0.44072   0.00000  Uiso   1.00
C87    C     0.40012   0.16222   0.49623   0.00000  Uiso   1.00
C88    C     0.43367   0.17204   0.02127   0.00000  Uiso   1.00
H89    H     0.61650   0.17188   0.07554   0.00000  Uiso   1.00
H90    H     0.57482   0.03739   0.24516   0.00000  Uiso   1.00
H91    H     0.42484   0.03743   0.25613   0.00000  Uiso   1.00
H92    H     0.42474   0.29590   0.25660   0.00000  Uiso   1.00
H93    H     0.63632   0.10928   0.20883   0.00000  Uiso   1.00
H94    H     0.38725   0.10935   0.20873   0.00000  Uiso   1.00
H95    H     0.36373   0.22410   0.29105   0.00000  Uiso   1.00
H96    H     0.61331   0.22455   0.28993   0.00000  Uiso   1.00
H97    H     0.60974   0.21586   0.40384   0.00000  Uiso   1.00
H98    H     0.63761   0.19286   0.48029   0.00000  Uiso   1.00
H99    H     0.38694   0.15373   0.42185   0.00000  Uiso   1.00
H100   H     0.42421   0.16565   0.06369   0.00000  Uiso   1.00
H101   H     0.36533   0.15052   0.01969   0.00000  Uiso   1.00
H102   H     0.54473   0.22040   0.36626   0.00000  Uiso   1.00
H103   H     0.57471   0.29588   0.24562   0.00000  Uiso   1.00
N104   N     0.38093   0.16668   0.25002   0.00000  Uiso   1.00
N105   N     0.61906   0.16665   0.25001   0.00000  Uiso   1.00
O106   O     0.46179   0.22775   0.25001   0.00000  Uiso   1.00
O107   O     0.53823   0.22774   0.25001   0.00000  Uiso   1.00
O108   O     0.44280   0.16666   0.32681   0.00000  Uiso   1.00
O109   O     0.51924   0.16665   0.32681   0.00000  Uiso   1.00
O110   O     0.46177   0.10559   0.25000   0.00000  Uiso   1.00
O111   O     0.53821   0.10558   0.25000   0.00000  Uiso   1.00
O112   O     0.48076   0.16668   0.17319   0.00000  Uiso   1.00
O113   O     0.55720   0.16667   0.17319   0.00000  Uiso   1.00
Zn114  Zn    0.44896   0.16667   0.25000   0.00000  Uiso   1.00
Zn115  Zn    0.55104   0.16666   0.25000   0.00000  Uiso   1.00
S116   S     0.46163   0.23303   0.10580   0.00000  Uiso   1.00
O117   O     0.48212   0.25922   0.14030   0.00000  Uiso   1.00
O118   O     0.44853   0.26091   0.06665   0.00000  Uiso   1.00
O119   O     0.41190   0.20927   0.14477   0.00000  Uiso   1.00
H120   H     0.38906   0.23207   0.15992   0.00000  Uiso   1.00
C121   C     0.83320   0.24672   0.25053   0.00000  Uiso   1.00
C122   C     0.81276   0.18715   0.49135   0.00000  Uiso   1.00
C123   C     0.82465   0.19155   0.43530   0.00000  Uiso   1.00
C124   C     0.84885   0.19383   0.01503   0.00000  Uiso   1.00
C125   C     0.89708   0.19754   0.48243   0.00000  Uiso   1.00
C126   C     0.90705   0.20799   0.42861   0.00000  Uiso   1.00
C127   C     0.87004   0.20841   0.40651   0.00000  Uiso   1.00
C128   C     0.83872   0.19600   0.07027   0.00000  Uiso   1.00
C129   C     0.92181   0.18017   0.05903   0.00000  Uiso   1.00
C130   C     0.79193   0.17703   0.40977   0.00000  Uiso   1.00
C131   C     0.87519   0.31203   0.24803   0.00000  Uiso   1.00
C132   C     0.80740   0.17001   0.35173   0.00000  Uiso   1.00
C133   C     0.87526   0.02126   0.24774   0.00000  Uiso   1.00
C134   C     0.83320   0.04245   0.25050   0.00000  Uiso   1.00
C135   C     0.79101   0.02127   0.25379   0.00000  Uiso   1.00
C136   C     0.79094   0.31205   0.25412   0.00000  Uiso   1.00
C137   C     0.83308   0.29086   0.25103   0.00000  Uiso   1.00
C138   C     0.98253   0.13475   0.22720   0.00000  Uiso   1.00
C139   C     0.69717   0.13477   0.22717   0.00000  Uiso   1.00
C140   C     0.68414   0.19856   0.27284   0.00000  Uiso   1.00
C141   C     0.96964   0.19869   0.27246   0.00000  Uiso   1.00
C142   C     0.83330   0.08661   0.25008   0.00000  Uiso   1.00
C143   C     0.85924   0.17031   0.14846   0.00000  Uiso   1.00
C144   C     0.93373   0.19134   0.00492   0.00000  Uiso   1.00
C145   C     0.87379   0.18174   0.09185   0.00000  Uiso   1.00
C146   C     0.74585   0.16436   0.44072   0.00000  Uiso   1.00
C147   C     0.73346   0.16222   0.49623   0.00000  Uiso   1.00
C148   C     0.76700   0.17204   0.02127   0.00000  Uiso   1.00
H149   H     0.94983   0.17188   0.07554   0.00000  Uiso   1.00
H150   H     0.90815   0.03739   0.24516   0.00000  Uiso   1.00
H151   H     0.75818   0.03743   0.25613   0.00000  Uiso   1.00
H152   H     0.75808   0.29590   0.25660   0.00000  Uiso   1.00
H153   H     0.96965   0.10928   0.20883   0.00000  Uiso   1.00
H154   H     0.72058   0.10935   0.20873   0.00000  Uiso   1.00
H155   H     0.69706   0.22410   0.29105   0.00000  Uiso   1.00
H156   H     0.94664   0.22455   0.28993   0.00000  Uiso   1.00
H157   H     0.94308   0.21586   0.40384   0.00000  Uiso   1.00
H158   H     0.97095   0.19286   0.48029   0.00000  Uiso   1.00
H159   H     0.72027   0.15373   0.42185   0.00000  Uiso   1.00
H160   H     0.75755   0.16565   0.06369   0.00000  Uiso   1.00
H161   H     0.69866   0.15052   0.01969   0.00000  Uiso   1.00
H162   H     0.87806   0.22040   0.36626   0.00000  Uiso   1.00
H163   H     0.90804   0.29588   0.24562   0.00000  Uiso   1.00
N164   N     0.71426   0.16668   0.25002   0.00000  Uiso   1.00
N165   N     0.95239   0.16665   0.25001   0.00000  Uiso   1.00
O166   O     0.79512   0.22775   0.25001   0.00000  Uiso   1.00
O167   O     0.87157   0.22774   0.25001   0.00000  Uiso   1.00
O168   O     0.77613   0.16666   0.32681   0.00000  Uiso   1.00
O169   O     0.85258   0.16665   0.32681   0.00000  Uiso   1.00
O170   O     0.79510   0.10559   0.25000   0.00000  Uiso   1.00
O171   O     0.87154   0.10558   0.25000   0.00000  Uiso   1.00
O172   O     0.81409   0.16668   0.17319   0.00000  Uiso   1.00
O173   O     0.89053   0.16667   0.17319   0.00000  Uiso   1.00
Zn174  Zn    0.78229   0.16667   0.25000   0.00000  Uiso   1.00
Zn175  Zn    0.88438   0.16666   0.25000   0.00000  Uiso   1.00
S176   S     0.79496   0.23303   0.10580   0.00000  Uiso   1.00
O177   O     0.81545   0.25922   0.14030   0.00000  Uiso   1.00
O178   O     0.78186   0.26091   0.06665   0.00000  Uiso   1.00
O179   O     0.74524   0.20927   0.14477   0.00000  Uiso   1.00
H180   H     0.72239   0.23207   0.15992   0.00000  Uiso   1.00
C181   C     0.16654   0.58005   0.25053   0.00000  Uiso   1.00
C182   C     0.14609   0.52049   0.49135   0.00000  Uiso   1.00
C183   C     0.15798   0.52489   0.43530   0.00000  Uiso   1.00
C184   C     0.18218   0.52717   0.01503   0.00000  Uiso   1.00
C185   C     0.23041   0.53087   0.48243   0.00000  Uiso   1.00
C186   C     0.24038   0.54133   0.42861   0.00000  Uiso   1.00
C187   C     0.20338   0.54175   0.40651   0.00000  Uiso   1.00
C188   C     0.17205   0.52933   0.07027   0.00000  Uiso   1.00
C189   C     0.25514   0.51350   0.05903   0.00000  Uiso   1.00
C190   C     0.12527   0.51037   0.40977   0.00000  Uiso   1.00
C191   C     0.20853   0.64537   0.24803   0.00000  Uiso   1.00
C192   C     0.14073   0.50335   0.35173   0.00000  Uiso   1.00
C193   C     0.20859   0.35459   0.24774   0.00000  Uiso   1.00
C194   C     0.16653   0.37579   0.25050   0.00000  Uiso   1.00
C195   C     0.12434   0.35461   0.25379   0.00000  Uiso   1.00
C196   C     0.12427   0.64538   0.25412   0.00000  Uiso   1.00
C197   C     0.16641   0.62419   0.25103   0.00000  Uiso   1.00
C198   C     0.31587   0.46808   0.22720   0.00000  Uiso   1.00
C199   C     0.03050   0.46811   0.22717   0.00000  Uiso   1.00
C200   C     0.01747   0.53189   0.27284   0.00000  Uiso   1.00
C201   C     0.30298   0.53202   0.27246   0.00000  Uiso   1.00
C202   C     0.16664   0.41994   0.25008   0.00000  Uiso   1.00
C203   C     0.19258   0.50364   0.14846   0.00000  Uiso   1.00
C204   C     0.26706   0.52467   0.00492   0.00000  Uiso   1.00
C205   C     0.20712   0.51507   0.09185   0.00000  Uiso   1.00
C206   C     0.07918   0.49769   0.44072   0.00000  Uiso   1.00
C207   C     0.06679   0.49556   0.49623   0.00000  Uiso   1.00
C208   C     0.10034   0.50537   0.02127   0.00000  Uiso   1.00
H209   H     0.28317   0.50522   0.07554   0.00000  Uiso   1.00
H210   H     0.24148   0.37073   0.24516   0.00000  Uiso   1.00
H211   H     0.09151   0.37076   0.25613   0.00000  Uiso   1.00
H212   H     0.09141   0.62923   0.25660   0.00000  Uiso   1.00
H213   H     0.30298   0.44261   0.20883   0.00000  Uiso   1.00
H214   H     0.05392   0.44268   0.20873   0.00000  Uiso   1.00
H215   H     0.03040   0.55743   0.29105   0.00000  Uiso   1.00
H216   H     0.27997   0.55788   0.28993   0.00000  Uiso   1.00
H217   H     0.27641   0.54920   0.40384   0.00000  Uiso   1.00
H218   H     0.30428   0.52619   0.48029   0.00000  Uiso   1.00
H219   H     0.05360   0.48706   0.42185   0.00000  Uiso   1.00
H220   H     0.09088   0.49898   0.06369   0.00000  Uiso   1.00
H221   H     0.03199   0.48385   0.01969   0.00000  Uiso   1.00
H222   H     0.21139   0.55373   0.36626   0.00000  Uiso   1.00
H223   H     0.24138   0.62922   0.24562   0.00000  Uiso   1.00
N224   N     0.04760   0.50001   0.25002   0.00000  Uiso   1.00
N225   N     0.28573   0.49998   0.25001   0.00000  Uiso   1.00
O226   O     0.12846   0.56108   0.25001   0.00000  Uiso   1.00
O227   O     0.20490   0.56107   0.25001   0.00000  Uiso   1.00
O228   O     0.10947   0.50000   0.32681   0.00000  Uiso   1.00
O229   O     0.18591   0.49999   0.32681   0.00000  Uiso   1.00
O230   O     0.12843   0.43893   0.25000   0.00000  Uiso   1.00
O231   O     0.20488   0.43892   0.25000   0.00000  Uiso   1.00
O232   O     0.14742   0.50001   0.17319   0.00000  Uiso   1.00
O233   O     0.22387   0.50000   0.17319   0.00000  Uiso   1.00
Zn234  Zn    0.11562   0.50001   0.25000   0.00000  Uiso   1.00
Zn235  Zn    0.21771   0.49999   0.25000   0.00000  Uiso   1.00
S236   S     0.12830   0.56636   0.10580   0.00000  Uiso   1.00
O237   O     0.14879   0.59255   0.14030   0.00000  Uiso   1.00
O238   O     0.11520   0.59425   0.06665   0.00000  Uiso   1.00
O239   O     0.07857   0.54260   0.14477   0.00000  Uiso   1.00
H240   H     0.05573   0.56540   0.15992   0.00000  Uiso   1.00
C241   C     0.49987   0.58005   0.25053   0.00000  Uiso   1.00
C242   C     0.47943   0.52049   0.49135   0.00000  Uiso   1.00
C243   C     0.49132   0.52489   0.43530   0.00000  Uiso   1.00
C244   C     0.51551   0.52717   0.01503   0.00000  Uiso   1.00
C245   C     0.56375   0.53087   0.48243   0.00000  Uiso   1.00
C246   C     0.57372   0.54133   0.42861   0.00000  Uiso   1.00
C247   C     0.53671   0.54175   0.40651   0.00000  Uiso   1.00
C248   C     0.50538   0.52933   0.07027   0.00000  Uiso   1.00
C249   C     0.58848   0.51350   0.05903   0.00000  Uiso   1.00
C250   C     0.45860   0.51037   0.40977   0.00000  Uiso   1.00
C251   C     0.54186   0.64537   0.24803   0.00000  Uiso   1.00
C252   C     0.47406   0.50335   0.35173   0.00000  Uiso   1.00
C253   C     0.54193   0.35459   0.24774   0.00000  Uiso   1.00
C254   C     0.49986   0.37579   0.25050   0.00000  Uiso   1.00
C255   C     0.45768   0.35461   0.25379   0.00000  Uiso   1.00
C256   C     0.45760   0.64538   0.25412   0.00000  Uiso   1.00
C257   C     0.49974   0.62419   0.25103   0.00000  Uiso   1.00
C258   C     0.64920   0.46808   0.22720   0.00000  Uiso   1.00
C259   C     0.36384   0.46811   0.22717   0.00000  Uiso   1.00
C260   C     0.35080   0.53189   0.27284   0.00000  Uiso   1.00
C261   C     0.63631   0.53202   0.27246   0.00000  Uiso   1.00
C262   C     0.49997   0.41994   0.25008   0.00000  Uiso   1.00
C263   C     0.52591   0.50364   0.14846   0.00000  Uiso   1.00
C264   C     0.60039   0.52467   0.00492   0.00000  Uiso   1.00
C265   C     0.54045   0.51507   0.09185   0.00000  Uiso   1.00
C266   C     0.41252   0.49769   0.44072   0.00000  Uiso   1.00
C267   C     0.40012   0.49556   0.49623   0.00000  Uiso   1.00
C268   C     0.43367   0.50537   0.02127   0.00000  Uiso   1.00
H269   H     0.61650   0.50522   0.07554   0.00000  Uiso   1.00
H270   H     0.57482   0.37073   0.24516   0.00000  Uiso   1.00
H271   H     0.42484   0.37076   0.25613   0.00000  Uiso   1.00
H272   H     0.42474   0.62923   0.25660   0.00000  Uiso   1.00
H273   H     0.63632   0.44261   0.20883   0.00000  Uiso   1.00
H274   H     0.38725   0.44268   0.20873   0.00000  Uiso   1.00
H275   H     0.36373   0.55743   0.29105   0.00000  Uiso   1.00
H276   H     0.61331   0.55788   0.28993   0.00000  Uiso   1.00
H277   H     0.60974   0.54920   0.40384   0.00000  Uiso   1.00
H278   H     0.63761   0.52619   0.48029   0.00000  Uiso   1.00
H279   H     0.38694   0.48706   0.42185   0.00000  Uiso   1.00
H280   H     0.42421   0.49898   0.06369   0.00000  Uiso   1.00
H281   H     0.36533   0.48385   0.01969   0.00000  Uiso   1.00
H282   H     0.54473   0.55373   0.36626   0.00000  Uiso   1.00
H283   H     0.57471   0.62922   0.24562   0.00000  Uiso   1.00
N284   N     0.38093   0.50001   0.25002   0.00000  Uiso   1.00
N285   N     0.61906   0.49998   0.25001   0.00000  Uiso   1.00
O286   O     0.46179   0.56108   0.25001   0.00000  Uiso   1.00
O287   O     0.53823   0.56107   0.25001   0.00000  Uiso   1.00
O288   O     0.44280   0.50000   0.32681   0.00000  Uiso   1.00
O289   O     0.51924   0.49999   0.32681   0.00000  Uiso   1.00
O290   O     0.46177   0.43893   0.25000   0.00000  Uiso   1.00
O291   O     0.53821   0.43892   0.25000   0.00000  Uiso   1.00
O292   O     0.48076   0.50001   0.17319   0.00000  Uiso   1.00
O293   O     0.55720   0.50000   0.17319   0.00000  Uiso   1.00
Zn294  Zn    0.44896   0.50001   0.25000   0.00000  Uiso   1.00
Zn295  Zn    0.55104   0.49999   0.25000   0.00000  Uiso   1.00
S296   S     0.46163   0.56636   0.10580   0.00000  Uiso   1.00
O297   O     0.48212   0.59255   0.14030   0.00000  Uiso   1.00
O298   O     0.44853   0.59425   0.06665   0.00000  Uiso   1.00
O299   O     0.41190   0.54260   0.14477   0.00000  Uiso   1.00
H300   H     0.38906   0.56540   0.15992   0.00000  Uiso   1.00
C301   C     0.83320   0.58005   0.25053   0.00000  Uiso   1.00
C302   C     0.81276   0.52049   0.49135   0.00000  Uiso   1.00
C303   C     0.82465   0.52489   0.43530   0.00000  Uiso   1.00
C304   C     0.84885   0.52717   0.01503   0.00000  Uiso   1.00
C305   C     0.89708   0.53087   0.48243   0.00000  Uiso   1.00
C306   C     0.90705   0.54133   0.42861   0.00000  Uiso   1.00
C307   C     0.87004   0.54175   0.40651   0.00000  Uiso   1.00
C308   C     0.83872   0.52933   0.07027   0.00000  Uiso   1.00
C309   C     0.92181   0.51350   0.05903   0.00000  Uiso   1.00
C310   C     0.79193   0.51037   0.40977   0.00000  Uiso   1.00
C311   C     0.87519   0.64537   0.24803   0.00000  Uiso   1.00
C312   C     0.80740   0.50335   0.35173   0.00000  Uiso   1.00
C313   C     0.87526   0.35459   0.24774   0.00000  Uiso   1.00
C314   C     0.83320   0.37579   0.25050   0.00000  Uiso   1.00
C315   C     0.79101   0.35461   0.25379   0.00000  Uiso   1.00
C316   C     0.79094   0.64538   0.25412   0.00000  Uiso   1.00
C317   C     0.83308   0.62419   0.25103   0.00000  Uiso   1.00
C318   C     0.98253   0.46808   0.22720   0.00000  Uiso   1.00
C319   C     0.69717   0.46811   0.22717   0.00000  Uiso   1.00
C320   C     0.68414   0.53189   0.27284   0.00000  Uiso   1.00
C321   C     0.96964   0.53202   0.27246   0.00000  Uiso   1.00
C322   C     0.83330   0.41994   0.25008   0.00000  Uiso   1.00
C323   C     0.85924   0.50364   0.14846   0.00000  Uiso   1.00
C324   C     0.93373   0.52467   0.00492   0.00000  Uiso   1.00
C325   C     0.87379   0.51507   0.09185   0.00000  Uiso   1.00
C326   C     0.74585   0.49769   0.44072   0.00000  Uiso   1.00
C327   C     0.73346   0.49556   0.49623   0.00000  Uiso   1.00
C328   C     0.76700   0.50537   0.02127   0.00000  Uiso   1.00
H329   H     0.94983   0.50522   0.07554   0.00000  Uiso   1.00
H330   H     0.90815   0.37073   0.24516   0.00000  Uiso   1.00
H331   H     0.75818   0.37076   0.25613   0.00000  Uiso   1.00
H332   H     0.75808   0.62923   0.25660   0.00000  Uiso   1.00
H333   H     0.96965   0.44261   0.20883   0.00000  Uiso   1.00
H334   H     0.72058   0.44268   0.20873   0.00000  Uiso   1.00
H335   H     0.69706   0.55743   0.29105   0.00000  Uiso   1.00
H336   H     0.94664   0.55788   0.28993   0.00000  Uiso   1.00
H337   H     0.94308   0.54920   0.40384   0.00000  Uiso   1.00
H338   H     0.97095   0.52619   0.48029   0.00000  Uiso   1.00
H339   H     0.72027   0.48706   0.42185   0.00000  Uiso   1.00
H340   H     0.75755   0.49898   0.06369   0.00000  Uiso   1.00
H341   H     0.69866   0.48385   0.01969   0.00000  Uiso   1.00
H342   H     0.87806   0.55373   0.36626   0.00000  Uiso   1.00
H343   H     0.90804   0.62922   0.24562   0.00000  Uiso   1.00
N344   N     0.71426   0.50001   0.25002   0.00000  Uiso   1.00
N345   N     0.95239   0.49998   0.25001   0.00000  Uiso   1.00
O346   O     0.79512   0.56108   0.25001   0.00000  Uiso   1.00
O347   O     0.87157   0.56107   0.25001   0.00000  Uiso   1.00
O348   O     0.77613   0.50000   0.32681   0.00000  Uiso   1.00
O349   O     0.85258   0.49999   0.32681   0.00000  Uiso   1.00
O350   O     0.79510   0.43893   0.25000   0.00000  Uiso   1.00
O351   O     0.87154   0.43892   0.25000   0.00000  Uiso   1.00
O352   O     0.81409   0.50001   0.17319   0.00000  Uiso   1.00
O353   O     0.89053   0.50000   0.17319   0.00000  Uiso   1.00
Zn354  Zn    0.78229   0.50001   0.25000   0.00000  Uiso   1.00
Zn355  Zn    0.88438   0.49999   0.25000   0.00000  Uiso   1.00
S356   S     0.79496   0.56636   0.10580   0.00000  Uiso   1.00
O357   O     0.81545   0.59255   0.14030   0.00000  Uiso   1.00
O358   O     0.78186   0.59425   0.06665   0.00000  Uiso   1.00
O359   O     0.74524   0.54260   0.14477   0.00000  Uiso   1.00
H360   H     0.72239   0.56540   0.15992   0.00000  Uiso   1.00
C361   C     0.16654   0.91338   0.25053   0.00000  Uiso   1.00
C362   C     0.14609   0.85382   0.49135   0.00000  Uiso   1.00
C363   C     0.15798   0.85822   0.43530   0.00000  Uiso   1.00
C364   C     0.18218   0.86050   0.01503   0.00000  Uiso   1.00
C365   C     0.23041   0.86420   0.48243   0.00000  Uiso   1.00
C366   C     0.24038   0.87466   0.42861   0.00000  Uiso   1.00
C367   C     0.20338   0.87508   0.40651   0.00000  Uiso   1.00
C368   C     0.17205   0.86266   0.07027   0.00000  Uiso   1.00
C369   C     0.25514   0.84684   0.05903   0.00000  Uiso   1.00
C370   C     0.12527   0.84370   0.40977   0.00000  Uiso   1.00
C371   C     0.20853   0.97870   0.24803   0.00000  Uiso   1.00
C372   C     0.14073   0.83668   0.35173   0.00000  Uiso   1.00
C373   C     0.20859   0.68792   0.24774   0.00000  Uiso   1.00
C374   C     0.16653   0.70912   0.25050   0.00000  Uiso   1.00
C375   C     0.12434   0.68794   0.25379   0.00000  Uiso   1.00
C376   C     0.12427   0.97871   0.25412   0.00000  Uiso   1.00
C377   C     0.16641   0.95753   0.25103   0.00000  Uiso   1.00
C378   C     0.31587   0.80141   0.22720   0.00000  Uiso   1.00
C379   C     0.03050   0.80144   0.22717   0.00000  Uiso   1.00
C380   C     0.01747   0.86523   0.27284   0.00000  Uiso   1.00
C381   C     0.30298   0.86536   0.27246   0.00000  Uiso   1.00
C382   C     0.16664   0.75328   0.25008   0.00000  Uiso   1.00
C383   C     0.19258   0.83697   0.14846   0.00000  Uiso   1.00
C384   C     0.26706   0.85801   0.00492   0.00000  Uiso   1.00
C385   C     0.20712   0.84841   0.09185   0.00000  Uiso   1.00
C386   C     0.07918   0.83102   0.44072   0.00000  Uiso   1.00
C387   C     0.06679   0.82889   0.49623   0.00000  Uiso   1.00
C388   C     0.10034   0.83871   0.02127   0.00000  Uiso   1.00
H389   H     0.28317   0.83855   0.07554   0.00000  Uiso   1.00
H390   H     0.24148   0.70406   0.24516   0.00000  Uiso   1.00
H391   H     0.09151   0.70409   0.25613   0.00000  Uiso   1.00
H392   H     0.09141   0.96256   0.25660   0.00000  Uiso   1.00
H393   H     0.30298   0.77595   0.20883   0.00000  Uiso   1.00
H394   H     0.05392   0.77601   0.20873   0.00000  Uiso   1.00
H395   H     0.03040   0.89076   0.29105   0.00000  Uiso   1.00
H396   H     0.27997   0.89121   0.28993   0.00000  Uiso   1.00
H397   H     0.27641   0.88253   0.40384   0.00000  Uiso   1.00
H398   H     0.30428   0.85953   0.48029   0.00000  Uiso   1.00
H399   H     0.05360   0.82039   0.42185   0.00000  Uiso   1.00
H400   H     0.09088   0.83232   0.06369   0.00000  Uiso   1.00
H401   H     0.03199   0.81718   0.01969   0.00000  Uiso   1.00
H402   H     0.21139   0.88707   0.36626   0.00000  Uiso   1.00
H403   H     0.24138   0.96255   0.24562   0.00000  Uiso   1.00
N404   N     0.04760   0.83334   0.25002   0.00000  Uiso   1.00
N405   N     0.28573   0.83331   0.25001   0.00000  Uiso   1.00
O406   O     0.12846   0.89442   0.25001   0.00000  Uiso   1.00
O407   O     0.20490   0.89441   0.25001   0.00000  Uiso   1.00
O408   O     0.10947   0.83333   0.32681   0.00000  Uiso   1.00
O409   O     0.18591   0.83332   0.32681   0.00000  Uiso   1.00
O410   O     0.12843   0.77226   0.25000   0.00000  Uiso   1.00
O411   O     0.20488   0.77225   0.25000   0.00000  Uiso   1.00
O412   O     0.14742   0.83335   0.17319   0.00000  Uiso   1.00
O413   O     0.22387   0.83334   0.17319   0.00000  Uiso   1.00
Zn414  Zn    0.11562   0.83334   0.25000   0.00000  Uiso   1.00
Zn415  Zn    0.21771   0.83333   0.25000   0.00000  Uiso   1.00
S416   S     0.12830   0.89970   0.10580   0.00000  Uiso   1.00
O417   O     0.14879   0.92588   0.14030   0.00000  Uiso   1.00
O418   O     0.11520   0.92758   0.06665   0.00000  Uiso   1.00
O419   O     0.07857   0.87593   0.14477   0.00000  Uiso   1.00
H420   H     0.05573   0.89874   0.15992   0.00000  Uiso   1.00
C421   C     0.49987   0.91338   0.25053   0.00000  Uiso   1.00
C422   C     0.47943   0.85382   0.49135   0.00000  Uiso   1.00
C423   C     0.49132   0.85822   0.43530   0.00000  Uiso   1.00
C424   C     0.51551   0.86050   0.01503   0.00000  Uiso   1.00
C425   C     0.56375   0.86420   0.48243   0.00000  Uiso   1.00
C426   C     0.57372   0.87466   0.42861   0.00000  Uiso   1.00
C427   C     0.53671   0.87508   0.40651   0.00000  Uiso   1.00
C428   C     0.50538   0.86266   0.07027   0.00000  Uiso   1.00
C429   C     0.58848   0.84684   0.05903   0.00000  Uiso   1.00
C430   C     0.45860   0.84370   0.40977   0.00000  Uiso   1.00
C431   C     0.54186   0.97870   0.24803   0.00000  Uiso   1.00
C432   C     0.47406   0.83668   0.35173   0.00000  Uiso   1.00
C433   C     0.54193   0.68792   0.24774   0.00000  Uiso   1.00
C434   C     0.49986   0.70912   0.25050   0.00000  Uiso   1.00
C435   C     0.45768   0.68794   0.25379   0.00000  Uiso   1.00
C436   C     0.45760   0.97871   0.25412   0.00000  Uiso   1.00
C437   C     0.49974   0.95753   0.25103   0.00000  Uiso   1.00
C438   C     0.64920   0.80141   0.22720   0.00000  Uiso   1.00
C439   C     0.36384   0.80144   0.22717   0.00000  Uiso   1.00
C440   C     0.35080   0.86523   0.27284   0.00000  Uiso   1.00
C441   C     0.63631   0.86536   0.27246   0.00000  Uiso   1.00
C442   C     0.49997   0.75328   0.25008   0.00000  Uiso   1.00
C443   C     0.52591   0.83697   0.14846   0.00000  Uiso   1.00
C444   C     0.60039   0.85801   0.00492   0.00000  Uiso   1.00
C445   C     0.54045   0.84841   0.09185   0.00000  Uiso   1.00
C446   C     0.41252   0.83102   0.44072   0.00000  Uiso   1.00
C447   C     0.40012   0.82889   0.49623   0.00000  Uiso   1.00
C448   C     0.43367   0.83871   0.02127   0.00000  Uiso   1.00
H449   H     0.61650   0.83855   0.07554   0.00000  Uiso   1.00
H450   H     0.57482   0.70406   0.24516   0.00000  Uiso   1.00
H451   H     0.42484   0.70409   0.25613   0.00000  Uiso   1.00
H452   H     0.42474   0.96256   0.25660   0.00000  Uiso   1.00
H453   H     0.63632   0.77595   0.20883   0.00000  Uiso   1.00
H454   H     0.38725   0.77601   0.20873   0.00000  Uiso   1.00
H455   H     0.36373   0.89076   0.29105   0.00000  Uiso   1.00
H456   H     0.61331   0.89121   0.28993   0.00000  Uiso   1.00
H457   H     0.60974   0.88253   0.40384   0.00000  Uiso   1.00
H458   H     0.63761   0.85953   0.48029   0.00000  Uiso   1.00
H459   H     0.38694   0.82039   0.42185   0.00000  Uiso   1.00
H460   H     0.42421   0.83232   0.06369   0.00000  Uiso   1.00
H461   H     0.36533   0.81718   0.01969   0.00000  Uiso   1.00
H462   H     0.54473   0.88707   0.36626   0.00000  Uiso   1.00
H463   H     0.57471   0.96255   0.24562   0.00000  Uiso   1.00
N464   N     0.38093   0.83334   0.25002   0.00000  Uiso   1.00
N465   N     0.61906   0.83331   0.25001   0.00000  Uiso   1.00
O466   O     0.46179   0.89442   0.25001   0.00000  Uiso   1.00
O467   O     0.53823   0.89441   0.25001   0.00000  Uiso   1.00
O468   O     0.44280   0.83333   0.32681   0.00000  Uiso   1.00
O469   O     0.51924   0.83332   0.32681   0.00000  Uiso   1.00
O470   O     0.46177   0.77226   0.25000   0.00000  Uiso   1.00
O471   O     0.53821   0.77225   0.25000   0.00000  Uiso   1.00
O472   O     0.48076   0.83335   0.17319   0.00000  Uiso   1.00
O473   O     0.55720   0.83334   0.17319   0.00000  Uiso   1.00
Zn474  Zn    0.44896   0.83334   0.25000   0.00000  Uiso   1.00
Zn475  Zn    0.55104   0.83333   0.25000   0.00000  Uiso   1.00
S476   S     0.46163   0.89970   0.10580   0.00000  Uiso   1.00
O477   O     0.48212   0.92588   0.14030   0.00000  Uiso   1.00
O478   O     0.44853   0.92758   0.06665   0.00000  Uiso   1.00
O479   O     0.41190   0.87593   0.14477   0.00000  Uiso   1.00
H480   H     0.38906   0.89874   0.15992   0.00000  Uiso   1.00
C481   C     0.83320   0.91338   0.25053   0.00000  Uiso   1.00
C482   C     0.81276   0.85382   0.49135   0.00000  Uiso   1.00
C483   C     0.82465   0.85822   0.43530   0.00000  Uiso   1.00
C484   C     0.84885   0.86050   0.01503   0.00000  Uiso   1.00
C485   C     0.89708   0.86420   0.48243   0.00000  Uiso   1.00
C486   C     0.90705   0.87466   0.42861   0.00000  Uiso   1.00
C487   C     0.87004   0.87508   0.40651   0.00000  Uiso   1.00
C488   C     0.83872   0.86266   0.07027   0.00000  Uiso   1.00
C489   C     0.92181   0.84684   0.05903   0.00000  Uiso   1.00
C490   C     0.79193   0.84370   0.40977   0.00000  Uiso   1.00
C491   C     0.87519   0.97870   0.24803   0.00000  Uiso   1.00
C492   C     0.80740   0.83668   0.35173   0.00000  Uiso   1.00
C493   C     0.87526   0.68792   0.24774   0.00000  Uiso   1.00
C494   C     0.83320   0.70912   0.25050   0.00000  Uiso   1.00
C495   C     0.79101   0.68794   0.25379   0.00000  Uiso   1.00
C496   C     0.79094   0.97871   0.25412   0.00000  Uiso   1.00
C497   C     0.83308   0.95753   0.25103   0.00000  Uiso   1.00
C498   C     0.98253   0.80141   0.22720   0.00000  Uiso   1.00
C499   C     0.69717   0.80144   0.22717   0.00000  Uiso   1.00
C500   C     0.68414   0.86523   0.27284   0.00000  Uiso   1.00
C501   C     0.96964   0.86536   0.27246   0.00000  Uiso   1.00
C502   C     0.83330   0.75328   0.25008   0.00000  Uiso   1.00
C503   C     0.85924   0.83697   0.14846   0.00000  Uiso   1.00
C504   C     0.93373   0.85801   0.00492   0.00000  Uiso   1.00
C505   C     0.87379   0.84841   0.09185   0.00000  Uiso   1.00
C506   C     0.74585   0.83102   0.44072   0.00000  Uiso   1.00
C507   C     0.73346   0.82889   0.49623   0.00000  Uiso   1.00
C508   C     0.76700   0.83871   0.02127   0.00000  Uiso   1.00
H509   H     0.94983   0.83855   0.07554   0.00000  Uiso   1.00
H510   H     0.90815   0.70406   0.24516   0.00000  Uiso   1.00
H511   H     0.75818   0.70409   0.25613   0.00000  Uiso   1.00
H512   H     0.75808   0.96256   0.25660   0.00000  Uiso   1.00
H513   H     0.96965   0.77595   0.20883   0.00000  Uiso   1.00
H514   H     0.72058   0.77601   0.20873   0.00000  Uiso   1.00
H515   H     0.69706   0.89076   0.29105   0.00000  Uiso   1.00
H516   H     0.94664   0.89121   0.28993   0.00000  Uiso   1.00
H517   H     0.94308   0.88253   0.40384   0.00000  Uiso   1.00
H518   H     0.97095   0.85953   0.48029   0.00000  Uiso   1.00
H519   H     0.72027   0.82039   0.42185   0.00000  Uiso   1.00
H520   H     0.75755   0.83232   0.06369   0.00000  Uiso   1.00
H521   H     0.69866   0.81718   0.01969   0.00000  Uiso   1.00
H522   H     0.87806   0.88707   0.36626   0.00000  Uiso   1.00
H523   H     0.90804   0.96255   0.24562   0.00000  Uiso   1.00
N524   N     0.71426   0.83334   0.25002   0.00000  Uiso   1.00
N525   N     0.95239   0.83331   0.25001   0.00000  Uiso   1.00
O526   O     0.79512   0.89442   0.25001   0.00000  Uiso   1.00
O527   O     0.87157   0.89441   0.25001   0.00000  Uiso   1.00
O528   O     0.77613   0.83333   0.32681   0.00000  Uiso   1.00
O529   O     0.85258   0.83332   0.32681   0.00000  Uiso   1.00
O530   O     0.79510   0.77226   0.25000   0.00000  Uiso   1.00
O531   O     0.87154   0.77225   0.25000   0.00000  Uiso   1.00
O532   O     0.81409   0.83335   0.17319   0.00000  Uiso   1.00
O533   O     0.89053   0.83334   0.17319   0.00000  Uiso   1.00
Zn534  Zn    0.78229   0.83334   0.25000   0.00000  Uiso   1.00
Zn535  Zn    0.88438   0.83333   0.25000   0.00000  Uiso   1.00
S536   S     0.79496   0.89970   0.10580   0.00000  Uiso   1.00
O537   O     0.81545   0.92588   0.14030   0.00000  Uiso   1.00
O538   O     0.78186   0.92758   0.06665   0.00000  Uiso   1.00
O539   O     0.74524   0.87593   0.14477   0.00000  Uiso   1.00
H540   H     0.72239   0.89874   0.15992   0.00000  Uiso   1.00
C541   C     0.16654   0.24672   0.75053   0.00000  Uiso   1.00
C542   C     0.14609   0.18715   0.99135   0.00000  Uiso   1.00
C543   C     0.15798   0.19155   0.93530   0.00000  Uiso   1.00
C544   C     0.18218   0.19383   0.51503   0.00000  Uiso   1.00
C545   C     0.23041   0.19754   0.98243   0.00000  Uiso   1.00
C546   C     0.24038   0.20799   0.92861   0.00000  Uiso   1.00
C547   C     0.20338   0.20841   0.90651   0.00000  Uiso   1.00
C548   C     0.17205   0.19600   0.57027   0.00000  Uiso   1.00
C549   C     0.25514   0.18017   0.55903   0.00000  Uiso   1.00
C550   C     0.12527   0.17703   0.90977   0.00000  Uiso   1.00
C551   C     0.20853   0.31203   0.74803   0.00000  Uiso   1.00
C552   C     0.14073   0.17001   0.85173   0.00000  Uiso   1.00
C553   C     0.20859   0.02126   0.74774   0.00000  Uiso   1.00
C554   C     0.16653   0.04245   0.75050   0.00000  Uiso   1.00
C555   C     0.12434   0.02127   0.75379   0.00000  Uiso   1.00
C556   C     0.12427   0.31205   0.75412   0.00000  Uiso   1.00
C557   C     0.16641   0.29086   0.75103   0.00000  Uiso   1.00
C558   C     0.31587   0.13475   0.72720   0.00000  Uiso   1.00
C559   C     0.03050   0.13477   0.72717   0.00000  Uiso   1.00
C560   C     0.01747   0.19856   0.77284   0.00000  Uiso   1.00
C561   C     0.30298   0.19869   0.77246   0.00000  Uiso   1.00
C562   C     0.16664   0.08661   0.75008   0.00000  Uiso   1.00
C563   C     0.19258   0.17031   0.64846   0.00000  Uiso   1.00
C564   C     0.26706   0.19134   0.50492   0.00000  Uiso   1.00
C565   C     0.20712   0.18174   0.59185   0.00000  Uiso   1.00
C566   C     0.07918   0.16436   0.94072   0.00000  Uiso   1.00
C567   C     0.06679   0.16222   0.99623   0.00000  Uiso   1.00
C568   C     0.10034   0.17204   0.52127   0.00000  Uiso   1.00
H569   H     0.28317   0.17188   0.57554   0.00000  Uiso   1.00
H570   H     0.24148   0.03739   0.74516   0.00000  Uiso   1.00
H571   H     0.09151   0.03743   0.75613   0.00000  Uiso   1.00
H572   H     0.09141   0.29590   0.75660   0.00000  Uiso   1.00
H573   H     0.30298   0.10928   0.70883   0.00000  Uiso   1.00
H574   H     0.05392   0.10935   0.70873   0.00000  Uiso   1.00
H575   H     0.03040   0.22410   0.79105   0.00000  Uiso   1.00
H576   H     0.27997   0.22455   0.78993   0.00000  Uiso   1.00
H577   H     0.27641   0.21586   0.90384   0.00000  Uiso   1.00
H578   H     0.30428   0.19286   0.98029   0.00000  Uiso   1.00
H579   H     0.05360   0.15373   0.92185   0.00000  Uiso   1.00
H580   H     0.09088   0.16565   0.56369   0.00000  Uiso   1.00
H581   H     0.03199   0.15052   0.51969   0.00000  Uiso   1.00
H582   H     0.21139   0.22040   0.86626   0.00000  Uiso   1.00
H583   H     0.24138   0.29588   0.74562   0.00000  Uiso   1.00
N584   N     0.04760   0.16668   0.75002   0.00000  Uiso   1.00
N585   N     0.28573   0.16665   0.75001   0.00000  Uiso   1.00
O586   O     0.12846   0.22775   0.75001   0.00000  Uiso   1.00
O587   O     0.20490   0.22774   0.75001   0.00000  Uiso   1.00
O588   O     0.10947   0.16666   0.82681   0.00000  Uiso   1.00
O589   O     0.18591   0.16665   0.82681   0.00000  Uiso   1.00
O590   O     0.12843   0.10559   0.75000   0.00000  Uiso   1.00
O591   O     0.20488   0.10558   0.75000   0.00000  Uiso   1.00
O592   O     0.14742   0.16668   0.67319   0.00000  Uiso   1.00
O593   O     0.22387   0.16667   0.67319   0.00000  Uiso   1.00
Zn594  Zn    0.11562   0.16667   0.75000   0.00000  Uiso   1.00
Zn595  Zn    0.21771   0.16666   0.75000   0.00000  Uiso   1.00
S596   S     0.12830   0.23303   0.60580   0.00000  Uiso   1.00
O597   O     0.14879   0.25922   0.64030   0.00000  Uiso   1.00
O598   O     0.11520   0.26091   0.56665   0.00000  Uiso   1.00
O599   O     0.07857   0.20927   0.64477   0.00000  Uiso   1.00
H600   H     0.05573   0.23207   0.65992   0.00000  Uiso   1.00
C601   C     0.49987   0.24672   0.75053   0.00000  Uiso   1.00
C602   C     0.47943   0.18715   0.99135   0.00000  Uiso   1.00
C603   C     0.49132   0.19155   0.93530   0.00000  Uiso   1.00
C604   C     0.51551   0.19383   0.51503   0.00000  Uiso   1.00
C605   C     0.56375   0.19754   0.98243   0.00000  Uiso   1.00
C606   C     0.57372   0.20799   0.92861   0.00000  Uiso   1.00
C607   C     0.53671   0.20841   0.90651   0.00000  Uiso   1.00
C608   C     0.50538   0.19600   0.57027   0.00000  Uiso   1.00
C609   C     0.58848   0.18017   0.55903   0.00000  Uiso   1.00
C610   C     0.45860   0.17703   0.90977   0.00000  Uiso   1.00
C611   C     0.54186   0.31203   0.74803   0.00000  Uiso   1.00
C612   C     0.47406   0.17001   0.85173   0.00000  Uiso   1.00
C613   C     0.54193   0.02126   0.74774   0.00000  Uiso   1.00
C614   C     0.49986   0.04245   0.75050   0.00000  Uiso   1.00
C615   C     0.45768   0.02127   0.75379   0.00000  Uiso   1.00
C616   C     0.45760   0.31205   0.75412   0.00000  Uiso   1.00
C617   C     0.49974   0.29086   0.75103   0.00000  Uiso   1.00
C618   C     0.64920   0.13475   0.72720   0.00000  Uiso   1.00
C619   C     0.36384   0.13477   0.72717   0.00000  Uiso   1.00
C620   C     0.35080   0.19856   0.77284   0.00000  Uiso   1.00
C621   C     0.63631   0.19869   0.77246   0.00000  Uiso   1.00
C622   C     0.49997   0.08661   0.75008   0.00000  Uiso   1.00
C623   C     0.52591   0.17031   0.64846   0.00000  Uiso   1.00
C624   C     0.60039   0.19134   0.50492   0.00000  Uiso   1.00
C625   C     0.54045   0.18174   0.59185   0.00000  Uiso   1.00
C626   C     0.41252   0.16436   0.94072   0.00000  Uiso   1.00
C627   C     0.40012   0.16222   0.99623   0.00000  Uiso   1.00
C628   C     0.43367   0.17204   0.52127   0.00000  Uiso   1.00
H629   H     0.61650   0.17188   0.57554   0.00000  Uiso   1.00
H630   H     0.57482   0.03739   0.74516   0.00000  Uiso   1.00
H631   H     0.42484   0.03743   0.75613   0.00000  Uiso   1.00
H632   H     0.42474   0.29590   0.75660   0.00000  Uiso   1.00
H633   H     0.63632   0.10928   0.70883   0.00000  Uiso   1.00
H634   H     0.38725   0.10935   0.70873   0.00000  Uiso   1.00
H635   H     0.36373   0.22410   0.79105   0.00000  Uiso   1.00
H636   H     0.61331   0.22455   0.78993   0.00000  Uiso   1.00
H637   H     0.60974   0.21586   0.90384   0.00000  Uiso   1.00
H638   H     0.63761   0.19286   0.98029   0.00000  Uiso   1.00
H639   H     0.38694   0.15373   0.92185   0.00000  Uiso   1.00
H640   H     0.42421   0.16565   0.56369   0.00000  Uiso   1.00
H641   H     0.36533   0.15052   0.51969   0.00000  Uiso   1.00
H642   H     0.54473   0.22040   0.86626   0.00000  Uiso   1.00
H643   H     0.57471   0.29588   0.74562   0.00000  Uiso   1.00
N644   N     0.38093   0.16668   0.75002   0.00000  Uiso   1.00
N645   N     0.61906   0.16665   0.75001   0.00000  Uiso   1.00
O646   O     0.46179   0.22775   0.75001   0.00000  Uiso   1.00
O647   O     0.53823   0.22774   0.75001   0.00000  Uiso   1.00
O648   O     0.44280   0.16666   0.82681   0.00000  Uiso   1.00
O649   O     0.51924   0.16665   0.82681   0.00000  Uiso   1.00
O650   O     0.46177   0.10559   0.75000   0.00000  Uiso   1.00
O651   O     0.53821   0.10558   0.75000   0.00000  Uiso   1.00
O652   O     0.48076   0.16668   0.67319   0.00000  Uiso   1.00
O653   O     0.55720   0.16667   0.67319   0.00000  Uiso   1.00
Zn654  Zn    0.44896   0.16667   0.75000   0.00000  Uiso   1.00
Zn655  Zn    0.55104   0.16666   0.75000   0.00000  Uiso   1.00
S656   S     0.46163   0.23303   0.60580   0.00000  Uiso   1.00
O657   O     0.48212   0.25922   0.64030   0.00000  Uiso   1.00
O658   O     0.44853   0.26091   0.56665   0.00000  Uiso   1.00
O659   O     0.41190   0.20927   0.64477   0.00000  Uiso   1.00
H660   H     0.38906   0.23207   0.65992   0.00000  Uiso   1.00
C661   C     0.83320   0.24672   0.75053   0.00000  Uiso   1.00
C662   C     0.81276   0.18715   0.99135   0.00000  Uiso   1.00
C663   C     0.82465   0.19155   0.93530   0.00000  Uiso   1.00
C664   C     0.84885   0.19383   0.51503   0.00000  Uiso   1.00
C665   C     0.89708   0.19754   0.98243   0.00000  Uiso   1.00
C666   C     0.90705   0.20799   0.92861   0.00000  Uiso   1.00
C667   C     0.87004   0.20841   0.90651   0.00000  Uiso   1.00
C668   C     0.83872   0.19600   0.57027   0.00000  Uiso   1.00
C669   C     0.92181   0.18017   0.55903   0.00000  Uiso   1.00
C670   C     0.79193   0.17703   0.90977   0.00000  Uiso   1.00
C671   C     0.87519   0.31203   0.74803   0.00000  Uiso   1.00
C672   C     0.80740   0.17001   0.85173   0.00000  Uiso   1.00
C673   C     0.87526   0.02126   0.74774   0.00000  Uiso   1.00
C674   C     0.83320   0.04245   0.75050   0.00000  Uiso   1.00
C675   C     0.79101   0.02127   0.75379   0.00000  Uiso   1.00
C676   C     0.79094   0.31205   0.75412   0.00000  Uiso   1.00
C677   C     0.83308   0.29086   0.75103   0.00000  Uiso   1.00
C678   C     0.98253   0.13475   0.72720   0.00000  Uiso   1.00
C679   C     0.69717   0.13477   0.72717   0.00000  Uiso   1.00
C680   C     0.68414   0.19856   0.77284   0.00000  Uiso   1.00
C681   C     0.96964   0.19869   0.77246   0.00000  Uiso   1.00
C682   C     0.83330   0.08661   0.75008   0.00000  Uiso   1.00
C683   C     0.85924   0.17031   0.64846   0.00000  Uiso   1.00
C684   C     0.93373   0.19134   0.50492   0.00000  Uiso   1.00
C685   C     0.87379   0.18174   0.59185   0.00000  Uiso   1.00
C686   C     0.74585   0.16436   0.94072   0.00000  Uiso   1.00
C687   C     0.73346   0.16222   0.99623   0.00000  Uiso   1.00
C688   C     0.76700   0.17204   0.52127   0.00000  Uiso   1.00
H689   H     0.94983   0.17188   0.57554   0.00000  Uiso   1.00
H690   H     0.90815   0.03739   0.74516   0.00000  Uiso   1.00
H691   H     0.75818   0.03743   0.75613   0.00000  Uiso   1.00
H692   H     0.75808   0.29590   0.75660   0.00000  Uiso   1.00
H693   H     0.96965   0.10928   0.70883   0.00000  Uiso   1.00
H694   H     0.72058   0.10935   0.70873   0.00000  Uiso   1.00
H695   H     0.69706   0.22410   0.79105   0.00000  Uiso   1.00
H696   H     0.94664   0.22455   0.78993   0.00000  Uiso   1.00
H697   H     0.94308   0.21586   0.90384   0.00000  Uiso   1.00
H698   H     0.97095   0.19286   0.98029   0.00000  Uiso   1.00
H699   H     0.72027   0.15373   0.92185   0.00000  Uiso   1.00
H700   H     0.75755   0.16565   0.56369   0.00000  Uiso   1.00
H701   H     0.69866   0.15052   0.51969   0.00000  Uiso   1.00
H702   H     0.87806   0.22040   0.86626   0.00000  Uiso   1.00
H703   H     0.90804   0.29588   0.74562   0.00000  Uiso   1.00
N704   N     0.71426   0.16668   0.75002   0.00000  Uiso   1.00
N705   N     0.95239   0.16665   0.75001   0.00000  Uiso   1.00
O706   O     0.79512   0.22775   0.75001   0.00000  Uiso   1.00
O707   O     0.87157   0.22774   0.75001   0.00000  Uiso   1.00
O708   O     0.77613   0.16666   0.82681   0.00000  Uiso   1.00
O709   O     0.85258   0.16665   0.82681   0.00000  Uiso   1.00
O710   O     0.79510   0.10559   0.75000   0.00000  Uiso   1.00
O711   O     0.87154   0.10558   0.75000   0.00000  Uiso   1.00
O712   O     0.81409   0.16668   0.67319   0.00000  Uiso   1.00
O713   O     0.89053   0.16667   0.67319   0.00000  Uiso   1.00
Zn714  Zn    0.78229   0.16667   0.75000   0.00000  Uiso   1.00
Zn715  Zn    0.88438   0.16666   0.75000   0.00000  Uiso   1.00
S716   S     0.79496   0.23303   0.60580   0.00000  Uiso   1.00
O717   O     0.81545   0.25922   0.64030   0.00000  Uiso   1.00
O718   O     0.78186   0.26091   0.56665   0.00000  Uiso   1.00
O719   O     0.74524   0.20927   0.64477   0.00000  Uiso   1.00
H720   H     0.72239   0.23207   0.65992   0.00000  Uiso   1.00
C721   C     0.16654   0.58005   0.75053   0.00000  Uiso   1.00
C722   C     0.14609   0.52049   0.99135   0.00000  Uiso   1.00
C723   C     0.15798   0.52489   0.93530   0.00000  Uiso   1.00
C724   C     0.18218   0.52717   0.51503   0.00000  Uiso   1.00
C725   C     0.23041   0.53087   0.98243   0.00000  Uiso   1.00
C726   C     0.24038   0.54133   0.92861   0.00000  Uiso   1.00
C727   C     0.20338   0.54175   0.90651   0.00000  Uiso   1.00
C728   C     0.17205   0.52933   0.57027   0.00000  Uiso   1.00
C729   C     0.25514   0.51350   0.55903   0.00000  Uiso   1.00
C730   C     0.12527   0.51037   0.90977   0.00000  Uiso   1.00
C731   C     0.20853   0.64537   0.74803   0.00000  Uiso   1.00
C732   C     0.14073   0.50335   0.85173   0.00000  Uiso   1.00
C733   C     0.20859   0.35459   0.74774   0.00000  Uiso   1.00
C734   C     0.16653   0.37579   0.75050   0.00000  Uiso   1.00
C735   C     0.12434   0.35461   0.75379   0.00000  Uiso   1.00
C736   C     0.12427   0.64538   0.75412   0.00000  Uiso   1.00
C737   C     0.16641   0.62419   0.75103   0.00000  Uiso   1.00
C738   C     0.31587   0.46808   0.72720   0.00000  Uiso   1.00
C739   C     0.03050   0.46811   0.72717   0.00000  Uiso   1.00
C740   C     0.01747   0.53189   0.77284   0.00000  Uiso   1.00
C741   C     0.30298   0.53202   0.77246   0.00000  Uiso   1.00
C742   C     0.16664   0.41994   0.75008   0.00000  Uiso   1.00
C743   C     0.19258   0.50364   0.64846   0.00000  Uiso   1.00
C744   C     0.26706   0.52467   0.50492   0.00000  Uiso   1.00
C745   C     0.20712   0.51507   0.59185   0.00000  Uiso   1.00
C746   C     0.07918   0.49769   0.94072   0.00000  Uiso   1.00
C747   C     0.06679   0.49556   0.99623   0.00000  Uiso   1.00
C748   C     0.10034   0.50537   0.52127   0.00000  Uiso   1.00
H749   H     0.28317   0.50522   0.57554   0.00000  Uiso   1.00
H750   H     0.24148   0.37073   0.74516   0.00000  Uiso   1.00
H751   H     0.09151   0.37076   0.75613   0.00000  Uiso   1.00
H752   H     0.09141   0.62923   0.75660   0.00000  Uiso   1.00
H753   H     0.30298   0.44261   0.70883   0.00000  Uiso   1.00
H754   H     0.05392   0.44268   0.70873   0.00000  Uiso   1.00
H755   H     0.03040   0.55743   0.79105   0.00000  Uiso   1.00
H756   H     0.27997   0.55788   0.78993   0.00000  Uiso   1.00
H757   H     0.27641   0.54920   0.90384   0.00000  Uiso   1.00
H758   H     0.30428   0.52619   0.98029   0.00000  Uiso   1.00
H759   H     0.05360   0.48706   0.92185   0.00000  Uiso   1.00
H760   H     0.09088   0.49898   0.56369   0.00000  Uiso   1.00
H761   H     0.03199   0.48385   0.51969   0.00000  Uiso   1.00
H762   H     0.21139   0.55373   0.86626   0.00000  Uiso   1.00
H763   H     0.24138   0.62922   0.74562   0.00000  Uiso   1.00
N764   N     0.04760   0.50001   0.75002   0.00000  Uiso   1.00
N765   N     0.28573   0.49998   0.75001   0.00000  Uiso   1.00
O766   O     0.12846   0.56108   0.75001   0.00000  Uiso   1.00
O767   O     0.20490   0.56107   0.75001   0.00000  Uiso   1.00
O768   O     0.10947   0.50000   0.82681   0.00000  Uiso   1.00
O769   O     0.18591   0.49999   0.82681   0.00000  Uiso   1.00
O770   O     0.12843   0.43893   0.75000   0.00000  Uiso   1.00
O771   O     0.20488   0.43892   0.75000   0.00000  Uiso   1.00
O772   O     0.14742   0.50001   0.67319   0.00000  Uiso   1.00
O773   O     0.22387   0.50000   0.67319   0.00000  Uiso   1.00
Zn774  Zn    0.11562   0.50001   0.75000   0.00000  Uiso   1.00
Zn775  Zn    0.21771   0.49999   0.75000   0.00000  Uiso   1.00
S776   S     0.12830   0.56636   0.60580   0.00000  Uiso   1.00
O777   O     0.14879   0.59255   0.64030   0.00000  Uiso   1.00
O778   O     0.11520   0.59425   0.56665   0.00000  Uiso   1.00
O779   O     0.07857   0.54260   0.64477   0.00000  Uiso   1.00
H780   H     0.05573   0.56540   0.65992   0.00000  Uiso   1.00
C781   C     0.49987   0.58005   0.75053   0.00000  Uiso   1.00
C782   C     0.47943   0.52049   0.99135   0.00000  Uiso   1.00
C783   C     0.49132   0.52489   0.93530   0.00000  Uiso   1.00
C784   C     0.51551   0.52717   0.51503   0.00000  Uiso   1.00
C785   C     0.56375   0.53087   0.98243   0.00000  Uiso   1.00
C786   C     0.57372   0.54133   0.92861   0.00000  Uiso   1.00
C787   C     0.53671   0.54175   0.90651   0.00000  Uiso   1.00
C788   C     0.50538   0.52933   0.57027   0.00000  Uiso   1.00
C789   C     0.58848   0.51350   0.55903   0.00000  Uiso   1.00
C790   C     0.45860   0.51037   0.90977   0.00000  Uiso   1.00
C791   C     0.54186   0.64537   0.74803   0.00000  Uiso   1.00
C792   C     0.47406   0.50335   0.85173   0.00000  Uiso   1.00
C793   C     0.54193   0.35459   0.74774   0.00000  Uiso   1.00
C794   C     0.49986   0.37579   0.75050   0.00000  Uiso   1.00
C795   C     0.45768   0.35461   0.75379   0.00000  Uiso   1.00
C796   C     0.45760   0.64538   0.75412   0.00000  Uiso   1.00
C797   C     0.49974   0.62419   0.75103   0.00000  Uiso   1.00
C798   C     0.64920   0.46808   0.72720   0.00000  Uiso   1.00
C799   C     0.36384   0.46811   0.72717   0.00000  Uiso   1.00
C800   C     0.35080   0.53189   0.77284   0.00000  Uiso   1.00
C801   C     0.63631   0.53202   0.77246   0.00000  Uiso   1.00
C802   C     0.49997   0.41994   0.75008   0.00000  Uiso   1.00
C803   C     0.52591   0.50364   0.64846   0.00000  Uiso   1.00
C804   C     0.60039   0.52467   0.50492   0.00000  Uiso   1.00
C805   C     0.54045   0.51507   0.59185   0.00000  Uiso   1.00
C806   C     0.41252   0.49769   0.94072   0.00000  Uiso   1.00
C807   C     0.40012   0.49556   0.99623   0.00000  Uiso   1.00
C808   C     0.43367   0.50537   0.52127   0.00000  Uiso   1.00
H809   H     0.61650   0.50522   0.57554   0.00000  Uiso   1.00
H810   H     0.57482   0.37073   0.74516   0.00000  Uiso   1.00
H811   H     0.42484   0.37076   0.75613   0.00000  Uiso   1.00
H812   H     0.42474   0.62923   0.75660   0.00000  Uiso   1.00
H813   H     0.63632   0.44261   0.70883   0.00000  Uiso   1.00
H814   H     0.38725   0.44268   0.70873   0.00000  Uiso   1.00
H815   H     0.36373   0.55743   0.79105   0.00000  Uiso   1.00
H816   H     0.61331   0.55788   0.78993   0.00000  Uiso   1.00
H817   H     0.60974   0.54920   0.90384   0.00000  Uiso   1.00
H818   H     0.63761   0.52619   0.98029   0.00000  Uiso   1.00
H819   H     0.38694   0.48706   0.92185   0.00000  Uiso   1.00
H820   H     0.42421   0.49898   0.56369   0.00000  Uiso   1.00
H821   H     0.36533   0.48385   0.51969   0.00000  Uiso   1.00
H822   H     0.54473   0.55373   0.86626   0.00000  Uiso   1.00
H823   H     0.57471   0.62922   0.74562   0.00000  Uiso   1.00
N824   N     0.38093   0.50001   0.75002   0.00000  Uiso   1.00
N825   N     0.61906   0.49998   0.75001   0.00000  Uiso   1.00
O826   O     0.46179   0.56108   0.75001   0.00000  Uiso   1.00
O827   O     0.53823   0.56107   0.75001   0.00000  Uiso   1.00
O828   O     0.44280   0.50000   0.82681   0.00000  Uiso   1.00
O829   O     0.51924   0.49999   0.82681   0.00000  Uiso   1.00
O830   O     0.46177   0.43893   0.75000   0.00000  Uiso   1.00
O831   O     0.53821   0.43892   0.75000   0.00000  Uiso   1.00
O832   O     0.48076   0.50001   0.67319   0.00000  Uiso   1.00
O833   O     0.55720   0.50000   0.67319   0.00000  Uiso   1.00
Zn834  Zn    0.44896   0.50001   0.75000   0.00000  Uiso   1.00
Zn835  Zn    0.55104   0.49999   0.75000   0.00000  Uiso   1.00
S836   S     0.46163   0.56636   0.60580   0.00000  Uiso   1.00
O837   O     0.48212   0.59255   0.64030   0.00000  Uiso   1.00
O838   O     0.44853   0.59425   0.56665   0.00000  Uiso   1.00
O839   O     0.41190   0.54260   0.64477   0.00000  Uiso   1.00
H840   H     0.38906   0.56540   0.65992   0.00000  Uiso   1.00
C841   C     0.83320   0.58005   0.75053   0.00000  Uiso   1.00
C842   C     0.81276   0.52049   0.99135   0.00000  Uiso   1.00
C843   C     0.82465   0.52489   0.93530   0.00000  Uiso   1.00
C844   C     0.84885   0.52717   0.51503   0.00000  Uiso   1.00
C845   C     0.89708   0.53087   0.98243   0.00000  Uiso   1.00
C846   C     0.90705   0.54133   0.92861   0.00000  Uiso   1.00
C847   C     0.87004   0.54175   0.90651   0.00000  Uiso   1.00
C848   C     0.83872   0.52933   0.57027   0.00000  Uiso   1.00
C849   C     0.92181   0.51350   0.55903   0.00000  Uiso   1.00
C850   C     0.79193   0.51037   0.90977   0.00000  Uiso   1.00
C851   C     0.87519   0.64537   0.74803   0.00000  Uiso   1.00
C852   C     0.80740   0.50335   0.85173   0.00000  Uiso   1.00
C853   C     0.87526   0.35459   0.74774   0.00000  Uiso   1.00
C854   C     0.83320   0.37579   0.75050   0.00000  Uiso   1.00
C855   C     0.79101   0.35461   0.75379   0.00000  Uiso   1.00
C856   C     0.79094   0.64538   0.75412   0.00000  Uiso   1.00
C857   C     0.83308   0.62419   0.75103   0.00000  Uiso   1.00
C858   C     0.98253   0.46808   0.72720   0.00000  Uiso   1.00
C859   C     0.69717   0.46811   0.72717   0.00000  Uiso   1.00
C860   C     0.68414   0.53189   0.77284   0.00000  Uiso   1.00
C861   C     0.96964   0.53202   0.77246   0.00000  Uiso   1.00
C862   C     0.83330   0.41994   0.75008   0.00000  Uiso   1.00
C863   C     0.85924   0.50364   0.64846   0.00000  Uiso   1.00
C864   C     0.93373   0.52467   0.50492   0.00000  Uiso   1.00
C865   C     0.87379   0.51507   0.59185   0.00000  Uiso   1.00
C866   C     0.74585   0.49769   0.94072   0.00000  Uiso   1.00
C867   C     0.73346   0.49556   0.99623   0.00000  Uiso   1.00
C868   C     0.76700   0.50537   0.52127   0.00000  Uiso   1.00
H869   H     0.94983   0.50522   0.57554   0.00000  Uiso   1.00
H870   H     0.90815   0.37073   0.74516   0.00000  Uiso   1.00
H871   H     0.75818   0.37076   0.75613   0.00000  Uiso   1.00
H872   H     0.75808   0.62923   0.75660   0.00000  Uiso   1.00
H873   H     0.96965   0.44261   0.70883   0.00000  Uiso   1.00
H874   H     0.72058   0.44268   0.70873   0.00000  Uiso   1.00
H875   H     0.69706   0.55743   0.79105   0.00000  Uiso   1.00
H876   H     0.94664   0.55788   0.78993   0.00000  Uiso   1.00
H877   H     0.94308   0.54920   0.90384   0.00000  Uiso   1.00
H878   H     0.97095   0.52619   0.98029   0.00000  Uiso   1.00
H879   H     0.72027   0.48706   0.92185   0.00000  Uiso   1.00
H880   H     0.75755   0.49898   0.56369   0.00000  Uiso   1.00
H881   H     0.69866   0.48385   0.51969   0.00000  Uiso   1.00
H882   H     0.87806   0.55373   0.86626   0.00000  Uiso   1.00
H883   H     0.90804   0.62922   0.74562   0.00000  Uiso   1.00
N884   N     0.71426   0.50001   0.75002   0.00000  Uiso   1.00
N885   N     0.95239   0.49998   0.75001   0.00000  Uiso   1.00
O886   O     0.79512   0.56108   0.75001   0.00000  Uiso   1.00
O887   O     0.87157   0.56107   0.75001   0.00000  Uiso   1.00
O888   O     0.77613   0.50000   0.82681   0.00000  Uiso   1.00
O889   O     0.85258   0.49999   0.82681   0.00000  Uiso   1.00
O890   O     0.79510   0.43893   0.75000   0.00000  Uiso   1.00
O891   O     0.87154   0.43892   0.75000   0.00000  Uiso   1.00
O892   O     0.81409   0.50001   0.67319   0.00000  Uiso   1.00
O893   O     0.89053   0.50000   0.67319   0.00000  Uiso   1.00
Zn894  Zn    0.78229   0.50001   0.75000   0.00000  Uiso   1.00
Zn895  Zn    0.88438   0.49999   0.75000   0.00000  Uiso   1.00
S896   S     0.79496   0.56636   0.60580   0.00000  Uiso   1.00
O897   O     0.81545   0.59255   0.64030   0.00000  Uiso   1.00
O898   O     0.78186   0.59425   0.56665   0.00000  Uiso   1.00
O899   O     0.74524   0.54260   0.64477   0.00000  Uiso   1.00
H900   H     0.72239   0.56540   0.65992   0.00000  Uiso   1.00
C901   C     0.16654   0.91338   0.75053   0.00000  Uiso   1.00
C902   C     0.14609   0.85382   0.99135   0.00000  Uiso   1.00
C903   C     0.15798   0.85822   0.93530   0.00000  Uiso   1.00
C904   C     0.18218   0.86050   0.51503   0.00000  Uiso   1.00
C905   C     0.23041   0.86420   0.98243   0.00000  Uiso   1.00
C906   C     0.24038   0.87466   0.92861   0.00000  Uiso   1.00
C907   C     0.20338   0.87508   0.90651   0.00000  Uiso   1.00
C908   C     0.17205   0.86266   0.57027   0.00000  Uiso   1.00
C909   C     0.25514   0.84684   0.55903   0.00000  Uiso   1.00
C910   C     0.12527   0.84370   0.90977   0.00000  Uiso   1.00
C911   C     0.20853   0.97870   0.74803   0.00000  Uiso   1.00
C912   C     0.14073   0.83668   0.85173   0.00000  Uiso   1.00
C913   C     0.20859   0.68792   0.74774   0.00000  Uiso   1.00
C914   C     0.16653   0.70912   0.75050   0.00000  Uiso   1.00
C915   C     0.12434   0.68794   0.75379   0.00000  Uiso   1.00
C916   C     0.12427   0.97871   0.75412   0.00000  Uiso   1.00
C917   C     0.16641   0.95753   0.75103   0.00000  Uiso   1.00
C918   C     0.31587   0.80141   0.72720   0.00000  Uiso   1.00
C919   C     0.03050   0.80144   0.72717   0.00000  Uiso   1.00
C920   C     0.01747   0.86523   0.77284   0.00000  Uiso   1.00
C921   C     0.30298   0.86536   0.77246   0.00000  Uiso   1.00
C922   C     0.16664   0.75328   0.75008   0.00000  Uiso   1.00
C923   C     0.19258   0.83697   0.64846   0.00000  Uiso   1.00
C924   C     0.26706   0.85801   0.50492   0.00000  Uiso   1.00
C925   C     0.20712   0.84841   0.59185   0.00000  Uiso   1.00
C926   C     0.07918   0.83102   0.94072   0.00000  Uiso   1.00
C927   C     0.06679   0.82889   0.99623   0.00000  Uiso   1.00
C928   C     0.10034   0.83871   0.52127   0.00000  Uiso   1.00
H929   H     0.28317   0.83855   0.57554   0.00000  Uiso   1.00
H930   H     0.24148   0.70406   0.74516   0.00000  Uiso   1.00
H931   H     0.09151   0.70409   0.75613   0.00000  Uiso   1.00
H932   H     0.09141   0.96256   0.75660   0.00000  Uiso   1.00
H933   H     0.30298   0.77595   0.70883   0.00000  Uiso   1.00
H934   H     0.05392   0.77601   0.70873   0.00000  Uiso   1.00
H935   H     0.03040   0.89076   0.79105   0.00000  Uiso   1.00
H936   H     0.27997   0.89121   0.78993   0.00000  Uiso   1.00
H937   H     0.27641   0.88253   0.90384   0.00000  Uiso   1.00
H938   H     0.30428   0.85953   0.98029   0.00000  Uiso   1.00
H939   H     0.05360   0.82039   0.92185   0.00000  Uiso   1.00
H940   H     0.09088   0.83232   0.56369   0.00000  Uiso   1.00
H941   H     0.03199   0.81718   0.51969   0.00000  Uiso   1.00
H942   H     0.21139   0.88707   0.86626   0.00000  Uiso   1.00
H943   H     0.24138   0.96255   0.74562   0.00000  Uiso   1.00
N944   N     0.04760   0.83334   0.75002   0.00000  Uiso   1.00
N945   N     0.28573   0.83331   0.75001   0.00000  Uiso   1.00
O946   O     0.12846   0.89442   0.75001   0.00000  Uiso   1.00
O947   O     0.20490   0.89441   0.75001   0.00000  Uiso   1.00
O948   O     0.10947   0.83333   0.82681   0.00000  Uiso   1.00
O949   O     0.18591   0.83332   0.82681   0.00000  Uiso   1.00
O950   O     0.12843   0.77226   0.75000   0.00000  Uiso   1.00
O951   O     0.20488   0.77225   0.75000   0.00000  Uiso   1.00
O952   O     0.14742   0.83335   0.67319   0.00000  Uiso   1.00
O953   O     0.22387   0.83334   0.67319   0.00000  Uiso   1.00
Zn954  Zn    0.11562   0.83334   0.75000   0.00000  Uiso   1.00
Zn955  Zn    0.21771   0.83333   0.75000   0.00000  Uiso   1.00
S956   S     0.12830   0.89970   0.60580   0.00000  Uiso   1.00
O957   O     0.14879   0.92588   0.64030   0.00000  Uiso   1.00
O958   O     0.11520   0.92758   0.56665   0.00000  Uiso   1.00
O959   O     0.07857   0.87593   0.64477   0.00000  Uiso   1.00
H960   H     0.05573   0.89874   0.65992   0.00000  Uiso   1.00
C961   C     0.49987   0.91338   0.75053   0.00000  Uiso   1.00
C962   C     0.47943   0.85382   0.99135   0.00000  Uiso   1.00
C963   C     0.49132   0.85822   0.93530   0.00000  Uiso   1.00
C964   C     0.51551   0.86050   0.51503   0.00000  Uiso   1.00
C965   C     0.56375   0.86420   0.98243   0.00000  Uiso   1.00
C966   C     0.57372   0.87466   0.92861   0.00000  Uiso   1.00
C967   C     0.53671   0.87508   0.90651   0.00000  Uiso   1.00
C968   C     0.50538   0.86266   0.57027   0.00000  Uiso   1.00
C969   C     0.58848   0.84684   0.55903   0.00000  Uiso   1.00
C970   C     0.45860   0.84370   0.90977   0.00000  Uiso   1.00
C971   C     0.54186   0.97870   0.74803   0.00000  Uiso   1.00
C972   C     0.47406   0.83668   0.85173   0.00000  Uiso   1.00
C973   C     0.54193   0.68792   0.74774   0.00000  Uiso   1.00
C974   C     0.49986   0.70912   0.75050   0.00000  Uiso   1.00
C975   C     0.45768   0.68794   0.75379   0.00000  Uiso   1.00
C976   C     0.45760   0.97871   0.75412   0.00000  Uiso   1.00
C977   C     0.49974   0.95753   0.75103   0.00000  Uiso   1.00
C978   C     0.64920   0.80141   0.72720   0.00000  Uiso   1.00
C979   C     0.36384   0.80144   0.72717   0.00000  Uiso   1.00
C980   C     0.35080   0.86523   0.77284   0.00000  Uiso   1.00
C981   C     0.63631   0.86536   0.77246   0.00000  Uiso   1.00
C982   C     0.49997   0.75328   0.75008   0.00000  Uiso   1.00
C983   C     0.52591   0.83697   0.64846   0.00000  Uiso   1.00
C984   C     0.60039   0.85801   0.50492   0.00000  Uiso   1.00
C985   C     0.54045   0.84841   0.59185   0.00000  Uiso   1.00
C986   C     0.41252   0.83102   0.94072   0.00000  Uiso   1.00
C987   C     0.40012   0.82889   0.99623   0.00000  Uiso   1.00
C988   C     0.43367   0.83871   0.52127   0.00000  Uiso   1.00
H989   H     0.61650   0.83855   0.57554   0.00000  Uiso   1.00
H990   H     0.57482   0.70406   0.74516   0.00000  Uiso   1.00
H991   H     0.42484   0.70409   0.75613   0.00000  Uiso   1.00
H992   H     0.42474   0.96256   0.75660   0.00000  Uiso   1.00
H993   H     0.63632   0.77595   0.70883   0.00000  Uiso   1.00
H994   H     0.38725   0.77601   0.70873   0.00000  Uiso   1.00
H995   H     0.36373   0.89076   0.79105   0.00000  Uiso   1.00
H996   H     0.61331   0.89121   0.78993   0.00000  Uiso   1.00
H997   H     0.60974   0.88253   0.90384   0.00000  Uiso   1.00
H998   H     0.63761   0.85953   0.98029   0.00000  Uiso   1.00
H999   H     0.38694   0.82039   0.92185   0.00000  Uiso   1.00
H1000  H     0.42421   0.83232   0.56369   0.00000  Uiso   1.00
H1001  H     0.36533   0.81718   0.51969   0.00000  Uiso   1.00
H1002  H     0.54473   0.88707   0.86626   0.00000  Uiso   1.00
H1003  H     0.57471   0.96255   0.74562   0.00000  Uiso   1.00
N1004  N     0.38093   0.83334   0.75002   0.00000  Uiso   1.00
N1005  N     0.61906   0.83331   0.75001   0.00000  Uiso   1.00
O1006  O     0.46179   0.89442   0.75001   0.00000  Uiso   1.00
O1007  O     0.53823   0.89441   0.75001   0.00000  Uiso   1.00
O1008  O     0.44280   0.83333   0.82681   0.00000  Uiso   1.00
O1009  O     0.51924   0.83332   0.82681   0.00000  Uiso   1.00
O1010  O     0.46177   0.77226   0.75000   0.00000  Uiso   1.00
O1011  O     0.53821   0.77225   0.75000   0.00000  Uiso   1.00
O1012  O     0.48076   0.83335   0.67319   0.00000  Uiso   1.00
O1013  O     0.55720   0.83334   0.67319   0.00000  Uiso   1.00
Zn1014 Zn    0.44896   0.83334   0.75000   0.00000  Uiso   1.00
Zn1015 Zn    0.55104   0.83333   0.75000   0.00000  Uiso   1.00
S1016  S     0.46163   0.89970   0.60580   0.00000  Uiso   1.00
O1017  O     0.48212   0.92588   0.64030   0.00000  Uiso   1.00
O1018  O     0.44853   0.92758   0.56665   0.00000  Uiso   1.00
O1019  O     0.41190   0.87593   0.64477   0.00000  Uiso   1.00
H1020  H     0.38906   0.89874   0.65992   0.00000  Uiso   1.00
C1021  C     0.83320   0.91338   0.75053   0.00000  Uiso   1.00
C1022  C     0.81276   0.85382   0.99135   0.00000  Uiso   1.00
C1023  C     0.82465   0.85822   0.93530   0.00000  Uiso   1.00
C1024  C     0.84885   0.86050   0.51503   0.00000  Uiso   1.00
C1025  C     0.89708   0.86420   0.98243   0.00000  Uiso   1.00
C1026  C     0.90705   0.87466   0.92861   0.00000  Uiso   1.00
C1027  C     0.87004   0.87508   0.90651   0.00000  Uiso   1.00
C1028  C     0.83872   0.86266   0.57027   0.00000  Uiso   1.00
C1029  C     0.92181   0.84684   0.55903   0.00000  Uiso   1.00
C1030  C     0.79193   0.84370   0.90977   0.00000  Uiso   1.00
C1031  C     0.87519   0.97870   0.74803   0.00000  Uiso   1.00
C1032  C     0.80740   0.83668   0.85173   0.00000  Uiso   1.00
C1033  C     0.87526   0.68792   0.74774   0.00000  Uiso   1.00
C1034  C     0.83320   0.70912   0.75050   0.00000  Uiso   1.00
C1035  C     0.79101   0.68794   0.75379   0.00000  Uiso   1.00
C1036  C     0.79094   0.97871   0.75412   0.00000  Uiso   1.00
C1037  C     0.83308   0.95753   0.75103   0.00000  Uiso   1.00
C1038  C     0.98253   0.80141   0.72720   0.00000  Uiso   1.00
C1039  C     0.69717   0.80144   0.72717   0.00000  Uiso   1.00
C1040  C     0.68414   0.86523   0.77284   0.00000  Uiso   1.00
C1041  C     0.96964   0.86536   0.77246   0.00000  Uiso   1.00
C1042  C     0.83330   0.75328   0.75008   0.00000  Uiso   1.00
C1043  C     0.85924   0.83697   0.64846   0.00000  Uiso   1.00
C1044  C     0.93373   0.85801   0.50492   0.00000  Uiso   1.00
C1045  C     0.87379   0.84841   0.59185   0.00000  Uiso   1.00
C1046  C     0.74585   0.83102   0.94072   0.00000  Uiso   1.00
C1047  C     0.73346   0.82889   0.99623   0.00000  Uiso   1.00
C1048  C     0.76700   0.83871   0.52127   0.00000  Uiso   1.00
H1049  H     0.94983   0.83855   0.57554   0.00000  Uiso   1.00
H1050  H     0.90815   0.70406   0.74516   0.00000  Uiso   1.00
H1051  H     0.75818   0.70409   0.75613   0.00000  Uiso   1.00
H1052  H     0.75808   0.96256   0.75660   0.00000  Uiso   1.00
H1053  H     0.96965   0.77595   0.70883   0.00000  Uiso   1.00
H1054  H     0.72058   0.77601   0.70873   0.00000  Uiso   1.00
H1055  H     0.69706   0.89076   0.79105   0.00000  Uiso   1.00
H1056  H     0.94664   0.89121   0.78993   0.00000  Uiso   1.00
H1057  H     0.94308   0.88253   0.90384   0.00000  Uiso   1.00
H1058  H     0.97095   0.85953   0.98029   0.00000  Uiso   1.00
H1059  H     0.72027   0.82039   0.92185   0.00000  Uiso   1.00
H1060  H     0.75755   0.83232   0.56369   0.00000  Uiso   1.00
H1061  H     0.69866   0.81718   0.51969   0.00000  Uiso   1.00
H1062  H     0.87806   0.88707   0.86626   0.00000  Uiso   1.00
H1063  H     0.90804   0.96255   0.74562   0.00000  Uiso   1.00
N1064  N     0.71426   0.83334   0.75002   0.00000  Uiso   1.00
N1065  N     0.95239   0.83331   0.75001   0.00000  Uiso   1.00
O1066  O     0.79512   0.89442   0.75001   0.00000  Uiso   1.00
O1067  O     0.87157   0.89441   0.75001   0.00000  Uiso   1.00
O1068  O     0.77613   0.83333   0.82681   0.00000  Uiso   1.00
O1069  O     0.85258   0.83332   0.82681   0.00000  Uiso   1.00
O1070  O     0.79510   0.77226   0.75000   0.00000  Uiso   1.00
O1071  O     0.87154   0.77225   0.75000   0.00000  Uiso   1.00
O1072  O     0.81409   0.83335   0.67319   0.00000  Uiso   1.00
O1073  O     0.89053   0.83334   0.67319   0.00000  Uiso   1.00
Zn1074 Zn    0.78229   0.83334   0.75000   0.00000  Uiso   1.00
Zn1075 Zn    0.88438   0.83333   0.75000   0.00000  Uiso   1.00
S1076  S     0.79496   0.89970   0.60580   0.00000  Uiso   1.00
O1077  O     0.81545   0.92588   0.64030   0.00000  Uiso   1.00
O1078  O     0.78186   0.92758   0.56665   0.00000  Uiso   1.00
O1079  O     0.74524   0.87593   0.64477   0.00000  Uiso   1.00
H1080  H     0.72239   0.89874   0.65992   0.00000  Uiso   1.00
loop_
_geom_bond_atom_site_label_1
_geom_bond_atom_site_label_2
_geom_bond_distance
_geom_bond_site_symmetry_2
_ccdc_geom_bond_type
C1     O46     1.283   .     A
C1     O47     1.282   .     A
C1     C17     1.421   .     S
C2     C3      1.408   .     A
C2     C544    1.411   .     S
C2     C568    1.413   .     S
C3     C7      1.418   .     A
C3     C10     1.421   .     A
C4     C8      1.388   .     A
C4     C542    1.411   1_554 S
C4     C545    1.412   1_554 S
C5     C6      1.390   .     A
C5     C544    1.412   .     S
C5     C564    1.402   .     S
C6     C7      1.391   .     A
C6     H37     1.084   .     S
C7     H42     1.078   .     S
C8     S56     1.787   .     S
C8     C25     1.406   .     A
C9     C24     1.398   .     A
C9     H29     1.082   .     S
C9     C25     1.405   .     A
C10    C12     1.464   .     S
C10    C26     1.403   .     A
C11    H43     1.084   .     S
C11    C17     1.397   .     A
C11    C193    1.369   .     S
C12    O48     1.296   .     A
C12    O49     1.288   .     A
C13    C14     1.397   .     A
C13    H30     1.084   .     S
C13    C371    1.369   1_545 S
C14    C22     1.421   .     S
C14    C15     1.397   .     A
C15    H31     1.084   .     S
C15    C376    1.369   1_545 S
C16    H32     1.084   .     S
C16    C17     1.397   .     A
C16    C195    1.369   .     S
C18    H33     1.082   .     S
C18    N45     1.366   .     A
C18    C79     1.415   .     S
C19    N44     1.366   .     A
C19    H34     1.082   .     S
C19    C138    1.415   1_455 S
C20    N44     1.366   .     A
C20    H35     1.082   .     S
C20    C141    1.414   1_455 S
C21    N45     1.367   .     A
C21    H36     1.080   .     S
C21    C80     1.414   .     S
C22    O51     1.283   .     A
C22    O50     1.282   .     A
C23    O52     1.287   .     A
C23    O53     1.293   .     A
C23    C25     1.457   .     S
C24    C545    1.402   1_554 S
C24    H578    1.083   1_554 S
C26    C27     1.388   .     A
C26    H39     1.083   .     S
C27    C568    1.390   .     S
C27    H581    1.082   .     S
C28    H40     1.078   .     S
C28    C567    1.390   1_554 S
C28    C542    1.413   1_554 S
H38    C564    1.083   .     S
H41    C567    1.082   1_554 S
N44    Zn54    2.007   .     S
N45    Zn55    2.007   .     S
O46    Zn54    2.002   .     S
O47    Zn55    2.001   .     S
O48    Zn54    1.969   .     S
O49    Zn55    1.936   .     S
O50    Zn54    2.001   .     S
O51    Zn55    2.002   .     S
O52    Zn54    1.936   .     S
O53    Zn55    1.969   .     S
S56    O59     1.680   .     S
S56    O57     1.502   .     D
S56    O58     1.504   .     D
O59    H60     0.990   .     S
C61    O106    1.283   .     A
C61    O107    1.282   .     A
C61    C77     1.421   .     S
C62    C63     1.408   .     A
C62    C604    1.411   .     S
C62    C628    1.413   .     S
C63    C67     1.418   .     A
C63    C70     1.421   .     A
C64    C68     1.388   .     A
C64    C602    1.411   1_554 S
C64    C605    1.412   1_554 S
C65    C66     1.390   .     A
C65    C604    1.412   .     S
C65    C624    1.402   .     S
C66    C67     1.391   .     A
C66    H97     1.084   .     S
C67    H102    1.078   .     S
C68    S116    1.787   .     S
C68    C85     1.406   .     A
C69    C84     1.398   .     A
C69    H89     1.082   .     S
C69    C85     1.405   .     A
C70    C72     1.464   .     S
C70    C86     1.403   .     A
C71    H103    1.084   .     S
C71    C77     1.397   .     A
C71    C253    1.369   .     S
C72    O108    1.296   .     A
C72    O109    1.288   .     A
C73    C74     1.397   .     A
C73    H90     1.084   .     S
C73    C431    1.369   1_545 S
C74    C82     1.421   .     S
C74    C75     1.397   .     A
C75    H91     1.084   .     S
C75    C436    1.369   1_545 S
C76    H92     1.084   .     S
C76    C77     1.397   .     A
C76    C255    1.369   .     S
C78    H93     1.082   .     S
C78    N105    1.366   .     A
C78    C139    1.415   .     S
C79    N104    1.366   .     A
C79    H94     1.082   .     S
C80    N104    1.366   .     A
C80    H95     1.082   .     S
C81    N105    1.367   .     A
C81    H96     1.080   .     S
C81    C140    1.414   .     S
C82    O111    1.283   .     A
C82    O110    1.282   .     A
C83    O112    1.287   .     A
C83    O113    1.293   .     A
C83    C85     1.457   .     S
C84    C605    1.402   1_554 S
C84    H638    1.083   1_554 S
C86    C87     1.388   .     A
C86    H99     1.083   .     S
C87    C628    1.390   .     S
C87    H641    1.082   .     S
C88    H100    1.078   .     S
C88    C627    1.390   1_554 S
C88    C602    1.413   1_554 S
H98    C624    1.083   .     S
H101   C627    1.082   1_554 S
N104   Zn114   2.007   .     S
N105   Zn115   2.007   .     S
O106   Zn114   2.002   .     S
O107   Zn115   2.001   .     S
O108   Zn114   1.969   .     S
O109   Zn115   1.936   .     S
O110   Zn114   2.001   .     S
O111   Zn115   2.002   .     S
O112   Zn114   1.936   .     S
O113   Zn115   1.969   .     S
S116   O119    1.680   .     S
S116   O117    1.502   .     D
S116   O118    1.504   .     D
O119   H120    0.990   .     S
C121   O166    1.283   .     A
C121   O167    1.282   .     A
C121   C137    1.421   .     S
C122   C123    1.408   .     A
C122   C664    1.411   .     S
C122   C688    1.413   .     S
C123   C127    1.418   .     A
C123   C130    1.421   .     A
C124   C128    1.388   .     A
C124   C662    1.411   1_554 S
C124   C665    1.412   1_554 S
C125   C126    1.390   .     A
C125   C664    1.412   .     S
C125   C684    1.402   .     S
C126   C127    1.391   .     A
C126   H157    1.084   .     S
C127   H162    1.078   .     S
C128   S176    1.787   .     S
C128   C145    1.406   .     A
C129   C144    1.398   .     A
C129   H149    1.082   .     S
C129   C145    1.405   .     A
C130   C132    1.464   .     S
C130   C146    1.403   .     A
C131   H163    1.084   .     S
C131   C137    1.397   .     A
C131   C313    1.369   .     S
C132   O168    1.296   .     A
C132   O169    1.288   .     A
C133   C134    1.397   .     A
C133   H150    1.084   .     S
C133   C491    1.369   1_545 S
C134   C142    1.421   .     S
C134   C135    1.397   .     A
C135   H151    1.084   .     S
C135   C496    1.369   1_545 S
C136   H152    1.084   .     S
C136   C137    1.397   .     A
C136   C315    1.369   .     S
C138   H153    1.082   .     S
C138   N165    1.366   .     A
C138   C19     1.415   1_655 S
C139   N164    1.366   .     A
C139   H154    1.082   .     S
C140   N164    1.366   .     A
C140   H155    1.082   .     S
C141   N165    1.367   .     A
C141   H156    1.080   .     S
C141   C20     1.414   1_655 S
C142   O171    1.283   .     A
C142   O170    1.282   .     A
C143   O172    1.287   .     A
C143   O173    1.293   .     A
C143   C145    1.457   .     S
C144   C665    1.402   1_554 S
C144   H698    1.083   1_554 S
C146   C147    1.388   .     A
C146   H159    1.083   .     S
C147   C688    1.390   .     S
C147   H701    1.082   .     S
C148   H160    1.078   .     S
C148   C687    1.390   1_554 S
C148   C662    1.413   1_554 S
H158   C684    1.083   .     S
H161   C687    1.082   1_554 S
N164   Zn174   2.007   .     S
N165   Zn175   2.007   .     S
O166   Zn174   2.002   .     S
O167   Zn175   2.001   .     S
O168   Zn174   1.969   .     S
O169   Zn175   1.936   .     S
O170   Zn174   2.001   .     S
O171   Zn175   2.002   .     S
O172   Zn174   1.936   .     S
O173   Zn175   1.969   .     S
S176   O179    1.680   .     S
S176   O177    1.502   .     D
S176   O178    1.504   .     D
O179   H180    0.990   .     S
C181   O226    1.283   .     A
C181   O227    1.282   .     A
C181   C197    1.421   .     S
C182   C183    1.408   .     A
C182   C724    1.411   .     S
C182   C748    1.413   .     S
C183   C187    1.418   .     A
C183   C190    1.421   .     A
C184   C188    1.388   .     A
C184   C722    1.411   1_554 S
C184   C725    1.412   1_554 S
C185   C186    1.390   .     A
C185   C724    1.412   .     S
C185   C744    1.402   .     S
C186   C187    1.391   .     A
C186   H217    1.084   .     S
C187   H222    1.078   .     S
C188   S236    1.787   .     S
C188   C205    1.406   .     A
C189   C204    1.398   .     A
C189   H209    1.082   .     S
C189   C205    1.405   .     A
C190   C192    1.464   .     S
C190   C206    1.403   .     A
C191   H223    1.084   .     S
C191   C197    1.397   .     A
C191   C373    1.369   .     S
C192   O228    1.296   .     A
C192   O229    1.288   .     A
C193   C194    1.397   .     A
C193   H210    1.084   .     S
C194   C202    1.421   .     S
C194   C195    1.397   .     A
C195   H211    1.084   .     S
C196   H212    1.084   .     S
C196   C197    1.397   .     A
C196   C375    1.369   .     S
C198   H213    1.082   .     S
C198   N225    1.366   .     A
C198   C259    1.415   .     S
C199   N224    1.366   .     A
C199   H214    1.082   .     S
C199   C318    1.415   1_455 S
C200   N224    1.366   .     A
C200   H215    1.082   .     S
C200   C321    1.414   1_455 S
C201   N225    1.367   .     A
C201   H216    1.080   .     S
C201   C260    1.414   .     S
C202   O231    1.283   .     A
C202   O230    1.282   .     A
C203   O232    1.287   .     A
C203   O233    1.293   .     A
C203   C205    1.457   .     S
C204   C725    1.402   1_554 S
C204   H758    1.083   1_554 S
C206   C207    1.388   .     A
C206   H219    1.083   .     S
C207   C748    1.390   .     S
C207   H761    1.082   .     S
C208   H220    1.078   .     S
C208   C747    1.390   1_554 S
C208   C722    1.413   1_554 S
H218   C744    1.083   .     S
H221   C747    1.082   1_554 S
N224   Zn234   2.007   .     S
N225   Zn235   2.007   .     S
O226   Zn234   2.002   .     S
O227   Zn235   2.001   .     S
O228   Zn234   1.969   .     S
O229   Zn235   1.936   .     S
O230   Zn234   2.001   .     S
O231   Zn235   2.002   .     S
O232   Zn234   1.936   .     S
O233   Zn235   1.969   .     S
S236   O239    1.680   .     S
S236   O237    1.502   .     D
S236   O238    1.504   .     D
O239   H240    0.990   .     S
C241   O286    1.283   .     A
C241   O287    1.282   .     A
C241   C257    1.421   .     S
C242   C243    1.408   .     A
C242   C784    1.411   .     S
C242   C808    1.413   .     S
C243   C247    1.418   .     A
C243   C250    1.421   .     A
C244   C248    1.388   .     A
C244   C782    1.411   1_554 S
C244   C785    1.412   1_554 S
C245   C246    1.390   .     A
C245   C784    1.412   .     S
C245   C804    1.402   .     S
C246   C247    1.391   .     A
C246   H277    1.084   .     S
C247   H282    1.078   .     S
C248   S296    1.787   .     S
C248   C265    1.406   .     A
C249   C264    1.398   .     A
C249   H269    1.082   .     S
C249   C265    1.405   .     A
C250   C252    1.464   .     S
C250   C266    1.403   .     A
C251   H283    1.084   .     S
C251   C257    1.397   .     A
C251   C433    1.369   .     S
C252   O288    1.296   .     A
C252   O289    1.288   .     A
C253   C254    1.397   .     A
C253   H270    1.084   .     S
C254   C262    1.421   .     S
C254   C255    1.397   .     A
C255   H271    1.084   .     S
C256   H272    1.084   .     S
C256   C257    1.397   .     A
C256   C435    1.369   .     S
C258   H273    1.082   .     S
C258   N285    1.366   .     A
C258   C319    1.415   .     S
C259   N284    1.366   .     A
C259   H274    1.082   .     S
C260   N284    1.366   .     A
C260   H275    1.082   .     S
C261   N285    1.367   .     A
C261   H276    1.080   .     S
C261   C320    1.414   .     S
C262   O291    1.283   .     A
C262   O290    1.282   .     A
C263   O292    1.287   .     A
C263   O293    1.293   .     A
C263   C265    1.457   .     S
C264   C785    1.402   1_554 S
C264   H818    1.083   1_554 S
C266   C267    1.388   .     A
C266   H279    1.083   .     S
C267   C808    1.390   .     S
C267   H821    1.082   .     S
C268   H280    1.078   .     S
C268   C807    1.390   1_554 S
C268   C782    1.413   1_554 S
H278   C804    1.083   .     S
H281   C807    1.082   1_554 S
N284   Zn294   2.007   .     S
N285   Zn295   2.007   .     S
O286   Zn294   2.002   .     S
O287   Zn295   2.001   .     S
O288   Zn294   1.969   .     S
O289   Zn295   1.936   .     S
O290   Zn294   2.001   .     S
O291   Zn295   2.002   .     S
O292   Zn294   1.936   .     S
O293   Zn295   1.969   .     S
S296   O299    1.680   .     S
S296   O297    1.502   .     D
S296   O298    1.504   .     D
O299   H300    0.990   .     S
C301   O346    1.283   .     A
C301   O347    1.282   .     A
C301   C317    1.421   .     S
C302   C303    1.408   .     A
C302   C844    1.411   .     S
C302   C868    1.413   .     S
C303   C307    1.418   .     A
C303   C310    1.421   .     A
C304   C308    1.388   .     A
C304   C842    1.411   1_554 S
C304   C845    1.412   1_554 S
C305   C306    1.390   .     A
C305   C844    1.412   .     S
C305   C864    1.402   .     S
C306   C307    1.391   .     A
C306   H337    1.084   .     S
C307   H342    1.078   .     S
C308   S356    1.787   .     S
C308   C325    1.406   .     A
C309   C324    1.398   .     A
C309   H329    1.082   .     S
C309   C325    1.405   .     A
C310   C312    1.464   .     S
C310   C326    1.403   .     A
C311   H343    1.084   .     S
C311   C317    1.397   .     A
C311   C493    1.369   .     S
C312   O348    1.296   .     A
C312   O349    1.288   .     A
C313   C314    1.397   .     A
C313   H330    1.084   .     S
C314   C322    1.421   .     S
C314   C315    1.397   .     A
C315   H331    1.084   .     S
C316   H332    1.084   .     S
C316   C317    1.397   .     A
C316   C495    1.369   .     S
C318   H333    1.082   .     S
C318   N345    1.366   .     A
C318   C199    1.415   1_655 S
C319   N344    1.366   .     A
C319   H334    1.082   .     S
C320   N344    1.366   .     A
C320   H335    1.082   .     S
C321   N345    1.367   .     A
C321   H336    1.080   .     S
C321   C200    1.414   1_655 S
C322   O351    1.283   .     A
C322   O350    1.282   .     A
C323   O352    1.287   .     A
C323   O353    1.293   .     A
C323   C325    1.457   .     S
C324   C845    1.402   1_554 S
C324   H878    1.083   1_554 S
C326   C327    1.388   .     A
C326   H339    1.083   .     S
C327   C868    1.390   .     S
C327   H881    1.082   .     S
C328   H340    1.078   .     S
C328   C867    1.390   1_554 S
C328   C842    1.413   1_554 S
H338   C864    1.083   .     S
H341   C867    1.082   1_554 S
N344   Zn354   2.007   .     S
N345   Zn355   2.007   .     S
O346   Zn354   2.002   .     S
O347   Zn355   2.001   .     S
O348   Zn354   1.969   .     S
O349   Zn355   1.936   .     S
O350   Zn354   2.001   .     S
O351   Zn355   2.002   .     S
O352   Zn354   1.936   .     S
O353   Zn355   1.969   .     S
S356   O359    1.680   .     S
S356   O357    1.502   .     D
S356   O358    1.504   .     D
O359   H360    0.990   .     S
C361   O406    1.283   .     A
C361   O407    1.282   .     A
C361   C377    1.421   .     S
C362   C363    1.408   .     A
C362   C904    1.411   .     S
C362   C928    1.413   .     S
C363   C367    1.418   .     A
C363   C370    1.421   .     A
C364   C368    1.388   .     A
C364   C902    1.411   1_554 S
C364   C905    1.412   1_554 S
C365   C366    1.390   .     A
C365   C904    1.412   .     S
C365   C924    1.402   .     S
C366   C367    1.391   .     A
C366   H397    1.084   .     S
C367   H402    1.078   .     S
C368   S416    1.787   .     S
C368   C385    1.406   .     A
C369   C384    1.398   .     A
C369   H389    1.082   .     S
C369   C385    1.405   .     A
C370   C372    1.464   .     S
C370   C386    1.403   .     A
C371   H403    1.084   .     S
C371   C377    1.397   .     A
C371   C13     1.369   1_565 S
C372   O408    1.296   .     A
C372   O409    1.288   .     A
C373   C374    1.397   .     A
C373   H390    1.084   .     S
C374   C382    1.421   .     S
C374   C375    1.397   .     A
C375   H391    1.084   .     S
C376   H392    1.084   .     S
C376   C377    1.397   .     A
C376   C15     1.369   1_565 S
C378   H393    1.082   .     S
C378   N405    1.366   .     A
C378   C439    1.415   .     S
C379   N404    1.366   .     A
C379   H394    1.082   .     S
C379   C498    1.415   1_455 S
C380   N404    1.366   .     A
C380   H395    1.082   .     S
C380   C501    1.414   1_455 S
C381   N405    1.367   .     A
C381   H396    1.080   .     S
C381   C440    1.414   .     S
C382   O411    1.283   .     A
C382   O410    1.282   .     A
C383   O412    1.287   .     A
C383   O413    1.293   .     A
C383   C385    1.457   .     S
C384   C905    1.402   1_554 S
C384   H938    1.083   1_554 S
C386   C387    1.388   .     A
C386   H399    1.083   .     S
C387   C928    1.390   .     S
C387   H941    1.082   .     S
C388   H400    1.078   .     S
C388   C927    1.390   1_554 S
C388   C902    1.413   1_554 S
H398   C924    1.083   .     S
H401   C927    1.082   1_554 S
N404   Zn414   2.007   .     S
N405   Zn415   2.007   .     S
O406   Zn414   2.002   .     S
O407   Zn415   2.001   .     S
O408   Zn414   1.969   .     S
O409   Zn415   1.936   .     S
O410   Zn414   2.001   .     S
O411   Zn415   2.002   .     S
O412   Zn414   1.936   .     S
O413   Zn415   1.969   .     S
S416   O419    1.680   .     S
S416   O417    1.502   .     D
S416   O418    1.504   .     D
O419   H420    0.990   .     S
C421   O466    1.283   .     A
C421   O467    1.282   .     A
C421   C437    1.421   .     S
C422   C423    1.408   .     A
C422   C964    1.411   .     S
C422   C988    1.413   .     S
C423   C427    1.418   .     A
C423   C430    1.421   .     A
C424   C428    1.388   .     A
C424   C962    1.411   1_554 S
C424   C965    1.412   1_554 S
C425   C426    1.390   .     A
C425   C964    1.412   .     S
C425   C984    1.402   .     S
C426   C427    1.391   .     A
C426   H457    1.084   .     S
C427   H462    1.078   .     S
C428   S476    1.787   .     S
C428   C445    1.406   .     A
C429   C444    1.398   .     A
C429   H449    1.082   .     S
C429   C445    1.405   .     A
C430   C432    1.464   .     S
C430   C446    1.403   .     A
C431   H463    1.084   .     S
C431   C437    1.397   .     A
C431   C73     1.369   1_565 S
C432   O468    1.296   .     A
C432   O469    1.288   .     A
C433   C434    1.397   .     A
C433   H450    1.084   .     S
C434   C442    1.421   .     S
C434   C435    1.397   .     A
C435   H451    1.084   .     S
C436   H452    1.084   .     S
C436   C437    1.397   .     A
C436   C75     1.369   1_565 S
C438   H453    1.082   .     S
C438   N465    1.366   .     A
C438   C499    1.415   .     S
C439   N464    1.366   .     A
C439   H454    1.082   .     S
C440   N464    1.366   .     A
C440   H455    1.082   .     S
C441   N465    1.367   .     A
C441   H456    1.080   .     S
C441   C500    1.414   .     S
C442   O471    1.283   .     A
C442   O470    1.282   .     A
C443   O472    1.287   .     A
C443   O473    1.293   .     A
C443   C445    1.457   .     S
C444   C965    1.402   1_554 S
C444   H998    1.083   1_554 S
C446   C447    1.388   .     A
C446   H459    1.083   .     S
C447   C988    1.390   .     S
C447   H1001   1.082   .     S
C448   H460    1.078   .     S
C448   C987    1.390   1_554 S
C448   C962    1.413   1_554 S
H458   C984    1.083   .     S
H461   C987    1.082   1_554 S
N464   Zn474   2.007   .     S
N465   Zn475   2.007   .     S
O466   Zn474   2.002   .     S
O467   Zn475   2.001   .     S
O468   Zn474   1.969   .     S
O469   Zn475   1.936   .     S
O470   Zn474   2.001   .     S
O471   Zn475   2.002   .     S
O472   Zn474   1.936   .     S
O473   Zn475   1.969   .     S
S476   O479    1.680   .     S
S476   O477    1.502   .     D
S476   O478    1.504   .     D
O479   H480    0.990   .     S
C481   O526    1.283   .     A
C481   O527    1.282   .     A
C481   C497    1.421   .     S
C482   C483    1.408   .     A
C482   C1024   1.411   .     S
C482   C1048   1.413   .     S
C483   C487    1.418   .     A
C483   C490    1.421   .     A
C484   C488    1.388   .     A
C484   C1022   1.411   1_554 S
C484   C1025   1.412   1_554 S
C485   C486    1.390   .     A
C485   C1024   1.412   .     S
C485   C1044   1.402   .     S
C486   C487    1.391   .     A
C486   H517    1.084   .     S
C487   H522    1.078   .     S
C488   S536    1.787   .     S
C488   C505    1.406   .     A
C489   C504    1.398   .     A
C489   H509    1.082   .     S
C489   C505    1.405   .     A
C490   C492    1.464   .     S
C490   C506    1.403   .     A
C491   H523    1.084   .     S
C491   C497    1.397   .     A
C491   C133    1.369   1_565 S
C492   O528    1.296   .     A
C492   O529    1.288   .     A
C493   C494    1.397   .     A
C493   H510    1.084   .     S
C494   C502    1.421   .     S
C494   C495    1.397   .     A
C495   H511    1.084   .     S
C496   H512    1.084   .     S
C496   C497    1.397   .     A
C496   C135    1.369   1_565 S
C498   H513    1.082   .     S
C498   N525    1.366   .     A
C498   C379    1.415   1_655 S
C499   N524    1.366   .     A
C499   H514    1.082   .     S
C500   N524    1.366   .     A
C500   H515    1.082   .     S
C501   N525    1.367   .     A
C501   H516    1.080   .     S
C501   C380    1.414   1_655 S
C502   O531    1.283   .     A
C502   O530    1.282   .     A
C503   O532    1.287   .     A
C503   O533    1.293   .     A
C503   C505    1.457   .     S
C504   C1025   1.402   1_554 S
C504   H1058   1.083   1_554 S
C506   C507    1.388   .     A
C506   H519    1.083   .     S
C507   C1048   1.390   .     S
C507   H1061   1.082   .     S
C508   H520    1.078   .     S
C508   C1047   1.390   1_554 S
C508   C1022   1.413   1_554 S
H518   C1044   1.083   .     S
H521   C1047   1.082   1_554 S
N524   Zn534   2.007   .     S
N525   Zn535   2.007   .     S
O526   Zn534   2.002   .     S
O527   Zn535   2.001   .     S
O528   Zn534   1.969   .     S
O529   Zn535   1.936   .     S
O530   Zn534   2.001   .     S
O531   Zn535   2.002   .     S
O532   Zn534   1.936   .     S
O533   Zn535   1.969   .     S
S536   O539    1.680   .     S
S536   O537    1.502   .     D
S536   O538    1.504   .     D
O539   H540    0.990   .     S
C541   O586    1.283   .     A
C541   O587    1.282   .     A
C541   C557    1.421   .     S
C542   C543    1.408   .     A
C542   C4      1.411   1_556 S
C542   C28     1.413   1_556 S
C543   C547    1.418   .     A
C543   C550    1.421   .     A
C544   C548    1.388   .     A
C545   C546    1.390   .     A
C545   C4      1.412   1_556 S
C545   C24     1.402   1_556 S
C546   C547    1.391   .     A
C546   H577    1.084   .     S
C547   H582    1.078   .     S
C548   S596    1.787   .     S
C548   C565    1.406   .     A
C549   C564    1.398   .     A
C549   H569    1.082   .     S
C549   C565    1.405   .     A
C550   C552    1.464   .     S
C550   C566    1.403   .     A
C551   H583    1.084   .     S
C551   C557    1.397   .     A
C551   C733    1.369   .     S
C552   O588    1.296   .     A
C552   O589    1.288   .     A
C553   C554    1.397   .     A
C553   H570    1.084   .     S
C553   C911    1.369   1_545 S
C554   C562    1.421   .     S
C554   C555    1.397   .     A
C555   H571    1.084   .     S
C555   C916    1.369   1_545 S
C556   H572    1.084   .     S
C556   C557    1.397   .     A
C556   C735    1.369   .     S
C558   H573    1.082   .     S
C558   N585    1.366   .     A
C558   C619    1.415   .     S
C559   N584    1.366   .     A
C559   H574    1.082   .     S
C559   C678    1.415   1_455 S
C560   N584    1.366   .     A
C560   H575    1.082   .     S
C560   C681    1.414   1_455 S
C561   N585    1.367   .     A
C561   H576    1.080   .     S
C561   C620    1.414   .     S
C562   O591    1.283   .     A
C562   O590    1.282   .     A
C563   O592    1.287   .     A
C563   O593    1.293   .     A
C563   C565    1.457   .     S
C566   C567    1.388   .     A
C566   H579    1.083   .     S
C567   C28     1.390   1_556 S
C567   H41     1.082   1_556 S
C568   H580    1.078   .     S
H578   C24     1.083   1_556 S
N584   Zn594   2.007   .     S
N585   Zn595   2.007   .     S
O586   Zn594   2.002   .     S
O587   Zn595   2.001   .     S
O588   Zn594   1.969   .     S
O589   Zn595   1.936   .     S
O590   Zn594   2.001   .     S
O591   Zn595   2.002   .     S
O592   Zn594   1.936   .     S
O593   Zn595   1.969   .     S
S596   O599    1.680   .     S
S596   O597    1.502   .     D
S596   O598    1.504   .     D
O599   H600    0.990   .     S
C601   O646    1.283   .     A
C601   O647    1.282   .     A
C601   C617    1.421   .     S
C602   C603    1.408   .     A
C602   C64     1.411   1_556 S
C602   C88     1.413   1_556 S
C603   C607    1.418   .     A
C603   C610    1.421   .     A
C604   C608    1.388   .     A
C605   C606    1.390   .     A
C605   C64     1.412   1_556 S
C605   C84     1.402   1_556 S
C606   C607    1.391   .     A
C606   H637    1.084   .     S
C607   H642    1.078   .     S
C608   S656    1.787   .     S
C608   C625    1.406   .     A
C609   C624    1.398   .     A
C609   H629    1.082   .     S
C609   C625    1.405   .     A
C610   C612    1.464   .     S
C610   C626    1.403   .     A
C611   H643    1.084   .     S
C611   C617    1.397   .     A
C611   C793    1.369   .     S
C612   O648    1.296   .     A
C612   O649    1.288   .     A
C613   C614    1.397   .     A
C613   H630    1.084   .     S
C613   C971    1.369   1_545 S
C614   C622    1.421   .     S
C614   C615    1.397   .     A
C615   H631    1.084   .     S
C615   C976    1.369   1_545 S
C616   H632    1.084   .     S
C616   C617    1.397   .     A
C616   C795    1.369   .     S
C618   H633    1.082   .     S
C618   N645    1.366   .     A
C618   C679    1.415   .     S
C619   N644    1.366   .     A
C619   H634    1.082   .     S
C620   N644    1.366   .     A
C620   H635    1.082   .     S
C621   N645    1.367   .     A
C621   H636    1.080   .     S
C621   C680    1.414   .     S
C622   O651    1.283   .     A
C622   O650    1.282   .     A
C623   O652    1.287   .     A
C623   O653    1.293   .     A
C623   C625    1.457   .     S
C626   C627    1.388   .     A
C626   H639    1.083   .     S
C627   C88     1.390   1_556 S
C627   H101    1.082   1_556 S
C628   H640    1.078   .     S
H638   C84     1.083   1_556 S
N644   Zn654   2.007   .     S
N645   Zn655   2.007   .     S
O646   Zn654   2.002   .     S
O647   Zn655   2.001   .     S
O648   Zn654   1.969   .     S
O649   Zn655   1.936   .     S
O650   Zn654   2.001   .     S
O651   Zn655   2.002   .     S
O652   Zn654   1.936   .     S
O653   Zn655   1.969   .     S
S656   O659    1.680   .     S
S656   O657    1.502   .     D
S656   O658    1.504   .     D
O659   H660    0.990   .     S
C661   O706    1.283   .     A
C661   O707    1.282   .     A
C661   C677    1.421   .     S
C662   C663    1.408   .     A
C662   C124    1.411   1_556 S
C662   C148    1.413   1_556 S
C663   C667    1.418   .     A
C663   C670    1.421   .     A
C664   C668    1.388   .     A
C665   C666    1.390   .     A
C665   C124    1.412   1_556 S
C665   C144    1.402   1_556 S
C666   C667    1.391   .     A
C666   H697    1.084   .     S
C667   H702    1.078   .     S
C668   S716    1.787   .     S
C668   C685    1.406   .     A
C669   C684    1.398   .     A
C669   H689    1.082   .     S
C669   C685    1.405   .     A
C670   C672    1.464   .     S
C670   C686    1.403   .     A
C671   H703    1.084   .     S
C671   C677    1.397   .     A
C671   C853    1.369   .     S
C672   O708    1.296   .     A
C672   O709    1.288   .     A
C673   C674    1.397   .     A
C673   H690    1.084   .     S
C673   C1031   1.369   1_545 S
C674   C682    1.421   .     S
C674   C675    1.397   .     A
C675   H691    1.084   .     S
C675   C1036   1.369   1_545 S
C676   H692    1.084   .     S
C676   C677    1.397   .     A
C676   C855    1.369   .     S
C678   H693    1.082   .     S
C678   N705    1.366   .     A
C678   C559    1.415   1_655 S
C679   N704    1.366   .     A
C679   H694    1.082   .     S
C680   N704    1.366   .     A
C680   H695    1.082   .     S
C681   N705    1.367   .     A
C681   H696    1.080   .     S
C681   C560    1.414   1_655 S
C682   O711    1.283   .     A
C682   O710    1.282   .     A
C683   O712    1.287   .     A
C683   O713    1.293   .     A
C683   C685    1.457   .     S
C686   C687    1.388   .     A
C686   H699    1.083   .     S
C687   C148    1.390   1_556 S
C687   H161    1.082   1_556 S
C688   H700    1.078   .     S
H698   C144    1.083   1_556 S
N704   Zn714   2.007   .     S
N705   Zn715   2.007   .     S
O706   Zn714   2.002   .     S
O707   Zn715   2.001   .     S
O708   Zn714   1.969   .     S
O709   Zn715   1.936   .     S
O710   Zn714   2.001   .     S
O711   Zn715   2.002   .     S
O712   Zn714   1.936   .     S
O713   Zn715   1.969   .     S
S716   O719    1.680   .     S
S716   O717    1.502   .     D
S716   O718    1.504   .     D
O719   H720    0.990   .     S
C721   O766    1.283   .     A
C721   O767    1.282   .     A
C721   C737    1.421   .     S
C722   C723    1.408   .     A
C722   C184    1.411   1_556 S
C722   C208    1.413   1_556 S
C723   C727    1.418   .     A
C723   C730    1.421   .     A
C724   C728    1.388   .     A
C725   C726    1.390   .     A
C725   C184    1.412   1_556 S
C725   C204    1.402   1_556 S
C726   C727    1.391   .     A
C726   H757    1.084   .     S
C727   H762    1.078   .     S
C728   S776    1.787   .     S
C728   C745    1.406   .     A
C729   C744    1.398   .     A
C729   H749    1.082   .     S
C729   C745    1.405   .     A
C730   C732    1.464   .     S
C730   C746    1.403   .     A
C731   H763    1.084   .     S
C731   C737    1.397   .     A
C731   C913    1.369   .     S
C732   O768    1.296   .     A
C732   O769    1.288   .     A
C733   C734    1.397   .     A
C733   H750    1.084   .     S
C734   C742    1.421   .     S
C734   C735    1.397   .     A
C735   H751    1.084   .     S
C736   H752    1.084   .     S
C736   C737    1.397   .     A
C736   C915    1.369   .     S
C738   H753    1.082   .     S
C738   N765    1.366   .     A
C738   C799    1.415   .     S
C739   N764    1.366   .     A
C739   H754    1.082   .     S
C739   C858    1.415   1_455 S
C740   N764    1.366   .     A
C740   H755    1.082   .     S
C740   C861    1.414   1_455 S
C741   N765    1.367   .     A
C741   H756    1.080   .     S
C741   C800    1.414   .     S
C742   O771    1.283   .     A
C742   O770    1.282   .     A
C743   O772    1.287   .     A
C743   O773    1.293   .     A
C743   C745    1.457   .     S
C746   C747    1.388   .     A
C746   H759    1.083   .     S
C747   C208    1.390   1_556 S
C747   H221    1.082   1_556 S
C748   H760    1.078   .     S
H758   C204    1.083   1_556 S
N764   Zn774   2.007   .     S
N765   Zn775   2.007   .     S
O766   Zn774   2.002   .     S
O767   Zn775   2.001   .     S
O768   Zn774   1.969   .     S
O769   Zn775   1.936   .     S
O770   Zn774   2.001   .     S
O771   Zn775   2.002   .     S
O772   Zn774   1.936   .     S
O773   Zn775   1.969   .     S
S776   O779    1.680   .     S
S776   O777    1.502   .     D
S776   O778    1.504   .     D
O779   H780    0.990   .     S
C781   O826    1.283   .     A
C781   O827    1.282   .     A
C781   C797    1.421   .     S
C782   C783    1.408   .     A
C782   C244    1.411   1_556 S
C782   C268    1.413   1_556 S
C783   C787    1.418   .     A
C783   C790    1.421   .     A
C784   C788    1.388   .     A
C785   C786    1.390   .     A
C785   C244    1.412   1_556 S
C785   C264    1.402   1_556 S
C786   C787    1.391   .     A
C786   H817    1.084   .     S
C787   H822    1.078   .     S
C788   S836    1.787   .     S
C788   C805    1.406   .     A
C789   C804    1.398   .     A
C789   H809    1.082   .     S
C789   C805    1.405   .     A
C790   C792    1.464   .     S
C790   C806    1.403   .     A
C791   H823    1.084   .     S
C791   C797    1.397   .     A
C791   C973    1.369   .     S
C792   O828    1.296   .     A
C792   O829    1.288   .     A
C793   C794    1.397   .     A
C793   H810    1.084   .     S
C794   C802    1.421   .     S
C794   C795    1.397   .     A
C795   H811    1.084   .     S
C796   H812    1.084   .     S
C796   C797    1.397   .     A
C796   C975    1.369   .     S
C798   H813    1.082   .     S
C798   N825    1.366   .     A
C798   C859    1.415   .     S
C799   N824    1.366   .     A
C799   H814    1.082   .     S
C800   N824    1.366   .     A
C800   H815    1.082   .     S
C801   N825    1.367   .     A
C801   H816    1.080   .     S
C801   C860    1.414   .     S
C802   O831    1.283   .     A
C802   O830    1.282   .     A
C803   O832    1.287   .     A
C803   O833    1.293   .     A
C803   C805    1.457   .     S
C806   C807    1.388   .     A
C806   H819    1.083   .     S
C807   C268    1.390   1_556 S
C807   H281    1.082   1_556 S
C808   H820    1.078   .     S
H818   C264    1.083   1_556 S
N824   Zn834   2.007   .     S
N825   Zn835   2.007   .     S
O826   Zn834   2.002   .     S
O827   Zn835   2.001   .     S
O828   Zn834   1.969   .     S
O829   Zn835   1.936   .     S
O830   Zn834   2.001   .     S
O831   Zn835   2.002   .     S
O832   Zn834   1.936   .     S
O833   Zn835   1.969   .     S
S836   O839    1.680   .     S
S836   O837    1.502   .     D
S836   O838    1.504   .     D
O839   H840    0.990   .     S
C841   O886    1.283   .     A
C841   O887    1.282   .     A
C841   C857    1.421   .     S
C842   C843    1.408   .     A
C842   C304    1.411   1_556 S
C842   C328    1.413   1_556 S
C843   C847    1.418   .     A
C843   C850    1.421   .     A
C844   C848    1.388   .     A
C845   C846    1.390   .     A
C845   C304    1.412   1_556 S
C845   C324    1.402   1_556 S
C846   C847    1.391   .     A
C846   H877    1.084   .     S
C847   H882    1.078   .     S
C848   S896    1.787   .     S
C848   C865    1.406   .     A
C849   C864    1.398   .     A
C849   H869    1.082   .     S
C849   C865    1.405   .     A
C850   C852    1.464   .     S
C850   C866    1.403   .     A
C851   H883    1.084   .     S
C851   C857    1.397   .     A
C851   C1033   1.369   .     S
C852   O888    1.296   .     A
C852   O889    1.288   .     A
C853   C854    1.397   .     A
C853   H870    1.084   .     S
C854   C862    1.421   .     S
C854   C855    1.397   .     A
C855   H871    1.084   .     S
C856   H872    1.084   .     S
C856   C857    1.397   .     A
C856   C1035   1.369   .     S
C858   H873    1.082   .     S
C858   N885    1.366   .     A
C858   C739    1.415   1_655 S
C859   N884    1.366   .     A
C859   H874    1.082   .     S
C860   N884    1.366   .     A
C860   H875    1.082   .     S
C861   N885    1.367   .     A
C861   H876    1.080   .     S
C861   C740    1.414   1_655 S
C862   O891    1.283   .     A
C862   O890    1.282   .     A
C863   O892    1.287   .     A
C863   O893    1.293   .     A
C863   C865    1.457   .     S
C866   C867    1.388   .     A
C866   H879    1.083   .     S
C867   C328    1.390   1_556 S
C867   H341    1.082   1_556 S
C868   H880    1.078   .     S
H878   C324    1.083   1_556 S
N884   Zn894   2.007   .     S
N885   Zn895   2.007   .     S
O886   Zn894   2.002   .     S
O887   Zn895   2.001   .     S
O888   Zn894   1.969   .     S
O889   Zn895   1.936   .     S
O890   Zn894   2.001   .     S
O891   Zn895   2.002   .     S
O892   Zn894   1.936   .     S
O893   Zn895   1.969   .     S
S896   O899    1.680   .     S
S896   O897    1.502   .     D
S896   O898    1.504   .     D
O899   H900    0.990   .     S
C901   O946    1.283   .     A
C901   O947    1.282   .     A
C901   C917    1.421   .     S
C902   C903    1.408   .     A
C902   C364    1.411   1_556 S
C902   C388    1.413   1_556 S
C903   C907    1.418   .     A
C903   C910    1.421   .     A
C904   C908    1.388   .     A
C905   C906    1.390   .     A
C905   C364    1.412   1_556 S
C905   C384    1.402   1_556 S
C906   C907    1.391   .     A
C906   H937    1.084   .     S
C907   H942    1.078   .     S
C908   S956    1.787   .     S
C908   C925    1.406   .     A
C909   C924    1.398   .     A
C909   H929    1.082   .     S
C909   C925    1.405   .     A
C910   C912    1.464   .     S
C910   C926    1.403   .     A
C911   H943    1.084   .     S
C911   C917    1.397   .     A
C911   C553    1.369   1_565 S
C912   O948    1.296   .     A
C912   O949    1.288   .     A
C913   C914    1.397   .     A
C913   H930    1.084   .     S
C914   C922    1.421   .     S
C914   C915    1.397   .     A
C915   H931    1.084   .     S
C916   H932    1.084   .     S
C916   C917    1.397   .     A
C916   C555    1.369   1_565 S
C918   H933    1.082   .     S
C918   N945    1.366   .     A
C918   C979    1.415   .     S
C919   N944    1.366   .     A
C919   H934    1.082   .     S
C919   C1038   1.415   1_455 S
C920   N944    1.366   .     A
C920   H935    1.082   .     S
C920   C1041   1.414   1_455 S
C921   N945    1.367   .     A
C921   H936    1.080   .     S
C921   C980    1.414   .     S
C922   O951    1.283   .     A
C922   O950    1.282   .     A
C923   O952    1.287   .     A
C923   O953    1.293   .     A
C923   C925    1.457   .     S
C926   C927    1.388   .     A
C926   H939    1.083   .     S
C927   C388    1.390   1_556 S
C927   H401    1.082   1_556 S
C928   H940    1.078   .     S
H938   C384    1.083   1_556 S
N944   Zn954   2.007   .     S
N945   Zn955   2.007   .     S
O946   Zn954   2.002   .     S
O947   Zn955   2.001   .     S
O948   Zn954   1.969   .     S
O949   Zn955   1.936   .     S
O950   Zn954   2.001   .     S
O951   Zn955   2.002   .     S
O952   Zn954   1.936   .     S
O953   Zn955   1.969   .     S
S956   O959    1.680   .     S
S956   O957    1.502   .     D
S956   O958    1.504   .     D
O959   H960    0.990   .     S
C961   O1006   1.283   .     A
C961   O1007   1.282   .     A
C961   C977    1.421   .     S
C962   C963    1.408   .     A
C962   C424    1.411   1_556 S
C962   C448    1.413   1_556 S
C963   C967    1.418   .     A
C963   C970    1.421   .     A
C964   C968    1.388   .     A
C965   C966    1.390   .     A
C965   C424    1.412   1_556 S
C965   C444    1.402   1_556 S
C966   C967    1.391   .     A
C966   H997    1.084   .     S
C967   H1002   1.078   .     S
C968   S1016   1.787   .     S
C968   C985    1.406   .     A
C969   C984    1.398   .     A
C969   H989    1.082   .     S
C969   C985    1.405   .     A
C970   C972    1.464   .     S
C970   C986    1.403   .     A
C971   H1003   1.084   .     S
C971   C977    1.397   .     A
C971   C613    1.369   1_565 S
C972   O1008   1.296   .     A
C972   O1009   1.288   .     A
C973   C974    1.397   .     A
C973   H990    1.084   .     S
C974   C982    1.421   .     S
C974   C975    1.397   .     A
C975   H991    1.084   .     S
C976   H992    1.084   .     S
C976   C977    1.397   .     A
C976   C615    1.369   1_565 S
C978   H993    1.082   .     S
C978   N1005   1.366   .     A
C978   C1039   1.415   .     S
C979   N1004   1.366   .     A
C979   H994    1.082   .     S
C980   N1004   1.366   .     A
C980   H995    1.082   .     S
C981   N1005   1.367   .     A
C981   H996    1.080   .     S
C981   C1040   1.414   .     S
C982   O1011   1.283   .     A
C982   O1010   1.282   .     A
C983   O1012   1.287   .     A
C983   O1013   1.293   .     A
C983   C985    1.457   .     S
C986   C987    1.388   .     A
C986   H999    1.083   .     S
C987   C448    1.390   1_556 S
C987   H461    1.082   1_556 S
C988   H1000   1.078   .     S
H998   C444    1.083   1_556 S
N1004  Zn1014  2.007   .     S
N1005  Zn1015  2.007   .     S
O1006  Zn1014  2.002   .     S
O1007  Zn1015  2.001   .     S
O1008  Zn1014  1.969   .     S
O1009  Zn1015  1.936   .     S
O1010  Zn1014  2.001   .     S
O1011  Zn1015  2.002   .     S
O1012  Zn1014  1.936   .     S
O1013  Zn1015  1.969   .     S
S1016  O1019   1.680   .     S
S1016  O1017   1.502   .     D
S1016  O1018   1.504   .     D
O1019  H1020   0.990   .     S
C1021  O1066   1.283   .     A
C1021  O1067   1.282   .     A
C1021  C1037   1.421   .     S
C1022  C1023   1.408   .     A
C1022  C484    1.411   1_556 S
C1022  C508    1.413   1_556 S
C1023  C1027   1.418   .     A
C1023  C1030   1.421   .     A
C1024  C1028   1.388   .     A
C1025  C1026   1.390   .     A
C1025  C484    1.412   1_556 S
C1025  C504    1.402   1_556 S
C1026  C1027   1.391   .     A
C1026  H1057   1.084   .     S
C1027  H1062   1.078   .     S
C1028  S1076   1.787   .     S
C1028  C1045   1.406   .     A
C1029  C1044   1.398   .     A
C1029  H1049   1.082   .     S
C1029  C1045   1.405   .     A
C1030  C1032   1.464   .     S
C1030  C1046   1.403   .     A
C1031  H1063   1.084   .     S
C1031  C1037   1.397   .     A
C1031  C673    1.369   1_565 S
C1032  O1068   1.296   .     A
C1032  O1069   1.288   .     A
C1033  C1034   1.397   .     A
C1033  H1050   1.084   .     S
C1034  C1042   1.421   .     S
C1034  C1035   1.397   .     A
C1035  H1051   1.084   .     S
C1036  H1052   1.084   .     S
C1036  C1037   1.397   .     A
C1036  C675    1.369   1_565 S
C1038  H1053   1.082   .     S
C1038  N1065   1.366   .     A
C1038  C919    1.415   1_655 S
C1039  N1064   1.366   .     A
C1039  H1054   1.082   .     S
C1040  N1064   1.366   .     A
C1040  H1055   1.082   .     S
C1041  N1065   1.367   .     A
C1041  H1056   1.080   .     S
C1041  C920    1.414   1_655 S
C1042  O1071   1.283   .     A
C1042  O1070   1.282   .     A
C1043  O1072   1.287   .     A
C1043  O1073   1.293   .     A
C1043  C1045   1.457   .     S
C1046  C1047   1.388   .     A
C1046  H1059   1.083   .     S
C1047  C508    1.390   1_556 S
C1047  H521    1.082   1_556 S
C1048  H1060   1.078   .     S
H1058  C504    1.083   1_556 S
N1064  Zn1074  2.007   .     S
N1065  Zn1075  2.007   .     S
O1066  Zn1074  2.002   .     S
O1067  Zn1075  2.001   .     S
O1068  Zn1074  1.969   .     S
O1069  Zn1075  1.936   .     S
O1070  Zn1074  2.001   .     S
O1071  Zn1075  2.002   .     S
O1072  Zn1074  1.936   .     S
O1073  Zn1075  1.969   .     S
S1076  O1079   1.680   .     S
S1076  O1077   1.502   .     D
S1076  O1078   1.504   .     D
O1079  H1080   0.990   .     S
