data_str_m3_o1_o10_pcu_sym.35
_audit_creation_date              2020-01-03
_audit_creation_method            'Materials Studio'
_symmetry_space_group_name_H-M    'P1'
_symmetry_Int_Tables_number       1
_symmetry_cell_setting            triclinic
loop_
_symmetry_equiv_pos_as_xyz
  x,y,z
_cell_length_a                    25.8282
_cell_length_b                    32.1228
_cell_length_c                    29.7000
_cell_angle_alpha                 90.4277
_cell_angle_beta                  97.9405
_cell_angle_gamma                 91.6491
loop_
_atom_site_label
_atom_site_type_symbol
_atom_site_fract_x
_atom_site_fract_y
_atom_site_fract_z
_atom_site_U_iso_or_equiv
_atom_site_adp_type
_atom_site_occupancy
O1     O     0.16666   0.10558   0.20487   0.00000  Uiso   1.00
O2     O     0.16667   0.22775   0.12846   0.00000  Uiso   1.00
O3     O     0.16666   0.10559   0.12843   0.00000  Uiso   1.00
O4     O     0.16667   0.22774   0.20490   0.00000  Uiso   1.00
C5     C     0.16689   0.08682   0.16644   0.00000  Uiso   1.00
C6     C     0.16644   0.24651   0.16689   0.00000  Uiso   1.00
O7     O     0.09058   0.16666   0.19595   0.00000  Uiso   1.00
O8     O     0.24275   0.16667   0.13739   0.00000  Uiso   1.00
O9     O     0.09058   0.16667   0.11950   0.00000  Uiso   1.00
O10    O     0.24275   0.16666   0.21383   0.00000  Uiso   1.00
C11    C     0.06728   0.16565   0.15505   0.00000  Uiso   1.00
C12    C     0.26605   0.16769   0.17828   0.00000  Uiso   1.00
Zn13   Zn    0.16667   0.16666   0.21771   0.00000  Uiso   1.00
Zn14   Zn    0.16667   0.16667   0.11563   0.00000  Uiso   1.00
N15    N     0.16665   0.16666   0.28573   0.00000  Uiso   1.00
N16    N     0.16668   0.16668   0.04760   0.00000  Uiso   1.00
C17    C     0.01283   0.15844   0.15048   0.00000  Uiso   1.00
C18    C     0.32050   0.17489   0.18285   0.00000  Uiso   1.00
C19    C     0.13234   0.02064   0.13371   0.00000  Uiso   1.00
C20    C     0.20100   0.31269   0.19962   0.00000  Uiso   1.00
C21    C     0.13037   0.31085   0.13451   0.00000  Uiso   1.00
C22    C     0.20297   0.02248   0.19882   0.00000  Uiso   1.00
C23    C     0.16518   0.29068   0.16742   0.00000  Uiso   1.00
C24    C     0.16816   0.04265   0.16591   0.00000  Uiso   1.00
C25    C     0.20707   0.18551   0.02837   0.00000  Uiso   1.00
C26    C     0.12627   0.14782   0.30496   0.00000  Uiso   1.00
C27    C     0.20686   0.18494   0.31393   0.00000  Uiso   1.00
C28    C     0.12648   0.14839   0.01940   0.00000  Uiso   1.00
H29    H     0.23872   0.19975   0.29938   0.00000  Uiso   1.00
H30    H     0.09462   0.13359   0.03395   0.00000  Uiso   1.00
N31    N     0.32348   0.12677   0.11809   0.00000  Uiso   1.00
O32    O     0.00439   0.12495   0.07779   0.00000  Uiso   1.00
O33    O     0.29589   0.09576   0.13123   0.00000  Uiso   1.00
N34    N     0.00986   0.20657   0.21524   0.00000  Uiso   1.00
O35    O     0.32894   0.20839   0.25554   0.00000  Uiso   1.00
O36    O     0.03745   0.23757   0.20210   0.00000  Uiso   1.00
N37    N     0.09513   0.04218   0.10258   0.00000  Uiso   1.00
O38    O     0.10796   0.05450   0.06387   0.00000  Uiso   1.00
O39    O     0.04616   0.04129   0.10852   0.00000  Uiso   1.00
N40    N     0.23821   0.29115   0.23075   0.00000  Uiso   1.00
O41    O     0.22539   0.27883   0.26946   0.00000  Uiso   1.00
O42    O     0.28717   0.29205   0.22480   0.00000  Uiso   1.00
C43    C     0.09121   0.28753   0.10137   0.00000  Uiso   1.00
O44    O     0.06350   0.25995   0.11447   0.00000  Uiso   1.00
O45    O     0.08592   0.29740   0.05521   0.00000  Uiso   1.00
H46    H     0.05809   0.27945   0.03617   0.00000  Uiso   1.00
C47    C     0.24212   0.04581   0.23196   0.00000  Uiso   1.00
O48    O     0.26982   0.07339   0.21886   0.00000  Uiso   1.00
O49    O     0.24743   0.03592   0.27812   0.00000  Uiso   1.00
H50    H     0.27526   0.05387   0.29716   0.00000  Uiso   1.00
N51    N     0.24982   0.20682   0.05577   0.00000  Uiso   1.00
O52    O     0.29711   0.20212   0.04652   0.00000  Uiso   1.00
O53    O     0.24087   0.23913   0.07973   0.00000  Uiso   1.00
N54    N     0.08351   0.12651   0.27756   0.00000  Uiso   1.00
O55    O     0.03623   0.13121   0.28681   0.00000  Uiso   1.00
O56    O     0.09246   0.09420   0.25360   0.00000  Uiso   1.00
O57    O     0.50000   0.10558   0.20487   0.00000  Uiso   1.00
O58    O     0.50000   0.22775   0.12846   0.00000  Uiso   1.00
O59    O     0.50000   0.10559   0.12843   0.00000  Uiso   1.00
O60    O     0.50000   0.22774   0.20490   0.00000  Uiso   1.00
C61    C     0.50023   0.08682   0.16644   0.00000  Uiso   1.00
C62    C     0.49977   0.24651   0.16689   0.00000  Uiso   1.00
O63    O     0.42392   0.16666   0.19595   0.00000  Uiso   1.00
O64    O     0.57608   0.16667   0.13739   0.00000  Uiso   1.00
O65    O     0.42392   0.16667   0.11950   0.00000  Uiso   1.00
O66    O     0.57608   0.16666   0.21383   0.00000  Uiso   1.00
C67    C     0.40062   0.16565   0.15505   0.00000  Uiso   1.00
C68    C     0.59938   0.16769   0.17828   0.00000  Uiso   1.00
Zn69   Zn    0.50000   0.16666   0.21771   0.00000  Uiso   1.00
Zn70   Zn    0.50000   0.16667   0.11563   0.00000  Uiso   1.00
N71    N     0.49999   0.16666   0.28573   0.00000  Uiso   1.00
N72    N     0.50001   0.16668   0.04760   0.00000  Uiso   1.00
C73    C     0.34616   0.15844   0.15048   0.00000  Uiso   1.00
C74    C     0.65384   0.17489   0.18285   0.00000  Uiso   1.00
C75    C     0.46567   0.02064   0.13371   0.00000  Uiso   1.00
C76    C     0.53433   0.31269   0.19962   0.00000  Uiso   1.00
C77    C     0.46370   0.31085   0.13451   0.00000  Uiso   1.00
C78    C     0.53630   0.02248   0.19882   0.00000  Uiso   1.00
C79    C     0.49851   0.29068   0.16742   0.00000  Uiso   1.00
C80    C     0.50149   0.04265   0.16591   0.00000  Uiso   1.00
C81    C     0.54040   0.18551   0.02837   0.00000  Uiso   1.00
C82    C     0.45960   0.14782   0.30496   0.00000  Uiso   1.00
C83    C     0.54019   0.18494   0.31393   0.00000  Uiso   1.00
C84    C     0.45981   0.14839   0.01940   0.00000  Uiso   1.00
H85    H     0.57205   0.19975   0.29938   0.00000  Uiso   1.00
H86    H     0.42795   0.13359   0.03395   0.00000  Uiso   1.00
N87    N     0.65681   0.12677   0.11809   0.00000  Uiso   1.00
O88    O     0.33772   0.12495   0.07779   0.00000  Uiso   1.00
O89    O     0.62922   0.09576   0.13123   0.00000  Uiso   1.00
N90    N     0.34319   0.20657   0.21524   0.00000  Uiso   1.00
O91    O     0.66227   0.20839   0.25554   0.00000  Uiso   1.00
O92    O     0.37078   0.23757   0.20210   0.00000  Uiso   1.00
N93    N     0.42846   0.04218   0.10258   0.00000  Uiso   1.00
O94    O     0.44129   0.05450   0.06387   0.00000  Uiso   1.00
O95    O     0.37950   0.04129   0.10852   0.00000  Uiso   1.00
N96    N     0.57154   0.29115   0.23075   0.00000  Uiso   1.00
O97    O     0.55872   0.27883   0.26946   0.00000  Uiso   1.00
O98    O     0.62051   0.29205   0.22480   0.00000  Uiso   1.00
C99    C     0.42454   0.28753   0.10137   0.00000  Uiso   1.00
O100   O     0.39684   0.25995   0.11447   0.00000  Uiso   1.00
O101   O     0.41926   0.29740   0.05521   0.00000  Uiso   1.00
H102   H     0.39142   0.27945   0.03617   0.00000  Uiso   1.00
C103   C     0.57546   0.04581   0.23196   0.00000  Uiso   1.00
O104   O     0.60316   0.07339   0.21886   0.00000  Uiso   1.00
O105   O     0.58076   0.03592   0.27812   0.00000  Uiso   1.00
H106   H     0.60860   0.05387   0.29716   0.00000  Uiso   1.00
N107   N     0.58316   0.20682   0.05577   0.00000  Uiso   1.00
O108   O     0.63044   0.20212   0.04652   0.00000  Uiso   1.00
O109   O     0.57420   0.23913   0.07973   0.00000  Uiso   1.00
N110   N     0.41684   0.12651   0.27756   0.00000  Uiso   1.00
O111   O     0.36956   0.13121   0.28681   0.00000  Uiso   1.00
O112   O     0.42580   0.09420   0.25360   0.00000  Uiso   1.00
O113   O     0.83333   0.10558   0.20487   0.00000  Uiso   1.00
O114   O     0.83334   0.22775   0.12846   0.00000  Uiso   1.00
O115   O     0.83333   0.10559   0.12843   0.00000  Uiso   1.00
O116   O     0.83334   0.22774   0.20490   0.00000  Uiso   1.00
C117   C     0.83356   0.08682   0.16644   0.00000  Uiso   1.00
C118   C     0.83311   0.24651   0.16689   0.00000  Uiso   1.00
O119   O     0.75725   0.16666   0.19595   0.00000  Uiso   1.00
O120   O     0.90942   0.16667   0.13739   0.00000  Uiso   1.00
O121   O     0.75725   0.16667   0.11950   0.00000  Uiso   1.00
O122   O     0.90942   0.16666   0.21383   0.00000  Uiso   1.00
C123   C     0.73395   0.16565   0.15505   0.00000  Uiso   1.00
C124   C     0.93271   0.16769   0.17828   0.00000  Uiso   1.00
Zn125  Zn    0.83333   0.16666   0.21771   0.00000  Uiso   1.00
Zn126  Zn    0.83333   0.16667   0.11563   0.00000  Uiso   1.00
N127   N     0.83332   0.16666   0.28573   0.00000  Uiso   1.00
N128   N     0.83335   0.16668   0.04760   0.00000  Uiso   1.00
C129   C     0.67950   0.15844   0.15048   0.00000  Uiso   1.00
C130   C     0.98717   0.17489   0.18285   0.00000  Uiso   1.00
C131   C     0.79900   0.02064   0.13371   0.00000  Uiso   1.00
C132   C     0.86767   0.31269   0.19962   0.00000  Uiso   1.00
C133   C     0.79704   0.31085   0.13451   0.00000  Uiso   1.00
C134   C     0.86963   0.02248   0.19882   0.00000  Uiso   1.00
C135   C     0.83184   0.29068   0.16742   0.00000  Uiso   1.00
C136   C     0.83482   0.04265   0.16591   0.00000  Uiso   1.00
C137   C     0.87373   0.18551   0.02837   0.00000  Uiso   1.00
C138   C     0.79293   0.14782   0.30496   0.00000  Uiso   1.00
C139   C     0.87352   0.18494   0.31393   0.00000  Uiso   1.00
C140   C     0.79314   0.14839   0.01940   0.00000  Uiso   1.00
H141   H     0.90538   0.19975   0.29938   0.00000  Uiso   1.00
H142   H     0.76128   0.13359   0.03395   0.00000  Uiso   1.00
N143   N     0.99014   0.12677   0.11809   0.00000  Uiso   1.00
O144   O     0.67106   0.12495   0.07779   0.00000  Uiso   1.00
O145   O     0.96255   0.09576   0.13123   0.00000  Uiso   1.00
N146   N     0.67652   0.20657   0.21524   0.00000  Uiso   1.00
O147   O     0.99561   0.20839   0.25554   0.00000  Uiso   1.00
O148   O     0.70412   0.23757   0.20210   0.00000  Uiso   1.00
N149   N     0.76180   0.04218   0.10258   0.00000  Uiso   1.00
O150   O     0.77462   0.05450   0.06387   0.00000  Uiso   1.00
O151   O     0.71283   0.04129   0.10852   0.00000  Uiso   1.00
N152   N     0.90488   0.29115   0.23075   0.00000  Uiso   1.00
O153   O     0.89205   0.27883   0.26946   0.00000  Uiso   1.00
O154   O     0.95384   0.29205   0.22480   0.00000  Uiso   1.00
C155   C     0.75788   0.28753   0.10137   0.00000  Uiso   1.00
O156   O     0.73017   0.25995   0.11447   0.00000  Uiso   1.00
O157   O     0.75259   0.29740   0.05521   0.00000  Uiso   1.00
H158   H     0.72475   0.27945   0.03617   0.00000  Uiso   1.00
C159   C     0.90879   0.04581   0.23196   0.00000  Uiso   1.00
O160   O     0.93649   0.07339   0.21886   0.00000  Uiso   1.00
O161   O     0.91409   0.03592   0.27812   0.00000  Uiso   1.00
H162   H     0.94193   0.05387   0.29716   0.00000  Uiso   1.00
N163   N     0.91649   0.20682   0.05577   0.00000  Uiso   1.00
O164   O     0.96377   0.20212   0.04652   0.00000  Uiso   1.00
O165   O     0.90753   0.23913   0.07973   0.00000  Uiso   1.00
N166   N     0.75018   0.12651   0.27756   0.00000  Uiso   1.00
O167   O     0.70289   0.13121   0.28681   0.00000  Uiso   1.00
O168   O     0.75913   0.09420   0.25360   0.00000  Uiso   1.00
O169   O     0.16666   0.43892   0.20487   0.00000  Uiso   1.00
O170   O     0.16667   0.56108   0.12846   0.00000  Uiso   1.00
O171   O     0.16666   0.43893   0.12843   0.00000  Uiso   1.00
O172   O     0.16667   0.56107   0.20490   0.00000  Uiso   1.00
C173   C     0.16689   0.42015   0.16644   0.00000  Uiso   1.00
C174   C     0.16644   0.57985   0.16689   0.00000  Uiso   1.00
O175   O     0.09058   0.50000   0.19595   0.00000  Uiso   1.00
O176   O     0.24275   0.50000   0.13739   0.00000  Uiso   1.00
O177   O     0.09058   0.50000   0.11950   0.00000  Uiso   1.00
O178   O     0.24275   0.50000   0.21383   0.00000  Uiso   1.00
C179   C     0.06728   0.49898   0.15505   0.00000  Uiso   1.00
C180   C     0.26605   0.50102   0.17828   0.00000  Uiso   1.00
Zn181  Zn    0.16667   0.49999   0.21771   0.00000  Uiso   1.00
Zn182  Zn    0.16667   0.50001   0.11563   0.00000  Uiso   1.00
N183   N     0.16665   0.49999   0.28573   0.00000  Uiso   1.00
N184   N     0.16668   0.50001   0.04760   0.00000  Uiso   1.00
C185   C     0.01283   0.49177   0.15048   0.00000  Uiso   1.00
C186   C     0.32050   0.50823   0.18285   0.00000  Uiso   1.00
C187   C     0.13234   0.35397   0.13371   0.00000  Uiso   1.00
C188   C     0.20100   0.64603   0.19962   0.00000  Uiso   1.00
C189   C     0.13037   0.64418   0.13451   0.00000  Uiso   1.00
C190   C     0.20297   0.35582   0.19882   0.00000  Uiso   1.00
C191   C     0.16518   0.62402   0.16742   0.00000  Uiso   1.00
C192   C     0.16816   0.37598   0.16591   0.00000  Uiso   1.00
C193   C     0.20707   0.51884   0.02837   0.00000  Uiso   1.00
C194   C     0.12627   0.48116   0.30496   0.00000  Uiso   1.00
C195   C     0.20686   0.51828   0.31393   0.00000  Uiso   1.00
C196   C     0.12648   0.48172   0.01940   0.00000  Uiso   1.00
H197   H     0.23872   0.53308   0.29938   0.00000  Uiso   1.00
H198   H     0.09462   0.46692   0.03395   0.00000  Uiso   1.00
N199   N     0.32348   0.46010   0.11809   0.00000  Uiso   1.00
O200   O     0.00439   0.45828   0.07779   0.00000  Uiso   1.00
O201   O     0.29589   0.42909   0.13123   0.00000  Uiso   1.00
N202   N     0.00986   0.53990   0.21524   0.00000  Uiso   1.00
O203   O     0.32894   0.54173   0.25554   0.00000  Uiso   1.00
O204   O     0.03745   0.57091   0.20210   0.00000  Uiso   1.00
N205   N     0.09513   0.37551   0.10258   0.00000  Uiso   1.00
O206   O     0.10796   0.38784   0.06387   0.00000  Uiso   1.00
O207   O     0.04616   0.37462   0.10852   0.00000  Uiso   1.00
N208   N     0.23821   0.62448   0.23075   0.00000  Uiso   1.00
O209   O     0.22539   0.61216   0.26946   0.00000  Uiso   1.00
O210   O     0.28717   0.62538   0.22480   0.00000  Uiso   1.00
C211   C     0.09121   0.62086   0.10137   0.00000  Uiso   1.00
O212   O     0.06350   0.59328   0.11447   0.00000  Uiso   1.00
O213   O     0.08592   0.63073   0.05521   0.00000  Uiso   1.00
H214   H     0.05809   0.61279   0.03617   0.00000  Uiso   1.00
C215   C     0.24212   0.37914   0.23196   0.00000  Uiso   1.00
O216   O     0.26982   0.40673   0.21886   0.00000  Uiso   1.00
O217   O     0.24743   0.36926   0.27812   0.00000  Uiso   1.00
H218   H     0.27526   0.38721   0.29716   0.00000  Uiso   1.00
N219   N     0.24982   0.54016   0.05577   0.00000  Uiso   1.00
O220   O     0.29711   0.53545   0.04652   0.00000  Uiso   1.00
O221   O     0.24087   0.57247   0.07973   0.00000  Uiso   1.00
N222   N     0.08351   0.45984   0.27756   0.00000  Uiso   1.00
O223   O     0.03623   0.46455   0.28681   0.00000  Uiso   1.00
O224   O     0.09246   0.42753   0.25360   0.00000  Uiso   1.00
O225   O     0.50000   0.43892   0.20487   0.00000  Uiso   1.00
O226   O     0.50000   0.56108   0.12846   0.00000  Uiso   1.00
O227   O     0.50000   0.43893   0.12843   0.00000  Uiso   1.00
O228   O     0.50000   0.56107   0.20490   0.00000  Uiso   1.00
C229   C     0.50023   0.42015   0.16644   0.00000  Uiso   1.00
C230   C     0.49977   0.57985   0.16689   0.00000  Uiso   1.00
O231   O     0.42392   0.50000   0.19595   0.00000  Uiso   1.00
O232   O     0.57608   0.50000   0.13739   0.00000  Uiso   1.00
O233   O     0.42392   0.50000   0.11950   0.00000  Uiso   1.00
O234   O     0.57608   0.50000   0.21383   0.00000  Uiso   1.00
C235   C     0.40062   0.49898   0.15505   0.00000  Uiso   1.00
C236   C     0.59938   0.50102   0.17828   0.00000  Uiso   1.00
Zn237  Zn    0.50000   0.49999   0.21771   0.00000  Uiso   1.00
Zn238  Zn    0.50000   0.50001   0.11563   0.00000  Uiso   1.00
N239   N     0.49999   0.49999   0.28573   0.00000  Uiso   1.00
N240   N     0.50001   0.50001   0.04760   0.00000  Uiso   1.00
C241   C     0.34616   0.49177   0.15048   0.00000  Uiso   1.00
C242   C     0.65384   0.50823   0.18285   0.00000  Uiso   1.00
C243   C     0.46567   0.35397   0.13371   0.00000  Uiso   1.00
C244   C     0.53433   0.64603   0.19962   0.00000  Uiso   1.00
C245   C     0.46370   0.64418   0.13451   0.00000  Uiso   1.00
C246   C     0.53630   0.35582   0.19882   0.00000  Uiso   1.00
C247   C     0.49851   0.62402   0.16742   0.00000  Uiso   1.00
C248   C     0.50149   0.37598   0.16591   0.00000  Uiso   1.00
C249   C     0.54040   0.51884   0.02837   0.00000  Uiso   1.00
C250   C     0.45960   0.48116   0.30496   0.00000  Uiso   1.00
C251   C     0.54019   0.51828   0.31393   0.00000  Uiso   1.00
C252   C     0.45981   0.48172   0.01940   0.00000  Uiso   1.00
H253   H     0.57205   0.53308   0.29938   0.00000  Uiso   1.00
H254   H     0.42795   0.46692   0.03395   0.00000  Uiso   1.00
N255   N     0.65681   0.46010   0.11809   0.00000  Uiso   1.00
O256   O     0.33772   0.45828   0.07779   0.00000  Uiso   1.00
O257   O     0.62922   0.42909   0.13123   0.00000  Uiso   1.00
N258   N     0.34319   0.53990   0.21524   0.00000  Uiso   1.00
O259   O     0.66227   0.54173   0.25554   0.00000  Uiso   1.00
O260   O     0.37078   0.57091   0.20210   0.00000  Uiso   1.00
N261   N     0.42846   0.37551   0.10258   0.00000  Uiso   1.00
O262   O     0.44129   0.38784   0.06387   0.00000  Uiso   1.00
O263   O     0.37950   0.37462   0.10852   0.00000  Uiso   1.00
N264   N     0.57154   0.62448   0.23075   0.00000  Uiso   1.00
O265   O     0.55872   0.61216   0.26946   0.00000  Uiso   1.00
O266   O     0.62051   0.62538   0.22480   0.00000  Uiso   1.00
C267   C     0.42454   0.62086   0.10137   0.00000  Uiso   1.00
O268   O     0.39684   0.59328   0.11447   0.00000  Uiso   1.00
O269   O     0.41926   0.63073   0.05521   0.00000  Uiso   1.00
H270   H     0.39142   0.61279   0.03617   0.00000  Uiso   1.00
C271   C     0.57546   0.37914   0.23196   0.00000  Uiso   1.00
O272   O     0.60316   0.40673   0.21886   0.00000  Uiso   1.00
O273   O     0.58076   0.36926   0.27812   0.00000  Uiso   1.00
H274   H     0.60860   0.38721   0.29716   0.00000  Uiso   1.00
N275   N     0.58316   0.54016   0.05577   0.00000  Uiso   1.00
O276   O     0.63044   0.53545   0.04652   0.00000  Uiso   1.00
O277   O     0.57420   0.57247   0.07973   0.00000  Uiso   1.00
N278   N     0.41684   0.45984   0.27756   0.00000  Uiso   1.00
O279   O     0.36956   0.46455   0.28681   0.00000  Uiso   1.00
O280   O     0.42580   0.42753   0.25360   0.00000  Uiso   1.00
O281   O     0.83333   0.43892   0.20487   0.00000  Uiso   1.00
O282   O     0.83334   0.56108   0.12846   0.00000  Uiso   1.00
O283   O     0.83333   0.43893   0.12843   0.00000  Uiso   1.00
O284   O     0.83334   0.56107   0.20490   0.00000  Uiso   1.00
C285   C     0.83356   0.42015   0.16644   0.00000  Uiso   1.00
C286   C     0.83311   0.57985   0.16689   0.00000  Uiso   1.00
O287   O     0.75725   0.50000   0.19595   0.00000  Uiso   1.00
O288   O     0.90942   0.50000   0.13739   0.00000  Uiso   1.00
O289   O     0.75725   0.50000   0.11950   0.00000  Uiso   1.00
O290   O     0.90942   0.50000   0.21383   0.00000  Uiso   1.00
C291   C     0.73395   0.49898   0.15505   0.00000  Uiso   1.00
C292   C     0.93271   0.50102   0.17828   0.00000  Uiso   1.00
Zn293  Zn    0.83333   0.49999   0.21771   0.00000  Uiso   1.00
Zn294  Zn    0.83333   0.50001   0.11563   0.00000  Uiso   1.00
N295   N     0.83332   0.49999   0.28573   0.00000  Uiso   1.00
N296   N     0.83335   0.50001   0.04760   0.00000  Uiso   1.00
C297   C     0.67950   0.49177   0.15048   0.00000  Uiso   1.00
C298   C     0.98717   0.50823   0.18285   0.00000  Uiso   1.00
C299   C     0.79900   0.35397   0.13371   0.00000  Uiso   1.00
C300   C     0.86767   0.64603   0.19962   0.00000  Uiso   1.00
C301   C     0.79704   0.64418   0.13451   0.00000  Uiso   1.00
C302   C     0.86963   0.35582   0.19882   0.00000  Uiso   1.00
C303   C     0.83184   0.62402   0.16742   0.00000  Uiso   1.00
C304   C     0.83482   0.37598   0.16591   0.00000  Uiso   1.00
C305   C     0.87373   0.51884   0.02837   0.00000  Uiso   1.00
C306   C     0.79293   0.48116   0.30496   0.00000  Uiso   1.00
C307   C     0.87352   0.51828   0.31393   0.00000  Uiso   1.00
C308   C     0.79314   0.48172   0.01940   0.00000  Uiso   1.00
H309   H     0.90538   0.53308   0.29938   0.00000  Uiso   1.00
H310   H     0.76128   0.46692   0.03395   0.00000  Uiso   1.00
N311   N     0.99014   0.46010   0.11809   0.00000  Uiso   1.00
O312   O     0.67106   0.45828   0.07779   0.00000  Uiso   1.00
O313   O     0.96255   0.42909   0.13123   0.00000  Uiso   1.00
N314   N     0.67652   0.53990   0.21524   0.00000  Uiso   1.00
O315   O     0.99561   0.54173   0.25554   0.00000  Uiso   1.00
O316   O     0.70412   0.57091   0.20210   0.00000  Uiso   1.00
N317   N     0.76180   0.37551   0.10258   0.00000  Uiso   1.00
O318   O     0.77462   0.38784   0.06387   0.00000  Uiso   1.00
O319   O     0.71283   0.37462   0.10852   0.00000  Uiso   1.00
N320   N     0.90488   0.62448   0.23075   0.00000  Uiso   1.00
O321   O     0.89205   0.61216   0.26946   0.00000  Uiso   1.00
O322   O     0.95384   0.62538   0.22480   0.00000  Uiso   1.00
C323   C     0.75788   0.62086   0.10137   0.00000  Uiso   1.00
O324   O     0.73017   0.59328   0.11447   0.00000  Uiso   1.00
O325   O     0.75259   0.63073   0.05521   0.00000  Uiso   1.00
H326   H     0.72475   0.61279   0.03617   0.00000  Uiso   1.00
C327   C     0.90879   0.37914   0.23196   0.00000  Uiso   1.00
O328   O     0.93649   0.40673   0.21886   0.00000  Uiso   1.00
O329   O     0.91409   0.36926   0.27812   0.00000  Uiso   1.00
H330   H     0.94193   0.38721   0.29716   0.00000  Uiso   1.00
N331   N     0.91649   0.54016   0.05577   0.00000  Uiso   1.00
O332   O     0.96377   0.53545   0.04652   0.00000  Uiso   1.00
O333   O     0.90753   0.57247   0.07973   0.00000  Uiso   1.00
N334   N     0.75018   0.45984   0.27756   0.00000  Uiso   1.00
O335   O     0.70289   0.46455   0.28681   0.00000  Uiso   1.00
O336   O     0.75913   0.42753   0.25360   0.00000  Uiso   1.00
O337   O     0.16666   0.77225   0.20487   0.00000  Uiso   1.00
O338   O     0.16667   0.89442   0.12846   0.00000  Uiso   1.00
O339   O     0.16666   0.77226   0.12843   0.00000  Uiso   1.00
O340   O     0.16667   0.89441   0.20490   0.00000  Uiso   1.00
C341   C     0.16689   0.75349   0.16644   0.00000  Uiso   1.00
C342   C     0.16644   0.91318   0.16689   0.00000  Uiso   1.00
O343   O     0.09058   0.83333   0.19595   0.00000  Uiso   1.00
O344   O     0.24275   0.83334   0.13739   0.00000  Uiso   1.00
O345   O     0.09058   0.83334   0.11950   0.00000  Uiso   1.00
O346   O     0.24275   0.83333   0.21383   0.00000  Uiso   1.00
C347   C     0.06728   0.83231   0.15505   0.00000  Uiso   1.00
C348   C     0.26605   0.83435   0.17828   0.00000  Uiso   1.00
Zn349  Zn    0.16667   0.83333   0.21771   0.00000  Uiso   1.00
Zn350  Zn    0.16667   0.83334   0.11563   0.00000  Uiso   1.00
N351   N     0.16665   0.83332   0.28573   0.00000  Uiso   1.00
N352   N     0.16668   0.83334   0.04760   0.00000  Uiso   1.00
C353   C     0.01283   0.82511   0.15048   0.00000  Uiso   1.00
C354   C     0.32050   0.84156   0.18285   0.00000  Uiso   1.00
C355   C     0.13234   0.68731   0.13371   0.00000  Uiso   1.00
C356   C     0.20100   0.97936   0.19962   0.00000  Uiso   1.00
C357   C     0.13037   0.97752   0.13451   0.00000  Uiso   1.00
C358   C     0.20297   0.68915   0.19882   0.00000  Uiso   1.00
C359   C     0.16518   0.95735   0.16742   0.00000  Uiso   1.00
C360   C     0.16816   0.70932   0.16591   0.00000  Uiso   1.00
C361   C     0.20707   0.85218   0.02837   0.00000  Uiso   1.00
C362   C     0.12627   0.81449   0.30496   0.00000  Uiso   1.00
C363   C     0.20686   0.85161   0.31393   0.00000  Uiso   1.00
C364   C     0.12648   0.81506   0.01940   0.00000  Uiso   1.00
H365   H     0.23872   0.86641   0.29938   0.00000  Uiso   1.00
H366   H     0.09462   0.80025   0.03395   0.00000  Uiso   1.00
N367   N     0.32348   0.79343   0.11809   0.00000  Uiso   1.00
O368   O     0.00439   0.79161   0.07779   0.00000  Uiso   1.00
O369   O     0.29589   0.76242   0.13123   0.00000  Uiso   1.00
N370   N     0.00986   0.87323   0.21524   0.00000  Uiso   1.00
O371   O     0.32894   0.87506   0.25554   0.00000  Uiso   1.00
O372   O     0.03745   0.90424   0.20210   0.00000  Uiso   1.00
N373   N     0.09513   0.70885   0.10258   0.00000  Uiso   1.00
O374   O     0.10796   0.72117   0.06387   0.00000  Uiso   1.00
O375   O     0.04616   0.70795   0.10852   0.00000  Uiso   1.00
N376   N     0.23821   0.95782   0.23075   0.00000  Uiso   1.00
O377   O     0.22539   0.94549   0.26946   0.00000  Uiso   1.00
O378   O     0.28717   0.95871   0.22480   0.00000  Uiso   1.00
C379   C     0.09121   0.95419   0.10137   0.00000  Uiso   1.00
O380   O     0.06350   0.92661   0.11447   0.00000  Uiso   1.00
O381   O     0.08592   0.96407   0.05521   0.00000  Uiso   1.00
H382   H     0.05809   0.94612   0.03617   0.00000  Uiso   1.00
C383   C     0.24212   0.71247   0.23196   0.00000  Uiso   1.00
O384   O     0.26982   0.74006   0.21886   0.00000  Uiso   1.00
O385   O     0.24743   0.70259   0.27812   0.00000  Uiso   1.00
H386   H     0.27526   0.72054   0.29716   0.00000  Uiso   1.00
N387   N     0.24982   0.87349   0.05577   0.00000  Uiso   1.00
O388   O     0.29711   0.86879   0.04652   0.00000  Uiso   1.00
O389   O     0.24087   0.90580   0.07973   0.00000  Uiso   1.00
N390   N     0.08351   0.79318   0.27756   0.00000  Uiso   1.00
O391   O     0.03623   0.79788   0.28681   0.00000  Uiso   1.00
O392   O     0.09246   0.76087   0.25360   0.00000  Uiso   1.00
O393   O     0.50000   0.77225   0.20487   0.00000  Uiso   1.00
O394   O     0.50000   0.89442   0.12846   0.00000  Uiso   1.00
O395   O     0.50000   0.77226   0.12843   0.00000  Uiso   1.00
O396   O     0.50000   0.89441   0.20490   0.00000  Uiso   1.00
C397   C     0.50023   0.75349   0.16644   0.00000  Uiso   1.00
C398   C     0.49977   0.91318   0.16689   0.00000  Uiso   1.00
O399   O     0.42392   0.83333   0.19595   0.00000  Uiso   1.00
O400   O     0.57608   0.83334   0.13739   0.00000  Uiso   1.00
O401   O     0.42392   0.83334   0.11950   0.00000  Uiso   1.00
O402   O     0.57608   0.83333   0.21383   0.00000  Uiso   1.00
C403   C     0.40062   0.83231   0.15505   0.00000  Uiso   1.00
C404   C     0.59938   0.83435   0.17828   0.00000  Uiso   1.00
Zn405  Zn    0.50000   0.83333   0.21771   0.00000  Uiso   1.00
Zn406  Zn    0.50000   0.83334   0.11563   0.00000  Uiso   1.00
N407   N     0.49999   0.83332   0.28573   0.00000  Uiso   1.00
N408   N     0.50001   0.83334   0.04760   0.00000  Uiso   1.00
C409   C     0.34616   0.82511   0.15048   0.00000  Uiso   1.00
C410   C     0.65384   0.84156   0.18285   0.00000  Uiso   1.00
C411   C     0.46567   0.68731   0.13371   0.00000  Uiso   1.00
C412   C     0.53433   0.97936   0.19962   0.00000  Uiso   1.00
C413   C     0.46370   0.97752   0.13451   0.00000  Uiso   1.00
C414   C     0.53630   0.68915   0.19882   0.00000  Uiso   1.00
C415   C     0.49851   0.95735   0.16742   0.00000  Uiso   1.00
C416   C     0.50149   0.70932   0.16591   0.00000  Uiso   1.00
C417   C     0.54040   0.85218   0.02837   0.00000  Uiso   1.00
C418   C     0.45960   0.81449   0.30496   0.00000  Uiso   1.00
C419   C     0.54019   0.85161   0.31393   0.00000  Uiso   1.00
C420   C     0.45981   0.81506   0.01940   0.00000  Uiso   1.00
H421   H     0.57205   0.86641   0.29938   0.00000  Uiso   1.00
H422   H     0.42795   0.80025   0.03395   0.00000  Uiso   1.00
N423   N     0.65681   0.79343   0.11809   0.00000  Uiso   1.00
O424   O     0.33772   0.79161   0.07779   0.00000  Uiso   1.00
O425   O     0.62922   0.76242   0.13123   0.00000  Uiso   1.00
N426   N     0.34319   0.87323   0.21524   0.00000  Uiso   1.00
O427   O     0.66227   0.87506   0.25554   0.00000  Uiso   1.00
O428   O     0.37078   0.90424   0.20210   0.00000  Uiso   1.00
N429   N     0.42846   0.70885   0.10258   0.00000  Uiso   1.00
O430   O     0.44129   0.72117   0.06387   0.00000  Uiso   1.00
O431   O     0.37950   0.70795   0.10852   0.00000  Uiso   1.00
N432   N     0.57154   0.95782   0.23075   0.00000  Uiso   1.00
O433   O     0.55872   0.94549   0.26946   0.00000  Uiso   1.00
O434   O     0.62051   0.95871   0.22480   0.00000  Uiso   1.00
C435   C     0.42454   0.95419   0.10137   0.00000  Uiso   1.00
O436   O     0.39684   0.92661   0.11447   0.00000  Uiso   1.00
O437   O     0.41926   0.96407   0.05521   0.00000  Uiso   1.00
H438   H     0.39142   0.94612   0.03617   0.00000  Uiso   1.00
C439   C     0.57546   0.71247   0.23196   0.00000  Uiso   1.00
O440   O     0.60316   0.74006   0.21886   0.00000  Uiso   1.00
O441   O     0.58076   0.70259   0.27812   0.00000  Uiso   1.00
H442   H     0.60860   0.72054   0.29716   0.00000  Uiso   1.00
N443   N     0.58316   0.87349   0.05577   0.00000  Uiso   1.00
O444   O     0.63044   0.86879   0.04652   0.00000  Uiso   1.00
O445   O     0.57420   0.90580   0.07973   0.00000  Uiso   1.00
N446   N     0.41684   0.79318   0.27756   0.00000  Uiso   1.00
O447   O     0.36956   0.79788   0.28681   0.00000  Uiso   1.00
O448   O     0.42580   0.76087   0.25360   0.00000  Uiso   1.00
O449   O     0.83333   0.77225   0.20487   0.00000  Uiso   1.00
O450   O     0.83334   0.89442   0.12846   0.00000  Uiso   1.00
O451   O     0.83333   0.77226   0.12843   0.00000  Uiso   1.00
O452   O     0.83334   0.89441   0.20490   0.00000  Uiso   1.00
C453   C     0.83356   0.75349   0.16644   0.00000  Uiso   1.00
C454   C     0.83311   0.91318   0.16689   0.00000  Uiso   1.00
O455   O     0.75725   0.83333   0.19595   0.00000  Uiso   1.00
O456   O     0.90942   0.83334   0.13739   0.00000  Uiso   1.00
O457   O     0.75725   0.83334   0.11950   0.00000  Uiso   1.00
O458   O     0.90942   0.83333   0.21383   0.00000  Uiso   1.00
C459   C     0.73395   0.83231   0.15505   0.00000  Uiso   1.00
C460   C     0.93271   0.83435   0.17828   0.00000  Uiso   1.00
Zn461  Zn    0.83333   0.83333   0.21771   0.00000  Uiso   1.00
Zn462  Zn    0.83333   0.83334   0.11563   0.00000  Uiso   1.00
N463   N     0.83332   0.83332   0.28573   0.00000  Uiso   1.00
N464   N     0.83335   0.83334   0.04760   0.00000  Uiso   1.00
C465   C     0.67950   0.82511   0.15048   0.00000  Uiso   1.00
C466   C     0.98717   0.84156   0.18285   0.00000  Uiso   1.00
C467   C     0.79900   0.68731   0.13371   0.00000  Uiso   1.00
C468   C     0.86767   0.97936   0.19962   0.00000  Uiso   1.00
C469   C     0.79704   0.97752   0.13451   0.00000  Uiso   1.00
C470   C     0.86963   0.68915   0.19882   0.00000  Uiso   1.00
C471   C     0.83184   0.95735   0.16742   0.00000  Uiso   1.00
C472   C     0.83482   0.70932   0.16591   0.00000  Uiso   1.00
C473   C     0.87373   0.85218   0.02837   0.00000  Uiso   1.00
C474   C     0.79293   0.81449   0.30496   0.00000  Uiso   1.00
C475   C     0.87352   0.85161   0.31393   0.00000  Uiso   1.00
C476   C     0.79314   0.81506   0.01940   0.00000  Uiso   1.00
H477   H     0.90538   0.86641   0.29938   0.00000  Uiso   1.00
H478   H     0.76128   0.80025   0.03395   0.00000  Uiso   1.00
N479   N     0.99014   0.79343   0.11809   0.00000  Uiso   1.00
O480   O     0.67106   0.79161   0.07779   0.00000  Uiso   1.00
O481   O     0.96255   0.76242   0.13123   0.00000  Uiso   1.00
N482   N     0.67652   0.87323   0.21524   0.00000  Uiso   1.00
O483   O     0.99561   0.87506   0.25554   0.00000  Uiso   1.00
O484   O     0.70412   0.90424   0.20210   0.00000  Uiso   1.00
N485   N     0.76180   0.70885   0.10258   0.00000  Uiso   1.00
O486   O     0.77462   0.72117   0.06387   0.00000  Uiso   1.00
O487   O     0.71283   0.70795   0.10852   0.00000  Uiso   1.00
N488   N     0.90488   0.95782   0.23075   0.00000  Uiso   1.00
O489   O     0.89205   0.94549   0.26946   0.00000  Uiso   1.00
O490   O     0.95384   0.95871   0.22480   0.00000  Uiso   1.00
C491   C     0.75788   0.95419   0.10137   0.00000  Uiso   1.00
O492   O     0.73017   0.92661   0.11447   0.00000  Uiso   1.00
O493   O     0.75259   0.96407   0.05521   0.00000  Uiso   1.00
H494   H     0.72475   0.94612   0.03617   0.00000  Uiso   1.00
C495   C     0.90879   0.71247   0.23196   0.00000  Uiso   1.00
O496   O     0.93649   0.74006   0.21886   0.00000  Uiso   1.00
O497   O     0.91409   0.70259   0.27812   0.00000  Uiso   1.00
H498   H     0.94193   0.72054   0.29716   0.00000  Uiso   1.00
N499   N     0.91649   0.87349   0.05577   0.00000  Uiso   1.00
O500   O     0.96377   0.86879   0.04652   0.00000  Uiso   1.00
O501   O     0.90753   0.90580   0.07973   0.00000  Uiso   1.00
N502   N     0.75018   0.79318   0.27756   0.00000  Uiso   1.00
O503   O     0.70289   0.79788   0.28681   0.00000  Uiso   1.00
O504   O     0.75913   0.76087   0.25360   0.00000  Uiso   1.00
O505   O     0.16666   0.10558   0.53821   0.00000  Uiso   1.00
O506   O     0.16667   0.22775   0.46179   0.00000  Uiso   1.00
O507   O     0.16666   0.10559   0.46176   0.00000  Uiso   1.00
O508   O     0.16667   0.22774   0.53824   0.00000  Uiso   1.00
C509   C     0.16689   0.08682   0.49978   0.00000  Uiso   1.00
C510   C     0.16644   0.24651   0.50022   0.00000  Uiso   1.00
O511   O     0.09058   0.16666   0.52928   0.00000  Uiso   1.00
O512   O     0.24275   0.16667   0.47072   0.00000  Uiso   1.00
O513   O     0.09058   0.16667   0.45284   0.00000  Uiso   1.00
O514   O     0.24275   0.16666   0.54716   0.00000  Uiso   1.00
C515   C     0.06728   0.16565   0.48839   0.00000  Uiso   1.00
C516   C     0.26605   0.16769   0.51161   0.00000  Uiso   1.00
Zn517  Zn    0.16667   0.16666   0.55104   0.00000  Uiso   1.00
Zn518  Zn    0.16667   0.16667   0.44896   0.00000  Uiso   1.00
N519   N     0.16665   0.16666   0.61907   0.00000  Uiso   1.00
N520   N     0.16668   0.16668   0.38093   0.00000  Uiso   1.00
C521   C     0.01283   0.15844   0.48382   0.00000  Uiso   1.00
C522   C     0.32050   0.17489   0.51618   0.00000  Uiso   1.00
C523   C     0.13234   0.02064   0.46705   0.00000  Uiso   1.00
C524   C     0.20100   0.31269   0.53295   0.00000  Uiso   1.00
C525   C     0.13037   0.31085   0.46784   0.00000  Uiso   1.00
C526   C     0.20297   0.02248   0.53215   0.00000  Uiso   1.00
C527   C     0.16518   0.29068   0.50076   0.00000  Uiso   1.00
C528   C     0.16816   0.04265   0.49924   0.00000  Uiso   1.00
C529   C     0.20707   0.18551   0.36170   0.00000  Uiso   1.00
C530   C     0.12627   0.14782   0.63830   0.00000  Uiso   1.00
C531   C     0.20686   0.18494   0.64726   0.00000  Uiso   1.00
C532   C     0.12648   0.14839   0.35274   0.00000  Uiso   1.00
H533   H     0.23872   0.19975   0.63272   0.00000  Uiso   1.00
H534   H     0.09462   0.13359   0.36728   0.00000  Uiso   1.00
N535   N     0.32348   0.12677   0.45142   0.00000  Uiso   1.00
O536   O     0.00439   0.12495   0.41113   0.00000  Uiso   1.00
O537   O     0.29589   0.09576   0.46457   0.00000  Uiso   1.00
N538   N     0.00986   0.20657   0.54858   0.00000  Uiso   1.00
O539   O     0.32894   0.20839   0.58887   0.00000  Uiso   1.00
O540   O     0.03745   0.23757   0.53543   0.00000  Uiso   1.00
N541   N     0.09513   0.04218   0.43591   0.00000  Uiso   1.00
O542   O     0.10796   0.05450   0.39720   0.00000  Uiso   1.00
O543   O     0.04616   0.04129   0.44186   0.00000  Uiso   1.00
N544   N     0.23821   0.29115   0.56408   0.00000  Uiso   1.00
O545   O     0.22539   0.27883   0.60279   0.00000  Uiso   1.00
O546   O     0.28717   0.29205   0.55813   0.00000  Uiso   1.00
C547   C     0.09121   0.28753   0.43470   0.00000  Uiso   1.00
O548   O     0.06350   0.25995   0.44780   0.00000  Uiso   1.00
O549   O     0.08592   0.29740   0.38854   0.00000  Uiso   1.00
H550   H     0.05809   0.27945   0.36950   0.00000  Uiso   1.00
C551   C     0.24212   0.04581   0.56530   0.00000  Uiso   1.00
O552   O     0.26982   0.07339   0.55220   0.00000  Uiso   1.00
O553   O     0.24743   0.03592   0.61145   0.00000  Uiso   1.00
H554   H     0.27526   0.05387   0.63050   0.00000  Uiso   1.00
N555   N     0.24982   0.20682   0.38911   0.00000  Uiso   1.00
O556   O     0.29711   0.20212   0.37985   0.00000  Uiso   1.00
O557   O     0.24087   0.23913   0.41307   0.00000  Uiso   1.00
N558   N     0.08351   0.12651   0.61089   0.00000  Uiso   1.00
O559   O     0.03623   0.13121   0.62014   0.00000  Uiso   1.00
O560   O     0.09246   0.09420   0.58693   0.00000  Uiso   1.00
O561   O     0.50000   0.10558   0.53821   0.00000  Uiso   1.00
O562   O     0.50000   0.22775   0.46179   0.00000  Uiso   1.00
O563   O     0.50000   0.10559   0.46176   0.00000  Uiso   1.00
O564   O     0.50000   0.22774   0.53824   0.00000  Uiso   1.00
C565   C     0.50023   0.08682   0.49978   0.00000  Uiso   1.00
C566   C     0.49977   0.24651   0.50022   0.00000  Uiso   1.00
O567   O     0.42392   0.16666   0.52928   0.00000  Uiso   1.00
O568   O     0.57608   0.16667   0.47072   0.00000  Uiso   1.00
O569   O     0.42392   0.16667   0.45284   0.00000  Uiso   1.00
O570   O     0.57608   0.16666   0.54716   0.00000  Uiso   1.00
C571   C     0.40062   0.16565   0.48839   0.00000  Uiso   1.00
C572   C     0.59938   0.16769   0.51161   0.00000  Uiso   1.00
Zn573  Zn    0.50000   0.16666   0.55104   0.00000  Uiso   1.00
Zn574  Zn    0.50000   0.16667   0.44896   0.00000  Uiso   1.00
N575   N     0.49999   0.16666   0.61907   0.00000  Uiso   1.00
N576   N     0.50001   0.16668   0.38093   0.00000  Uiso   1.00
C577   C     0.34616   0.15844   0.48382   0.00000  Uiso   1.00
C578   C     0.65384   0.17489   0.51618   0.00000  Uiso   1.00
C579   C     0.46567   0.02064   0.46705   0.00000  Uiso   1.00
C580   C     0.53433   0.31269   0.53295   0.00000  Uiso   1.00
C581   C     0.46370   0.31085   0.46784   0.00000  Uiso   1.00
C582   C     0.53630   0.02248   0.53215   0.00000  Uiso   1.00
C583   C     0.49851   0.29068   0.50076   0.00000  Uiso   1.00
C584   C     0.50149   0.04265   0.49924   0.00000  Uiso   1.00
C585   C     0.54040   0.18551   0.36170   0.00000  Uiso   1.00
C586   C     0.45960   0.14782   0.63830   0.00000  Uiso   1.00
C587   C     0.54019   0.18494   0.64726   0.00000  Uiso   1.00
C588   C     0.45981   0.14839   0.35274   0.00000  Uiso   1.00
H589   H     0.57205   0.19975   0.63272   0.00000  Uiso   1.00
H590   H     0.42795   0.13359   0.36728   0.00000  Uiso   1.00
N591   N     0.65681   0.12677   0.45142   0.00000  Uiso   1.00
O592   O     0.33772   0.12495   0.41113   0.00000  Uiso   1.00
O593   O     0.62922   0.09576   0.46457   0.00000  Uiso   1.00
N594   N     0.34319   0.20657   0.54858   0.00000  Uiso   1.00
O595   O     0.66227   0.20839   0.58887   0.00000  Uiso   1.00
O596   O     0.37078   0.23757   0.53543   0.00000  Uiso   1.00
N597   N     0.42846   0.04218   0.43591   0.00000  Uiso   1.00
O598   O     0.44129   0.05450   0.39720   0.00000  Uiso   1.00
O599   O     0.37950   0.04129   0.44186   0.00000  Uiso   1.00
N600   N     0.57154   0.29115   0.56408   0.00000  Uiso   1.00
O601   O     0.55872   0.27883   0.60279   0.00000  Uiso   1.00
O602   O     0.62051   0.29205   0.55813   0.00000  Uiso   1.00
C603   C     0.42454   0.28753   0.43470   0.00000  Uiso   1.00
O604   O     0.39684   0.25995   0.44780   0.00000  Uiso   1.00
O605   O     0.41926   0.29740   0.38854   0.00000  Uiso   1.00
H606   H     0.39142   0.27945   0.36950   0.00000  Uiso   1.00
C607   C     0.57546   0.04581   0.56530   0.00000  Uiso   1.00
O608   O     0.60316   0.07339   0.55220   0.00000  Uiso   1.00
O609   O     0.58076   0.03592   0.61145   0.00000  Uiso   1.00
H610   H     0.60860   0.05387   0.63050   0.00000  Uiso   1.00
N611   N     0.58316   0.20682   0.38911   0.00000  Uiso   1.00
O612   O     0.63044   0.20212   0.37985   0.00000  Uiso   1.00
O613   O     0.57420   0.23913   0.41307   0.00000  Uiso   1.00
N614   N     0.41684   0.12651   0.61089   0.00000  Uiso   1.00
O615   O     0.36956   0.13121   0.62014   0.00000  Uiso   1.00
O616   O     0.42580   0.09420   0.58693   0.00000  Uiso   1.00
O617   O     0.83333   0.10558   0.53821   0.00000  Uiso   1.00
O618   O     0.83334   0.22775   0.46179   0.00000  Uiso   1.00
O619   O     0.83333   0.10559   0.46176   0.00000  Uiso   1.00
O620   O     0.83334   0.22774   0.53824   0.00000  Uiso   1.00
C621   C     0.83356   0.08682   0.49978   0.00000  Uiso   1.00
C622   C     0.83311   0.24651   0.50022   0.00000  Uiso   1.00
O623   O     0.75725   0.16666   0.52928   0.00000  Uiso   1.00
O624   O     0.90942   0.16667   0.47072   0.00000  Uiso   1.00
O625   O     0.75725   0.16667   0.45284   0.00000  Uiso   1.00
O626   O     0.90942   0.16666   0.54716   0.00000  Uiso   1.00
C627   C     0.73395   0.16565   0.48839   0.00000  Uiso   1.00
C628   C     0.93271   0.16769   0.51161   0.00000  Uiso   1.00
Zn629  Zn    0.83333   0.16666   0.55104   0.00000  Uiso   1.00
Zn630  Zn    0.83333   0.16667   0.44896   0.00000  Uiso   1.00
N631   N     0.83332   0.16666   0.61907   0.00000  Uiso   1.00
N632   N     0.83335   0.16668   0.38093   0.00000  Uiso   1.00
C633   C     0.67950   0.15844   0.48382   0.00000  Uiso   1.00
C634   C     0.98717   0.17489   0.51618   0.00000  Uiso   1.00
C635   C     0.79900   0.02064   0.46705   0.00000  Uiso   1.00
C636   C     0.86767   0.31269   0.53295   0.00000  Uiso   1.00
C637   C     0.79704   0.31085   0.46784   0.00000  Uiso   1.00
C638   C     0.86963   0.02248   0.53215   0.00000  Uiso   1.00
C639   C     0.83184   0.29068   0.50076   0.00000  Uiso   1.00
C640   C     0.83482   0.04265   0.49924   0.00000  Uiso   1.00
C641   C     0.87373   0.18551   0.36170   0.00000  Uiso   1.00
C642   C     0.79293   0.14782   0.63830   0.00000  Uiso   1.00
C643   C     0.87352   0.18494   0.64726   0.00000  Uiso   1.00
C644   C     0.79314   0.14839   0.35274   0.00000  Uiso   1.00
H645   H     0.90538   0.19975   0.63272   0.00000  Uiso   1.00
H646   H     0.76128   0.13359   0.36728   0.00000  Uiso   1.00
N647   N     0.99014   0.12677   0.45142   0.00000  Uiso   1.00
O648   O     0.67106   0.12495   0.41113   0.00000  Uiso   1.00
O649   O     0.96255   0.09576   0.46457   0.00000  Uiso   1.00
N650   N     0.67652   0.20657   0.54858   0.00000  Uiso   1.00
O651   O     0.99561   0.20839   0.58887   0.00000  Uiso   1.00
O652   O     0.70412   0.23757   0.53543   0.00000  Uiso   1.00
N653   N     0.76180   0.04218   0.43591   0.00000  Uiso   1.00
O654   O     0.77462   0.05450   0.39720   0.00000  Uiso   1.00
O655   O     0.71283   0.04129   0.44186   0.00000  Uiso   1.00
N656   N     0.90488   0.29115   0.56408   0.00000  Uiso   1.00
O657   O     0.89205   0.27883   0.60279   0.00000  Uiso   1.00
O658   O     0.95384   0.29205   0.55813   0.00000  Uiso   1.00
C659   C     0.75788   0.28753   0.43470   0.00000  Uiso   1.00
O660   O     0.73017   0.25995   0.44780   0.00000  Uiso   1.00
O661   O     0.75259   0.29740   0.38854   0.00000  Uiso   1.00
H662   H     0.72475   0.27945   0.36950   0.00000  Uiso   1.00
C663   C     0.90879   0.04581   0.56530   0.00000  Uiso   1.00
O664   O     0.93649   0.07339   0.55220   0.00000  Uiso   1.00
O665   O     0.91409   0.03592   0.61145   0.00000  Uiso   1.00
H666   H     0.94193   0.05387   0.63050   0.00000  Uiso   1.00
N667   N     0.91649   0.20682   0.38911   0.00000  Uiso   1.00
O668   O     0.96377   0.20212   0.37985   0.00000  Uiso   1.00
O669   O     0.90753   0.23913   0.41307   0.00000  Uiso   1.00
N670   N     0.75018   0.12651   0.61089   0.00000  Uiso   1.00
O671   O     0.70289   0.13121   0.62014   0.00000  Uiso   1.00
O672   O     0.75913   0.09420   0.58693   0.00000  Uiso   1.00
O673   O     0.16666   0.43892   0.53821   0.00000  Uiso   1.00
O674   O     0.16667   0.56108   0.46179   0.00000  Uiso   1.00
O675   O     0.16666   0.43893   0.46176   0.00000  Uiso   1.00
O676   O     0.16667   0.56107   0.53824   0.00000  Uiso   1.00
C677   C     0.16689   0.42015   0.49978   0.00000  Uiso   1.00
C678   C     0.16644   0.57985   0.50022   0.00000  Uiso   1.00
O679   O     0.09058   0.50000   0.52928   0.00000  Uiso   1.00
O680   O     0.24275   0.50000   0.47072   0.00000  Uiso   1.00
O681   O     0.09058   0.50000   0.45284   0.00000  Uiso   1.00
O682   O     0.24275   0.50000   0.54716   0.00000  Uiso   1.00
C683   C     0.06728   0.49898   0.48839   0.00000  Uiso   1.00
C684   C     0.26605   0.50102   0.51161   0.00000  Uiso   1.00
Zn685  Zn    0.16667   0.49999   0.55104   0.00000  Uiso   1.00
Zn686  Zn    0.16667   0.50001   0.44896   0.00000  Uiso   1.00
N687   N     0.16665   0.49999   0.61907   0.00000  Uiso   1.00
N688   N     0.16668   0.50001   0.38093   0.00000  Uiso   1.00
C689   C     0.01283   0.49177   0.48382   0.00000  Uiso   1.00
C690   C     0.32050   0.50823   0.51618   0.00000  Uiso   1.00
C691   C     0.13234   0.35397   0.46705   0.00000  Uiso   1.00
C692   C     0.20100   0.64603   0.53295   0.00000  Uiso   1.00
C693   C     0.13037   0.64418   0.46784   0.00000  Uiso   1.00
C694   C     0.20297   0.35582   0.53215   0.00000  Uiso   1.00
C695   C     0.16518   0.62402   0.50076   0.00000  Uiso   1.00
C696   C     0.16816   0.37598   0.49924   0.00000  Uiso   1.00
C697   C     0.20707   0.51884   0.36170   0.00000  Uiso   1.00
C698   C     0.12627   0.48116   0.63830   0.00000  Uiso   1.00
C699   C     0.20686   0.51828   0.64726   0.00000  Uiso   1.00
C700   C     0.12648   0.48172   0.35274   0.00000  Uiso   1.00
H701   H     0.23872   0.53308   0.63272   0.00000  Uiso   1.00
H702   H     0.09462   0.46692   0.36728   0.00000  Uiso   1.00
N703   N     0.32348   0.46010   0.45142   0.00000  Uiso   1.00
O704   O     0.00439   0.45828   0.41113   0.00000  Uiso   1.00
O705   O     0.29589   0.42909   0.46457   0.00000  Uiso   1.00
N706   N     0.00986   0.53990   0.54858   0.00000  Uiso   1.00
O707   O     0.32894   0.54173   0.58887   0.00000  Uiso   1.00
O708   O     0.03745   0.57091   0.53543   0.00000  Uiso   1.00
N709   N     0.09513   0.37551   0.43591   0.00000  Uiso   1.00
O710   O     0.10796   0.38784   0.39720   0.00000  Uiso   1.00
O711   O     0.04616   0.37462   0.44186   0.00000  Uiso   1.00
N712   N     0.23821   0.62448   0.56408   0.00000  Uiso   1.00
O713   O     0.22539   0.61216   0.60279   0.00000  Uiso   1.00
O714   O     0.28717   0.62538   0.55813   0.00000  Uiso   1.00
C715   C     0.09121   0.62086   0.43470   0.00000  Uiso   1.00
O716   O     0.06350   0.59328   0.44780   0.00000  Uiso   1.00
O717   O     0.08592   0.63073   0.38854   0.00000  Uiso   1.00
H718   H     0.05809   0.61279   0.36950   0.00000  Uiso   1.00
C719   C     0.24212   0.37914   0.56530   0.00000  Uiso   1.00
O720   O     0.26982   0.40673   0.55220   0.00000  Uiso   1.00
O721   O     0.24743   0.36926   0.61145   0.00000  Uiso   1.00
H722   H     0.27526   0.38721   0.63050   0.00000  Uiso   1.00
N723   N     0.24982   0.54016   0.38911   0.00000  Uiso   1.00
O724   O     0.29711   0.53545   0.37985   0.00000  Uiso   1.00
O725   O     0.24087   0.57247   0.41307   0.00000  Uiso   1.00
N726   N     0.08351   0.45984   0.61089   0.00000  Uiso   1.00
O727   O     0.03623   0.46455   0.62014   0.00000  Uiso   1.00
O728   O     0.09246   0.42753   0.58693   0.00000  Uiso   1.00
O729   O     0.50000   0.43892   0.53821   0.00000  Uiso   1.00
O730   O     0.50000   0.56108   0.46179   0.00000  Uiso   1.00
O731   O     0.50000   0.43893   0.46176   0.00000  Uiso   1.00
O732   O     0.50000   0.56107   0.53824   0.00000  Uiso   1.00
C733   C     0.50023   0.42015   0.49978   0.00000  Uiso   1.00
C734   C     0.49977   0.57985   0.50022   0.00000  Uiso   1.00
O735   O     0.42392   0.50000   0.52928   0.00000  Uiso   1.00
O736   O     0.57608   0.50000   0.47072   0.00000  Uiso   1.00
O737   O     0.42392   0.50000   0.45284   0.00000  Uiso   1.00
O738   O     0.57608   0.50000   0.54716   0.00000  Uiso   1.00
C739   C     0.40062   0.49898   0.48839   0.00000  Uiso   1.00
C740   C     0.59938   0.50102   0.51161   0.00000  Uiso   1.00
Zn741  Zn    0.50000   0.49999   0.55104   0.00000  Uiso   1.00
Zn742  Zn    0.50000   0.50001   0.44896   0.00000  Uiso   1.00
N743   N     0.49999   0.49999   0.61907   0.00000  Uiso   1.00
N744   N     0.50001   0.50001   0.38093   0.00000  Uiso   1.00
C745   C     0.34616   0.49177   0.48382   0.00000  Uiso   1.00
C746   C     0.65384   0.50823   0.51618   0.00000  Uiso   1.00
C747   C     0.46567   0.35397   0.46705   0.00000  Uiso   1.00
C748   C     0.53433   0.64603   0.53295   0.00000  Uiso   1.00
C749   C     0.46370   0.64418   0.46784   0.00000  Uiso   1.00
C750   C     0.53630   0.35582   0.53215   0.00000  Uiso   1.00
C751   C     0.49851   0.62402   0.50076   0.00000  Uiso   1.00
C752   C     0.50149   0.37598   0.49924   0.00000  Uiso   1.00
C753   C     0.54040   0.51884   0.36170   0.00000  Uiso   1.00
C754   C     0.45960   0.48116   0.63830   0.00000  Uiso   1.00
C755   C     0.54019   0.51828   0.64726   0.00000  Uiso   1.00
C756   C     0.45981   0.48172   0.35274   0.00000  Uiso   1.00
H757   H     0.57205   0.53308   0.63272   0.00000  Uiso   1.00
H758   H     0.42795   0.46692   0.36728   0.00000  Uiso   1.00
N759   N     0.65681   0.46010   0.45142   0.00000  Uiso   1.00
O760   O     0.33772   0.45828   0.41113   0.00000  Uiso   1.00
O761   O     0.62922   0.42909   0.46457   0.00000  Uiso   1.00
N762   N     0.34319   0.53990   0.54858   0.00000  Uiso   1.00
O763   O     0.66227   0.54173   0.58887   0.00000  Uiso   1.00
O764   O     0.37078   0.57091   0.53543   0.00000  Uiso   1.00
N765   N     0.42846   0.37551   0.43591   0.00000  Uiso   1.00
O766   O     0.44129   0.38784   0.39720   0.00000  Uiso   1.00
O767   O     0.37950   0.37462   0.44186   0.00000  Uiso   1.00
N768   N     0.57154   0.62448   0.56408   0.00000  Uiso   1.00
O769   O     0.55872   0.61216   0.60279   0.00000  Uiso   1.00
O770   O     0.62051   0.62538   0.55813   0.00000  Uiso   1.00
C771   C     0.42454   0.62086   0.43470   0.00000  Uiso   1.00
O772   O     0.39684   0.59328   0.44780   0.00000  Uiso   1.00
O773   O     0.41926   0.63073   0.38854   0.00000  Uiso   1.00
H774   H     0.39142   0.61279   0.36950   0.00000  Uiso   1.00
C775   C     0.57546   0.37914   0.56530   0.00000  Uiso   1.00
O776   O     0.60316   0.40673   0.55220   0.00000  Uiso   1.00
O777   O     0.58076   0.36926   0.61145   0.00000  Uiso   1.00
H778   H     0.60860   0.38721   0.63050   0.00000  Uiso   1.00
N779   N     0.58316   0.54016   0.38911   0.00000  Uiso   1.00
O780   O     0.63044   0.53545   0.37985   0.00000  Uiso   1.00
O781   O     0.57420   0.57247   0.41307   0.00000  Uiso   1.00
N782   N     0.41684   0.45984   0.61089   0.00000  Uiso   1.00
O783   O     0.36956   0.46455   0.62014   0.00000  Uiso   1.00
O784   O     0.42580   0.42753   0.58693   0.00000  Uiso   1.00
O785   O     0.83333   0.43892   0.53821   0.00000  Uiso   1.00
O786   O     0.83334   0.56108   0.46179   0.00000  Uiso   1.00
O787   O     0.83333   0.43893   0.46176   0.00000  Uiso   1.00
O788   O     0.83334   0.56107   0.53824   0.00000  Uiso   1.00
C789   C     0.83356   0.42015   0.49978   0.00000  Uiso   1.00
C790   C     0.83311   0.57985   0.50022   0.00000  Uiso   1.00
O791   O     0.75725   0.50000   0.52928   0.00000  Uiso   1.00
O792   O     0.90942   0.50000   0.47072   0.00000  Uiso   1.00
O793   O     0.75725   0.50000   0.45284   0.00000  Uiso   1.00
O794   O     0.90942   0.50000   0.54716   0.00000  Uiso   1.00
C795   C     0.73395   0.49898   0.48839   0.00000  Uiso   1.00
C796   C     0.93271   0.50102   0.51161   0.00000  Uiso   1.00
Zn797  Zn    0.83333   0.49999   0.55104   0.00000  Uiso   1.00
Zn798  Zn    0.83333   0.50001   0.44896   0.00000  Uiso   1.00
N799   N     0.83332   0.49999   0.61907   0.00000  Uiso   1.00
N800   N     0.83335   0.50001   0.38093   0.00000  Uiso   1.00
C801   C     0.67950   0.49177   0.48382   0.00000  Uiso   1.00
C802   C     0.98717   0.50823   0.51618   0.00000  Uiso   1.00
C803   C     0.79900   0.35397   0.46705   0.00000  Uiso   1.00
C804   C     0.86767   0.64603   0.53295   0.00000  Uiso   1.00
C805   C     0.79704   0.64418   0.46784   0.00000  Uiso   1.00
C806   C     0.86963   0.35582   0.53215   0.00000  Uiso   1.00
C807   C     0.83184   0.62402   0.50076   0.00000  Uiso   1.00
C808   C     0.83482   0.37598   0.49924   0.00000  Uiso   1.00
C809   C     0.87373   0.51884   0.36170   0.00000  Uiso   1.00
C810   C     0.79293   0.48116   0.63830   0.00000  Uiso   1.00
C811   C     0.87352   0.51828   0.64726   0.00000  Uiso   1.00
C812   C     0.79314   0.48172   0.35274   0.00000  Uiso   1.00
H813   H     0.90538   0.53308   0.63272   0.00000  Uiso   1.00
H814   H     0.76128   0.46692   0.36728   0.00000  Uiso   1.00
N815   N     0.99014   0.46010   0.45142   0.00000  Uiso   1.00
O816   O     0.67106   0.45828   0.41113   0.00000  Uiso   1.00
O817   O     0.96255   0.42909   0.46457   0.00000  Uiso   1.00
N818   N     0.67652   0.53990   0.54858   0.00000  Uiso   1.00
O819   O     0.99561   0.54173   0.58887   0.00000  Uiso   1.00
O820   O     0.70412   0.57091   0.53543   0.00000  Uiso   1.00
N821   N     0.76180   0.37551   0.43591   0.00000  Uiso   1.00
O822   O     0.77462   0.38784   0.39720   0.00000  Uiso   1.00
O823   O     0.71283   0.37462   0.44186   0.00000  Uiso   1.00
N824   N     0.90488   0.62448   0.56408   0.00000  Uiso   1.00
O825   O     0.89205   0.61216   0.60279   0.00000  Uiso   1.00
O826   O     0.95384   0.62538   0.55813   0.00000  Uiso   1.00
C827   C     0.75788   0.62086   0.43470   0.00000  Uiso   1.00
O828   O     0.73017   0.59328   0.44780   0.00000  Uiso   1.00
O829   O     0.75259   0.63073   0.38854   0.00000  Uiso   1.00
H830   H     0.72475   0.61279   0.36950   0.00000  Uiso   1.00
C831   C     0.90879   0.37914   0.56530   0.00000  Uiso   1.00
O832   O     0.93649   0.40673   0.55220   0.00000  Uiso   1.00
O833   O     0.91409   0.36926   0.61145   0.00000  Uiso   1.00
H834   H     0.94193   0.38721   0.63050   0.00000  Uiso   1.00
N835   N     0.91649   0.54016   0.38911   0.00000  Uiso   1.00
O836   O     0.96377   0.53545   0.37985   0.00000  Uiso   1.00
O837   O     0.90753   0.57247   0.41307   0.00000  Uiso   1.00
N838   N     0.75018   0.45984   0.61089   0.00000  Uiso   1.00
O839   O     0.70289   0.46455   0.62014   0.00000  Uiso   1.00
O840   O     0.75913   0.42753   0.58693   0.00000  Uiso   1.00
O841   O     0.16666   0.77225   0.53821   0.00000  Uiso   1.00
O842   O     0.16667   0.89442   0.46179   0.00000  Uiso   1.00
O843   O     0.16666   0.77226   0.46176   0.00000  Uiso   1.00
O844   O     0.16667   0.89441   0.53824   0.00000  Uiso   1.00
C845   C     0.16689   0.75349   0.49978   0.00000  Uiso   1.00
C846   C     0.16644   0.91318   0.50022   0.00000  Uiso   1.00
O847   O     0.09058   0.83333   0.52928   0.00000  Uiso   1.00
O848   O     0.24275   0.83334   0.47072   0.00000  Uiso   1.00
O849   O     0.09058   0.83334   0.45284   0.00000  Uiso   1.00
O850   O     0.24275   0.83333   0.54716   0.00000  Uiso   1.00
C851   C     0.06728   0.83231   0.48839   0.00000  Uiso   1.00
C852   C     0.26605   0.83435   0.51161   0.00000  Uiso   1.00
Zn853  Zn    0.16667   0.83333   0.55104   0.00000  Uiso   1.00
Zn854  Zn    0.16667   0.83334   0.44896   0.00000  Uiso   1.00
N855   N     0.16665   0.83332   0.61907   0.00000  Uiso   1.00
N856   N     0.16668   0.83334   0.38093   0.00000  Uiso   1.00
C857   C     0.01283   0.82511   0.48382   0.00000  Uiso   1.00
C858   C     0.32050   0.84156   0.51618   0.00000  Uiso   1.00
C859   C     0.13234   0.68731   0.46705   0.00000  Uiso   1.00
C860   C     0.20100   0.97936   0.53295   0.00000  Uiso   1.00
C861   C     0.13037   0.97752   0.46784   0.00000  Uiso   1.00
C862   C     0.20297   0.68915   0.53215   0.00000  Uiso   1.00
C863   C     0.16518   0.95735   0.50076   0.00000  Uiso   1.00
C864   C     0.16816   0.70932   0.49924   0.00000  Uiso   1.00
C865   C     0.20707   0.85218   0.36170   0.00000  Uiso   1.00
C866   C     0.12627   0.81449   0.63830   0.00000  Uiso   1.00
C867   C     0.20686   0.85161   0.64726   0.00000  Uiso   1.00
C868   C     0.12648   0.81506   0.35274   0.00000  Uiso   1.00
H869   H     0.23872   0.86641   0.63272   0.00000  Uiso   1.00
H870   H     0.09462   0.80025   0.36728   0.00000  Uiso   1.00
N871   N     0.32348   0.79343   0.45142   0.00000  Uiso   1.00
O872   O     0.00439   0.79161   0.41113   0.00000  Uiso   1.00
O873   O     0.29589   0.76242   0.46457   0.00000  Uiso   1.00
N874   N     0.00986   0.87323   0.54858   0.00000  Uiso   1.00
O875   O     0.32894   0.87506   0.58887   0.00000  Uiso   1.00
O876   O     0.03745   0.90424   0.53543   0.00000  Uiso   1.00
N877   N     0.09513   0.70885   0.43591   0.00000  Uiso   1.00
O878   O     0.10796   0.72117   0.39720   0.00000  Uiso   1.00
O879   O     0.04616   0.70795   0.44186   0.00000  Uiso   1.00
N880   N     0.23821   0.95782   0.56408   0.00000  Uiso   1.00
O881   O     0.22539   0.94549   0.60279   0.00000  Uiso   1.00
O882   O     0.28717   0.95871   0.55813   0.00000  Uiso   1.00
C883   C     0.09121   0.95419   0.43470   0.00000  Uiso   1.00
O884   O     0.06350   0.92661   0.44780   0.00000  Uiso   1.00
O885   O     0.08592   0.96407   0.38854   0.00000  Uiso   1.00
H886   H     0.05809   0.94612   0.36950   0.00000  Uiso   1.00
C887   C     0.24212   0.71247   0.56530   0.00000  Uiso   1.00
O888   O     0.26982   0.74006   0.55220   0.00000  Uiso   1.00
O889   O     0.24743   0.70259   0.61145   0.00000  Uiso   1.00
H890   H     0.27526   0.72054   0.63050   0.00000  Uiso   1.00
N891   N     0.24982   0.87349   0.38911   0.00000  Uiso   1.00
O892   O     0.29711   0.86879   0.37985   0.00000  Uiso   1.00
O893   O     0.24087   0.90580   0.41307   0.00000  Uiso   1.00
N894   N     0.08351   0.79318   0.61089   0.00000  Uiso   1.00
O895   O     0.03623   0.79788   0.62014   0.00000  Uiso   1.00
O896   O     0.09246   0.76087   0.58693   0.00000  Uiso   1.00
O897   O     0.50000   0.77225   0.53821   0.00000  Uiso   1.00
O898   O     0.50000   0.89442   0.46179   0.00000  Uiso   1.00
O899   O     0.50000   0.77226   0.46176   0.00000  Uiso   1.00
O900   O     0.50000   0.89441   0.53824   0.00000  Uiso   1.00
C901   C     0.50023   0.75349   0.49978   0.00000  Uiso   1.00
C902   C     0.49977   0.91318   0.50022   0.00000  Uiso   1.00
O903   O     0.42392   0.83333   0.52928   0.00000  Uiso   1.00
O904   O     0.57608   0.83334   0.47072   0.00000  Uiso   1.00
O905   O     0.42392   0.83334   0.45284   0.00000  Uiso   1.00
O906   O     0.57608   0.83333   0.54716   0.00000  Uiso   1.00
C907   C     0.40062   0.83231   0.48839   0.00000  Uiso   1.00
C908   C     0.59938   0.83435   0.51161   0.00000  Uiso   1.00
Zn909  Zn    0.50000   0.83333   0.55104   0.00000  Uiso   1.00
Zn910  Zn    0.50000   0.83334   0.44896   0.00000  Uiso   1.00
N911   N     0.49999   0.83332   0.61907   0.00000  Uiso   1.00
N912   N     0.50001   0.83334   0.38093   0.00000  Uiso   1.00
C913   C     0.34616   0.82511   0.48382   0.00000  Uiso   1.00
C914   C     0.65384   0.84156   0.51618   0.00000  Uiso   1.00
C915   C     0.46567   0.68731   0.46705   0.00000  Uiso   1.00
C916   C     0.53433   0.97936   0.53295   0.00000  Uiso   1.00
C917   C     0.46370   0.97752   0.46784   0.00000  Uiso   1.00
C918   C     0.53630   0.68915   0.53215   0.00000  Uiso   1.00
C919   C     0.49851   0.95735   0.50076   0.00000  Uiso   1.00
C920   C     0.50149   0.70932   0.49924   0.00000  Uiso   1.00
C921   C     0.54040   0.85218   0.36170   0.00000  Uiso   1.00
C922   C     0.45960   0.81449   0.63830   0.00000  Uiso   1.00
C923   C     0.54019   0.85161   0.64726   0.00000  Uiso   1.00
C924   C     0.45981   0.81506   0.35274   0.00000  Uiso   1.00
H925   H     0.57205   0.86641   0.63272   0.00000  Uiso   1.00
H926   H     0.42795   0.80025   0.36728   0.00000  Uiso   1.00
N927   N     0.65681   0.79343   0.45142   0.00000  Uiso   1.00
O928   O     0.33772   0.79161   0.41113   0.00000  Uiso   1.00
O929   O     0.62922   0.76242   0.46457   0.00000  Uiso   1.00
N930   N     0.34319   0.87323   0.54858   0.00000  Uiso   1.00
O931   O     0.66227   0.87506   0.58887   0.00000  Uiso   1.00
O932   O     0.37078   0.90424   0.53543   0.00000  Uiso   1.00
N933   N     0.42846   0.70885   0.43591   0.00000  Uiso   1.00
O934   O     0.44129   0.72117   0.39720   0.00000  Uiso   1.00
O935   O     0.37950   0.70795   0.44186   0.00000  Uiso   1.00
N936   N     0.57154   0.95782   0.56408   0.00000  Uiso   1.00
O937   O     0.55872   0.94549   0.60279   0.00000  Uiso   1.00
O938   O     0.62051   0.95871   0.55813   0.00000  Uiso   1.00
C939   C     0.42454   0.95419   0.43470   0.00000  Uiso   1.00
O940   O     0.39684   0.92661   0.44780   0.00000  Uiso   1.00
O941   O     0.41926   0.96407   0.38854   0.00000  Uiso   1.00
H942   H     0.39142   0.94612   0.36950   0.00000  Uiso   1.00
C943   C     0.57546   0.71247   0.56530   0.00000  Uiso   1.00
O944   O     0.60316   0.74006   0.55220   0.00000  Uiso   1.00
O945   O     0.58076   0.70259   0.61145   0.00000  Uiso   1.00
H946   H     0.60860   0.72054   0.63050   0.00000  Uiso   1.00
N947   N     0.58316   0.87349   0.38911   0.00000  Uiso   1.00
O948   O     0.63044   0.86879   0.37985   0.00000  Uiso   1.00
O949   O     0.57420   0.90580   0.41307   0.00000  Uiso   1.00
N950   N     0.41684   0.79318   0.61089   0.00000  Uiso   1.00
O951   O     0.36956   0.79788   0.62014   0.00000  Uiso   1.00
O952   O     0.42580   0.76087   0.58693   0.00000  Uiso   1.00
O953   O     0.83333   0.77225   0.53821   0.00000  Uiso   1.00
O954   O     0.83334   0.89442   0.46179   0.00000  Uiso   1.00
O955   O     0.83333   0.77226   0.46176   0.00000  Uiso   1.00
O956   O     0.83334   0.89441   0.53824   0.00000  Uiso   1.00
C957   C     0.83356   0.75349   0.49978   0.00000  Uiso   1.00
C958   C     0.83311   0.91318   0.50022   0.00000  Uiso   1.00
O959   O     0.75725   0.83333   0.52928   0.00000  Uiso   1.00
O960   O     0.90942   0.83334   0.47072   0.00000  Uiso   1.00
O961   O     0.75725   0.83334   0.45284   0.00000  Uiso   1.00
O962   O     0.90942   0.83333   0.54716   0.00000  Uiso   1.00
C963   C     0.73395   0.83231   0.48839   0.00000  Uiso   1.00
C964   C     0.93271   0.83435   0.51161   0.00000  Uiso   1.00
Zn965  Zn    0.83333   0.83333   0.55104   0.00000  Uiso   1.00
Zn966  Zn    0.83333   0.83334   0.44896   0.00000  Uiso   1.00
N967   N     0.83332   0.83332   0.61907   0.00000  Uiso   1.00
N968   N     0.83335   0.83334   0.38093   0.00000  Uiso   1.00
C969   C     0.67950   0.82511   0.48382   0.00000  Uiso   1.00
C970   C     0.98717   0.84156   0.51618   0.00000  Uiso   1.00
C971   C     0.79900   0.68731   0.46705   0.00000  Uiso   1.00
C972   C     0.86767   0.97936   0.53295   0.00000  Uiso   1.00
C973   C     0.79704   0.97752   0.46784   0.00000  Uiso   1.00
C974   C     0.86963   0.68915   0.53215   0.00000  Uiso   1.00
C975   C     0.83184   0.95735   0.50076   0.00000  Uiso   1.00
C976   C     0.83482   0.70932   0.49924   0.00000  Uiso   1.00
C977   C     0.87373   0.85218   0.36170   0.00000  Uiso   1.00
C978   C     0.79293   0.81449   0.63830   0.00000  Uiso   1.00
C979   C     0.87352   0.85161   0.64726   0.00000  Uiso   1.00
C980   C     0.79314   0.81506   0.35274   0.00000  Uiso   1.00
H981   H     0.90538   0.86641   0.63272   0.00000  Uiso   1.00
H982   H     0.76128   0.80025   0.36728   0.00000  Uiso   1.00
N983   N     0.99014   0.79343   0.45142   0.00000  Uiso   1.00
O984   O     0.67106   0.79161   0.41113   0.00000  Uiso   1.00
O985   O     0.96255   0.76242   0.46457   0.00000  Uiso   1.00
N986   N     0.67652   0.87323   0.54858   0.00000  Uiso   1.00
O987   O     0.99561   0.87506   0.58887   0.00000  Uiso   1.00
O988   O     0.70412   0.90424   0.53543   0.00000  Uiso   1.00
N989   N     0.76180   0.70885   0.43591   0.00000  Uiso   1.00
O990   O     0.77462   0.72117   0.39720   0.00000  Uiso   1.00
O991   O     0.71283   0.70795   0.44186   0.00000  Uiso   1.00
N992   N     0.90488   0.95782   0.56408   0.00000  Uiso   1.00
O993   O     0.89205   0.94549   0.60279   0.00000  Uiso   1.00
O994   O     0.95384   0.95871   0.55813   0.00000  Uiso   1.00
C995   C     0.75788   0.95419   0.43470   0.00000  Uiso   1.00
O996   O     0.73017   0.92661   0.44780   0.00000  Uiso   1.00
O997   O     0.75259   0.96407   0.38854   0.00000  Uiso   1.00
H998   H     0.72475   0.94612   0.36950   0.00000  Uiso   1.00
C999   C     0.90879   0.71247   0.56530   0.00000  Uiso   1.00
O1000  O     0.93649   0.74006   0.55220   0.00000  Uiso   1.00
O1001  O     0.91409   0.70259   0.61145   0.00000  Uiso   1.00
H1002  H     0.94193   0.72054   0.63050   0.00000  Uiso   1.00
N1003  N     0.91649   0.87349   0.38911   0.00000  Uiso   1.00
O1004  O     0.96377   0.86879   0.37985   0.00000  Uiso   1.00
O1005  O     0.90753   0.90580   0.41307   0.00000  Uiso   1.00
N1006  N     0.75018   0.79318   0.61089   0.00000  Uiso   1.00
O1007  O     0.70289   0.79788   0.62014   0.00000  Uiso   1.00
O1008  O     0.75913   0.76087   0.58693   0.00000  Uiso   1.00
O1009  O     0.16666   0.10558   0.87154   0.00000  Uiso   1.00
O1010  O     0.16667   0.22775   0.79513   0.00000  Uiso   1.00
O1011  O     0.16666   0.10559   0.79510   0.00000  Uiso   1.00
O1012  O     0.16667   0.22774   0.87157   0.00000  Uiso   1.00
C1013  C     0.16689   0.08682   0.83311   0.00000  Uiso   1.00
C1014  C     0.16644   0.24651   0.83355   0.00000  Uiso   1.00
O1015  O     0.09058   0.16666   0.86261   0.00000  Uiso   1.00
O1016  O     0.24275   0.16667   0.80405   0.00000  Uiso   1.00
O1017  O     0.09058   0.16667   0.78617   0.00000  Uiso   1.00
O1018  O     0.24275   0.16666   0.88050   0.00000  Uiso   1.00
C1019  C     0.06728   0.16565   0.82172   0.00000  Uiso   1.00
C1020  C     0.26605   0.16769   0.84495   0.00000  Uiso   1.00
Zn1021 Zn    0.16667   0.16666   0.88437   0.00000  Uiso   1.00
Zn1022 Zn    0.16667   0.16667   0.78229   0.00000  Uiso   1.00
N1023  N     0.16665   0.16666   0.95240   0.00000  Uiso   1.00
N1024  N     0.16668   0.16668   0.71427   0.00000  Uiso   1.00
C1025  C     0.01283   0.15844   0.81715   0.00000  Uiso   1.00
C1026  C     0.32050   0.17489   0.84952   0.00000  Uiso   1.00
C1027  C     0.13234   0.02064   0.80038   0.00000  Uiso   1.00
C1028  C     0.20100   0.31269   0.86629   0.00000  Uiso   1.00
C1029  C     0.13037   0.31085   0.80118   0.00000  Uiso   1.00
C1030  C     0.20297   0.02248   0.86549   0.00000  Uiso   1.00
C1031  C     0.16518   0.29068   0.83409   0.00000  Uiso   1.00
C1032  C     0.16816   0.04265   0.83258   0.00000  Uiso   1.00
C1033  C     0.20707   0.18551   0.69504   0.00000  Uiso   1.00
C1034  C     0.12627   0.14782   0.97163   0.00000  Uiso   1.00
C1035  C     0.20686   0.18494   0.98060   0.00000  Uiso   1.00
C1036  C     0.12648   0.14839   0.68607   0.00000  Uiso   1.00
H1037  H     0.23872   0.19975   0.96605   0.00000  Uiso   1.00
H1038  H     0.09462   0.13359   0.70062   0.00000  Uiso   1.00
N1039  N     0.32348   0.12677   0.78475   0.00000  Uiso   1.00
O1040  O     0.00439   0.12495   0.74446   0.00000  Uiso   1.00
O1041  O     0.29589   0.09576   0.79790   0.00000  Uiso   1.00
N1042  N     0.00986   0.20657   0.88191   0.00000  Uiso   1.00
O1043  O     0.32894   0.20839   0.92220   0.00000  Uiso   1.00
O1044  O     0.03745   0.23757   0.86876   0.00000  Uiso   1.00
N1045  N     0.09513   0.04218   0.76925   0.00000  Uiso   1.00
O1046  O     0.10796   0.05450   0.73054   0.00000  Uiso   1.00
O1047  O     0.04616   0.04129   0.77519   0.00000  Uiso   1.00
N1048  N     0.23821   0.29115   0.89742   0.00000  Uiso   1.00
O1049  O     0.22539   0.27883   0.93612   0.00000  Uiso   1.00
O1050  O     0.28717   0.29205   0.89147   0.00000  Uiso   1.00
C1051  C     0.09121   0.28753   0.76804   0.00000  Uiso   1.00
O1052  O     0.06350   0.25995   0.78114   0.00000  Uiso   1.00
O1053  O     0.08592   0.29740   0.72188   0.00000  Uiso   1.00
H1054  H     0.05809   0.27945   0.70283   0.00000  Uiso   1.00
C1055  C     0.24212   0.04581   0.89863   0.00000  Uiso   1.00
O1056  O     0.26982   0.07339   0.88553   0.00000  Uiso   1.00
O1057  O     0.24743   0.03592   0.94478   0.00000  Uiso   1.00
H1058  H     0.27526   0.05387   0.96383   0.00000  Uiso   1.00
N1059  N     0.24982   0.20682   0.72244   0.00000  Uiso   1.00
O1060  O     0.29711   0.20212   0.71319   0.00000  Uiso   1.00
O1061  O     0.24087   0.23913   0.74640   0.00000  Uiso   1.00
N1062  N     0.08351   0.12651   0.94423   0.00000  Uiso   1.00
O1063  O     0.03623   0.13121   0.95348   0.00000  Uiso   1.00
O1064  O     0.09246   0.09420   0.92027   0.00000  Uiso   1.00
O1065  O     0.50000   0.10558   0.87154   0.00000  Uiso   1.00
O1066  O     0.50000   0.22775   0.79513   0.00000  Uiso   1.00
O1067  O     0.50000   0.10559   0.79510   0.00000  Uiso   1.00
O1068  O     0.50000   0.22774   0.87157   0.00000  Uiso   1.00
C1069  C     0.50023   0.08682   0.83311   0.00000  Uiso   1.00
C1070  C     0.49977   0.24651   0.83355   0.00000  Uiso   1.00
O1071  O     0.42392   0.16666   0.86261   0.00000  Uiso   1.00
O1072  O     0.57608   0.16667   0.80405   0.00000  Uiso   1.00
O1073  O     0.42392   0.16667   0.78617   0.00000  Uiso   1.00
O1074  O     0.57608   0.16666   0.88050   0.00000  Uiso   1.00
C1075  C     0.40062   0.16565   0.82172   0.00000  Uiso   1.00
C1076  C     0.59938   0.16769   0.84495   0.00000  Uiso   1.00
Zn1077 Zn    0.50000   0.16666   0.88437   0.00000  Uiso   1.00
Zn1078 Zn    0.50000   0.16667   0.78229   0.00000  Uiso   1.00
N1079  N     0.49999   0.16666   0.95240   0.00000  Uiso   1.00
N1080  N     0.50001   0.16668   0.71427   0.00000  Uiso   1.00
C1081  C     0.34616   0.15844   0.81715   0.00000  Uiso   1.00
C1082  C     0.65384   0.17489   0.84952   0.00000  Uiso   1.00
C1083  C     0.46567   0.02064   0.80038   0.00000  Uiso   1.00
C1084  C     0.53433   0.31269   0.86629   0.00000  Uiso   1.00
C1085  C     0.46370   0.31085   0.80118   0.00000  Uiso   1.00
C1086  C     0.53630   0.02248   0.86549   0.00000  Uiso   1.00
C1087  C     0.49851   0.29068   0.83409   0.00000  Uiso   1.00
C1088  C     0.50149   0.04265   0.83258   0.00000  Uiso   1.00
C1089  C     0.54040   0.18551   0.69504   0.00000  Uiso   1.00
C1090  C     0.45960   0.14782   0.97163   0.00000  Uiso   1.00
C1091  C     0.54019   0.18494   0.98060   0.00000  Uiso   1.00
C1092  C     0.45981   0.14839   0.68607   0.00000  Uiso   1.00
H1093  H     0.57205   0.19975   0.96605   0.00000  Uiso   1.00
H1094  H     0.42795   0.13359   0.70062   0.00000  Uiso   1.00
N1095  N     0.65681   0.12677   0.78475   0.00000  Uiso   1.00
O1096  O     0.33772   0.12495   0.74446   0.00000  Uiso   1.00
O1097  O     0.62922   0.09576   0.79790   0.00000  Uiso   1.00
N1098  N     0.34319   0.20657   0.88191   0.00000  Uiso   1.00
O1099  O     0.66227   0.20839   0.92220   0.00000  Uiso   1.00
O1100  O     0.37078   0.23757   0.86876   0.00000  Uiso   1.00
N1101  N     0.42846   0.04218   0.76925   0.00000  Uiso   1.00
O1102  O     0.44129   0.05450   0.73054   0.00000  Uiso   1.00
O1103  O     0.37950   0.04129   0.77519   0.00000  Uiso   1.00
N1104  N     0.57154   0.29115   0.89742   0.00000  Uiso   1.00
O1105  O     0.55872   0.27883   0.93612   0.00000  Uiso   1.00
O1106  O     0.62051   0.29205   0.89147   0.00000  Uiso   1.00
C1107  C     0.42454   0.28753   0.76804   0.00000  Uiso   1.00
O1108  O     0.39684   0.25995   0.78114   0.00000  Uiso   1.00
O1109  O     0.41926   0.29740   0.72188   0.00000  Uiso   1.00
H1110  H     0.39142   0.27945   0.70283   0.00000  Uiso   1.00
C1111  C     0.57546   0.04581   0.89863   0.00000  Uiso   1.00
O1112  O     0.60316   0.07339   0.88553   0.00000  Uiso   1.00
O1113  O     0.58076   0.03592   0.94478   0.00000  Uiso   1.00
H1114  H     0.60860   0.05387   0.96383   0.00000  Uiso   1.00
N1115  N     0.58316   0.20682   0.72244   0.00000  Uiso   1.00
O1116  O     0.63044   0.20212   0.71319   0.00000  Uiso   1.00
O1117  O     0.57420   0.23913   0.74640   0.00000  Uiso   1.00
N1118  N     0.41684   0.12651   0.94423   0.00000  Uiso   1.00
O1119  O     0.36956   0.13121   0.95348   0.00000  Uiso   1.00
O1120  O     0.42580   0.09420   0.92027   0.00000  Uiso   1.00
O1121  O     0.83333   0.10558   0.87154   0.00000  Uiso   1.00
O1122  O     0.83334   0.22775   0.79513   0.00000  Uiso   1.00
O1123  O     0.83333   0.10559   0.79510   0.00000  Uiso   1.00
O1124  O     0.83334   0.22774   0.87157   0.00000  Uiso   1.00
C1125  C     0.83356   0.08682   0.83311   0.00000  Uiso   1.00
C1126  C     0.83311   0.24651   0.83355   0.00000  Uiso   1.00
O1127  O     0.75725   0.16666   0.86261   0.00000  Uiso   1.00
O1128  O     0.90942   0.16667   0.80405   0.00000  Uiso   1.00
O1129  O     0.75725   0.16667   0.78617   0.00000  Uiso   1.00
O1130  O     0.90942   0.16666   0.88050   0.00000  Uiso   1.00
C1131  C     0.73395   0.16565   0.82172   0.00000  Uiso   1.00
C1132  C     0.93271   0.16769   0.84495   0.00000  Uiso   1.00
Zn1133 Zn    0.83333   0.16666   0.88437   0.00000  Uiso   1.00
Zn1134 Zn    0.83333   0.16667   0.78229   0.00000  Uiso   1.00
N1135  N     0.83332   0.16666   0.95240   0.00000  Uiso   1.00
N1136  N     0.83335   0.16668   0.71427   0.00000  Uiso   1.00
C1137  C     0.67950   0.15844   0.81715   0.00000  Uiso   1.00
C1138  C     0.98717   0.17489   0.84952   0.00000  Uiso   1.00
C1139  C     0.79900   0.02064   0.80038   0.00000  Uiso   1.00
C1140  C     0.86767   0.31269   0.86629   0.00000  Uiso   1.00
C1141  C     0.79704   0.31085   0.80118   0.00000  Uiso   1.00
C1142  C     0.86963   0.02248   0.86549   0.00000  Uiso   1.00
C1143  C     0.83184   0.29068   0.83409   0.00000  Uiso   1.00
C1144  C     0.83482   0.04265   0.83258   0.00000  Uiso   1.00
C1145  C     0.87373   0.18551   0.69504   0.00000  Uiso   1.00
C1146  C     0.79293   0.14782   0.97163   0.00000  Uiso   1.00
C1147  C     0.87352   0.18494   0.98060   0.00000  Uiso   1.00
C1148  C     0.79314   0.14839   0.68607   0.00000  Uiso   1.00
H1149  H     0.90538   0.19975   0.96605   0.00000  Uiso   1.00
H1150  H     0.76128   0.13359   0.70062   0.00000  Uiso   1.00
N1151  N     0.99014   0.12677   0.78475   0.00000  Uiso   1.00
O1152  O     0.67106   0.12495   0.74446   0.00000  Uiso   1.00
O1153  O     0.96255   0.09576   0.79790   0.00000  Uiso   1.00
N1154  N     0.67652   0.20657   0.88191   0.00000  Uiso   1.00
O1155  O     0.99561   0.20839   0.92220   0.00000  Uiso   1.00
O1156  O     0.70412   0.23757   0.86876   0.00000  Uiso   1.00
N1157  N     0.76180   0.04218   0.76925   0.00000  Uiso   1.00
O1158  O     0.77462   0.05450   0.73054   0.00000  Uiso   1.00
O1159  O     0.71283   0.04129   0.77519   0.00000  Uiso   1.00
N1160  N     0.90488   0.29115   0.89742   0.00000  Uiso   1.00
O1161  O     0.89205   0.27883   0.93612   0.00000  Uiso   1.00
O1162  O     0.95384   0.29205   0.89147   0.00000  Uiso   1.00
C1163  C     0.75788   0.28753   0.76804   0.00000  Uiso   1.00
O1164  O     0.73017   0.25995   0.78114   0.00000  Uiso   1.00
O1165  O     0.75259   0.29740   0.72188   0.00000  Uiso   1.00
H1166  H     0.72475   0.27945   0.70283   0.00000  Uiso   1.00
C1167  C     0.90879   0.04581   0.89863   0.00000  Uiso   1.00
O1168  O     0.93649   0.07339   0.88553   0.00000  Uiso   1.00
O1169  O     0.91409   0.03592   0.94478   0.00000  Uiso   1.00
H1170  H     0.94193   0.05387   0.96383   0.00000  Uiso   1.00
N1171  N     0.91649   0.20682   0.72244   0.00000  Uiso   1.00
O1172  O     0.96377   0.20212   0.71319   0.00000  Uiso   1.00
O1173  O     0.90753   0.23913   0.74640   0.00000  Uiso   1.00
N1174  N     0.75018   0.12651   0.94423   0.00000  Uiso   1.00
O1175  O     0.70289   0.13121   0.95348   0.00000  Uiso   1.00
O1176  O     0.75913   0.09420   0.92027   0.00000  Uiso   1.00
O1177  O     0.16666   0.43892   0.87154   0.00000  Uiso   1.00
O1178  O     0.16667   0.56108   0.79513   0.00000  Uiso   1.00
O1179  O     0.16666   0.43893   0.79510   0.00000  Uiso   1.00
O1180  O     0.16667   0.56107   0.87157   0.00000  Uiso   1.00
C1181  C     0.16689   0.42015   0.83311   0.00000  Uiso   1.00
C1182  C     0.16644   0.57985   0.83355   0.00000  Uiso   1.00
O1183  O     0.09058   0.50000   0.86261   0.00000  Uiso   1.00
O1184  O     0.24275   0.50000   0.80405   0.00000  Uiso   1.00
O1185  O     0.09058   0.50000   0.78617   0.00000  Uiso   1.00
O1186  O     0.24275   0.50000   0.88050   0.00000  Uiso   1.00
C1187  C     0.06728   0.49898   0.82172   0.00000  Uiso   1.00
C1188  C     0.26605   0.50102   0.84495   0.00000  Uiso   1.00
Zn1189 Zn    0.16667   0.49999   0.88437   0.00000  Uiso   1.00
Zn1190 Zn    0.16667   0.50001   0.78229   0.00000  Uiso   1.00
N1191  N     0.16665   0.49999   0.95240   0.00000  Uiso   1.00
N1192  N     0.16668   0.50001   0.71427   0.00000  Uiso   1.00
C1193  C     0.01283   0.49177   0.81715   0.00000  Uiso   1.00
C1194  C     0.32050   0.50823   0.84952   0.00000  Uiso   1.00
C1195  C     0.13234   0.35397   0.80038   0.00000  Uiso   1.00
C1196  C     0.20100   0.64603   0.86629   0.00000  Uiso   1.00
C1197  C     0.13037   0.64418   0.80118   0.00000  Uiso   1.00
C1198  C     0.20297   0.35582   0.86549   0.00000  Uiso   1.00
C1199  C     0.16518   0.62402   0.83409   0.00000  Uiso   1.00
C1200  C     0.16816   0.37598   0.83258   0.00000  Uiso   1.00
C1201  C     0.20707   0.51884   0.69504   0.00000  Uiso   1.00
C1202  C     0.12627   0.48116   0.97163   0.00000  Uiso   1.00
C1203  C     0.20686   0.51828   0.98060   0.00000  Uiso   1.00
C1204  C     0.12648   0.48172   0.68607   0.00000  Uiso   1.00
H1205  H     0.23872   0.53308   0.96605   0.00000  Uiso   1.00
H1206  H     0.09462   0.46692   0.70062   0.00000  Uiso   1.00
N1207  N     0.32348   0.46010   0.78475   0.00000  Uiso   1.00
O1208  O     0.00439   0.45828   0.74446   0.00000  Uiso   1.00
O1209  O     0.29589   0.42909   0.79790   0.00000  Uiso   1.00
N1210  N     0.00986   0.53990   0.88191   0.00000  Uiso   1.00
O1211  O     0.32894   0.54173   0.92220   0.00000  Uiso   1.00
O1212  O     0.03745   0.57091   0.86876   0.00000  Uiso   1.00
N1213  N     0.09513   0.37551   0.76925   0.00000  Uiso   1.00
O1214  O     0.10796   0.38784   0.73054   0.00000  Uiso   1.00
O1215  O     0.04616   0.37462   0.77519   0.00000  Uiso   1.00
N1216  N     0.23821   0.62448   0.89742   0.00000  Uiso   1.00
O1217  O     0.22539   0.61216   0.93612   0.00000  Uiso   1.00
O1218  O     0.28717   0.62538   0.89147   0.00000  Uiso   1.00
C1219  C     0.09121   0.62086   0.76804   0.00000  Uiso   1.00
O1220  O     0.06350   0.59328   0.78114   0.00000  Uiso   1.00
O1221  O     0.08592   0.63073   0.72188   0.00000  Uiso   1.00
H1222  H     0.05809   0.61279   0.70283   0.00000  Uiso   1.00
C1223  C     0.24212   0.37914   0.89863   0.00000  Uiso   1.00
O1224  O     0.26982   0.40673   0.88553   0.00000  Uiso   1.00
O1225  O     0.24743   0.36926   0.94478   0.00000  Uiso   1.00
H1226  H     0.27526   0.38721   0.96383   0.00000  Uiso   1.00
N1227  N     0.24982   0.54016   0.72244   0.00000  Uiso   1.00
O1228  O     0.29711   0.53545   0.71319   0.00000  Uiso   1.00
O1229  O     0.24087   0.57247   0.74640   0.00000  Uiso   1.00
N1230  N     0.08351   0.45984   0.94423   0.00000  Uiso   1.00
O1231  O     0.03623   0.46455   0.95348   0.00000  Uiso   1.00
O1232  O     0.09246   0.42753   0.92027   0.00000  Uiso   1.00
O1233  O     0.50000   0.43892   0.87154   0.00000  Uiso   1.00
O1234  O     0.50000   0.56108   0.79513   0.00000  Uiso   1.00
O1235  O     0.50000   0.43893   0.79510   0.00000  Uiso   1.00
O1236  O     0.50000   0.56107   0.87157   0.00000  Uiso   1.00
C1237  C     0.50023   0.42015   0.83311   0.00000  Uiso   1.00
C1238  C     0.49977   0.57985   0.83355   0.00000  Uiso   1.00
O1239  O     0.42392   0.50000   0.86261   0.00000  Uiso   1.00
O1240  O     0.57608   0.50000   0.80405   0.00000  Uiso   1.00
O1241  O     0.42392   0.50000   0.78617   0.00000  Uiso   1.00
O1242  O     0.57608   0.50000   0.88050   0.00000  Uiso   1.00
C1243  C     0.40062   0.49898   0.82172   0.00000  Uiso   1.00
C1244  C     0.59938   0.50102   0.84495   0.00000  Uiso   1.00
Zn1245 Zn    0.50000   0.49999   0.88437   0.00000  Uiso   1.00
Zn1246 Zn    0.50000   0.50001   0.78229   0.00000  Uiso   1.00
N1247  N     0.49999   0.49999   0.95240   0.00000  Uiso   1.00
N1248  N     0.50001   0.50001   0.71427   0.00000  Uiso   1.00
C1249  C     0.34616   0.49177   0.81715   0.00000  Uiso   1.00
C1250  C     0.65384   0.50823   0.84952   0.00000  Uiso   1.00
C1251  C     0.46567   0.35397   0.80038   0.00000  Uiso   1.00
C1252  C     0.53433   0.64603   0.86629   0.00000  Uiso   1.00
C1253  C     0.46370   0.64418   0.80118   0.00000  Uiso   1.00
C1254  C     0.53630   0.35582   0.86549   0.00000  Uiso   1.00
C1255  C     0.49851   0.62402   0.83409   0.00000  Uiso   1.00
C1256  C     0.50149   0.37598   0.83258   0.00000  Uiso   1.00
C1257  C     0.54040   0.51884   0.69504   0.00000  Uiso   1.00
C1258  C     0.45960   0.48116   0.97163   0.00000  Uiso   1.00
C1259  C     0.54019   0.51828   0.98060   0.00000  Uiso   1.00
C1260  C     0.45981   0.48172   0.68607   0.00000  Uiso   1.00
H1261  H     0.57205   0.53308   0.96605   0.00000  Uiso   1.00
H1262  H     0.42795   0.46692   0.70062   0.00000  Uiso   1.00
N1263  N     0.65681   0.46010   0.78475   0.00000  Uiso   1.00
O1264  O     0.33772   0.45828   0.74446   0.00000  Uiso   1.00
O1265  O     0.62922   0.42909   0.79790   0.00000  Uiso   1.00
N1266  N     0.34319   0.53990   0.88191   0.00000  Uiso   1.00
O1267  O     0.66227   0.54173   0.92220   0.00000  Uiso   1.00
O1268  O     0.37078   0.57091   0.86876   0.00000  Uiso   1.00
N1269  N     0.42846   0.37551   0.76925   0.00000  Uiso   1.00
O1270  O     0.44129   0.38784   0.73054   0.00000  Uiso   1.00
O1271  O     0.37950   0.37462   0.77519   0.00000  Uiso   1.00
N1272  N     0.57154   0.62448   0.89742   0.00000  Uiso   1.00
O1273  O     0.55872   0.61216   0.93612   0.00000  Uiso   1.00
O1274  O     0.62051   0.62538   0.89147   0.00000  Uiso   1.00
C1275  C     0.42454   0.62086   0.76804   0.00000  Uiso   1.00
O1276  O     0.39684   0.59328   0.78114   0.00000  Uiso   1.00
O1277  O     0.41926   0.63073   0.72188   0.00000  Uiso   1.00
H1278  H     0.39142   0.61279   0.70283   0.00000  Uiso   1.00
C1279  C     0.57546   0.37914   0.89863   0.00000  Uiso   1.00
O1280  O     0.60316   0.40673   0.88553   0.00000  Uiso   1.00
O1281  O     0.58076   0.36926   0.94478   0.00000  Uiso   1.00
H1282  H     0.60860   0.38721   0.96383   0.00000  Uiso   1.00
N1283  N     0.58316   0.54016   0.72244   0.00000  Uiso   1.00
O1284  O     0.63044   0.53545   0.71319   0.00000  Uiso   1.00
O1285  O     0.57420   0.57247   0.74640   0.00000  Uiso   1.00
N1286  N     0.41684   0.45984   0.94423   0.00000  Uiso   1.00
O1287  O     0.36956   0.46455   0.95348   0.00000  Uiso   1.00
O1288  O     0.42580   0.42753   0.92027   0.00000  Uiso   1.00
O1289  O     0.83333   0.43892   0.87154   0.00000  Uiso   1.00
O1290  O     0.83334   0.56108   0.79513   0.00000  Uiso   1.00
O1291  O     0.83333   0.43893   0.79510   0.00000  Uiso   1.00
O1292  O     0.83334   0.56107   0.87157   0.00000  Uiso   1.00
C1293  C     0.83356   0.42015   0.83311   0.00000  Uiso   1.00
C1294  C     0.83311   0.57985   0.83355   0.00000  Uiso   1.00
O1295  O     0.75725   0.50000   0.86261   0.00000  Uiso   1.00
O1296  O     0.90942   0.50000   0.80405   0.00000  Uiso   1.00
O1297  O     0.75725   0.50000   0.78617   0.00000  Uiso   1.00
O1298  O     0.90942   0.50000   0.88050   0.00000  Uiso   1.00
C1299  C     0.73395   0.49898   0.82172   0.00000  Uiso   1.00
C1300  C     0.93271   0.50102   0.84495   0.00000  Uiso   1.00
Zn1301 Zn    0.83333   0.49999   0.88437   0.00000  Uiso   1.00
Zn1302 Zn    0.83333   0.50001   0.78229   0.00000  Uiso   1.00
N1303  N     0.83332   0.49999   0.95240   0.00000  Uiso   1.00
N1304  N     0.83335   0.50001   0.71427   0.00000  Uiso   1.00
C1305  C     0.67950   0.49177   0.81715   0.00000  Uiso   1.00
C1306  C     0.98717   0.50823   0.84952   0.00000  Uiso   1.00
C1307  C     0.79900   0.35397   0.80038   0.00000  Uiso   1.00
C1308  C     0.86767   0.64603   0.86629   0.00000  Uiso   1.00
C1309  C     0.79704   0.64418   0.80118   0.00000  Uiso   1.00
C1310  C     0.86963   0.35582   0.86549   0.00000  Uiso   1.00
C1311  C     0.83184   0.62402   0.83409   0.00000  Uiso   1.00
C1312  C     0.83482   0.37598   0.83258   0.00000  Uiso   1.00
C1313  C     0.87373   0.51884   0.69504   0.00000  Uiso   1.00
C1314  C     0.79293   0.48116   0.97163   0.00000  Uiso   1.00
C1315  C     0.87352   0.51828   0.98060   0.00000  Uiso   1.00
C1316  C     0.79314   0.48172   0.68607   0.00000  Uiso   1.00
H1317  H     0.90538   0.53308   0.96605   0.00000  Uiso   1.00
H1318  H     0.76128   0.46692   0.70062   0.00000  Uiso   1.00
N1319  N     0.99014   0.46010   0.78475   0.00000  Uiso   1.00
O1320  O     0.67106   0.45828   0.74446   0.00000  Uiso   1.00
O1321  O     0.96255   0.42909   0.79790   0.00000  Uiso   1.00
N1322  N     0.67652   0.53990   0.88191   0.00000  Uiso   1.00
O1323  O     0.99561   0.54173   0.92220   0.00000  Uiso   1.00
O1324  O     0.70412   0.57091   0.86876   0.00000  Uiso   1.00
N1325  N     0.76180   0.37551   0.76925   0.00000  Uiso   1.00
O1326  O     0.77462   0.38784   0.73054   0.00000  Uiso   1.00
O1327  O     0.71283   0.37462   0.77519   0.00000  Uiso   1.00
N1328  N     0.90488   0.62448   0.89742   0.00000  Uiso   1.00
O1329  O     0.89205   0.61216   0.93612   0.00000  Uiso   1.00
O1330  O     0.95384   0.62538   0.89147   0.00000  Uiso   1.00
C1331  C     0.75788   0.62086   0.76804   0.00000  Uiso   1.00
O1332  O     0.73017   0.59328   0.78114   0.00000  Uiso   1.00
O1333  O     0.75259   0.63073   0.72188   0.00000  Uiso   1.00
H1334  H     0.72475   0.61279   0.70283   0.00000  Uiso   1.00
C1335  C     0.90879   0.37914   0.89863   0.00000  Uiso   1.00
O1336  O     0.93649   0.40673   0.88553   0.00000  Uiso   1.00
O1337  O     0.91409   0.36926   0.94478   0.00000  Uiso   1.00
H1338  H     0.94193   0.38721   0.96383   0.00000  Uiso   1.00
N1339  N     0.91649   0.54016   0.72244   0.00000  Uiso   1.00
O1340  O     0.96377   0.53545   0.71319   0.00000  Uiso   1.00
O1341  O     0.90753   0.57247   0.74640   0.00000  Uiso   1.00
N1342  N     0.75018   0.45984   0.94423   0.00000  Uiso   1.00
O1343  O     0.70289   0.46455   0.95348   0.00000  Uiso   1.00
O1344  O     0.75913   0.42753   0.92027   0.00000  Uiso   1.00
O1345  O     0.16666   0.77225   0.87154   0.00000  Uiso   1.00
O1346  O     0.16667   0.89442   0.79513   0.00000  Uiso   1.00
O1347  O     0.16666   0.77226   0.79510   0.00000  Uiso   1.00
O1348  O     0.16667   0.89441   0.87157   0.00000  Uiso   1.00
C1349  C     0.16689   0.75349   0.83311   0.00000  Uiso   1.00
C1350  C     0.16644   0.91318   0.83355   0.00000  Uiso   1.00
O1351  O     0.09058   0.83333   0.86261   0.00000  Uiso   1.00
O1352  O     0.24275   0.83334   0.80405   0.00000  Uiso   1.00
O1353  O     0.09058   0.83334   0.78617   0.00000  Uiso   1.00
O1354  O     0.24275   0.83333   0.88050   0.00000  Uiso   1.00
C1355  C     0.06728   0.83231   0.82172   0.00000  Uiso   1.00
C1356  C     0.26605   0.83435   0.84495   0.00000  Uiso   1.00
Zn1357 Zn    0.16667   0.83333   0.88437   0.00000  Uiso   1.00
Zn1358 Zn    0.16667   0.83334   0.78229   0.00000  Uiso   1.00
N1359  N     0.16665   0.83332   0.95240   0.00000  Uiso   1.00
N1360  N     0.16668   0.83334   0.71427   0.00000  Uiso   1.00
C1361  C     0.01283   0.82511   0.81715   0.00000  Uiso   1.00
C1362  C     0.32050   0.84156   0.84952   0.00000  Uiso   1.00
C1363  C     0.13234   0.68731   0.80038   0.00000  Uiso   1.00
C1364  C     0.20100   0.97936   0.86629   0.00000  Uiso   1.00
C1365  C     0.13037   0.97752   0.80118   0.00000  Uiso   1.00
C1366  C     0.20297   0.68915   0.86549   0.00000  Uiso   1.00
C1367  C     0.16518   0.95735   0.83409   0.00000  Uiso   1.00
C1368  C     0.16816   0.70932   0.83258   0.00000  Uiso   1.00
C1369  C     0.20707   0.85218   0.69504   0.00000  Uiso   1.00
C1370  C     0.12627   0.81449   0.97163   0.00000  Uiso   1.00
C1371  C     0.20686   0.85161   0.98060   0.00000  Uiso   1.00
C1372  C     0.12648   0.81506   0.68607   0.00000  Uiso   1.00
H1373  H     0.23872   0.86641   0.96605   0.00000  Uiso   1.00
H1374  H     0.09462   0.80025   0.70062   0.00000  Uiso   1.00
N1375  N     0.32348   0.79343   0.78475   0.00000  Uiso   1.00
O1376  O     0.00439   0.79161   0.74446   0.00000  Uiso   1.00
O1377  O     0.29589   0.76242   0.79790   0.00000  Uiso   1.00
N1378  N     0.00986   0.87323   0.88191   0.00000  Uiso   1.00
O1379  O     0.32894   0.87506   0.92220   0.00000  Uiso   1.00
O1380  O     0.03745   0.90424   0.86876   0.00000  Uiso   1.00
N1381  N     0.09513   0.70885   0.76925   0.00000  Uiso   1.00
O1382  O     0.10796   0.72117   0.73054   0.00000  Uiso   1.00
O1383  O     0.04616   0.70795   0.77519   0.00000  Uiso   1.00
N1384  N     0.23821   0.95782   0.89742   0.00000  Uiso   1.00
O1385  O     0.22539   0.94549   0.93612   0.00000  Uiso   1.00
O1386  O     0.28717   0.95871   0.89147   0.00000  Uiso   1.00
C1387  C     0.09121   0.95419   0.76804   0.00000  Uiso   1.00
O1388  O     0.06350   0.92661   0.78114   0.00000  Uiso   1.00
O1389  O     0.08592   0.96407   0.72188   0.00000  Uiso   1.00
H1390  H     0.05809   0.94612   0.70283   0.00000  Uiso   1.00
C1391  C     0.24212   0.71247   0.89863   0.00000  Uiso   1.00
O1392  O     0.26982   0.74006   0.88553   0.00000  Uiso   1.00
O1393  O     0.24743   0.70259   0.94478   0.00000  Uiso   1.00
H1394  H     0.27526   0.72054   0.96383   0.00000  Uiso   1.00
N1395  N     0.24982   0.87349   0.72244   0.00000  Uiso   1.00
O1396  O     0.29711   0.86879   0.71319   0.00000  Uiso   1.00
O1397  O     0.24087   0.90580   0.74640   0.00000  Uiso   1.00
N1398  N     0.08351   0.79318   0.94423   0.00000  Uiso   1.00
O1399  O     0.03623   0.79788   0.95348   0.00000  Uiso   1.00
O1400  O     0.09246   0.76087   0.92027   0.00000  Uiso   1.00
O1401  O     0.50000   0.77225   0.87154   0.00000  Uiso   1.00
O1402  O     0.50000   0.89442   0.79513   0.00000  Uiso   1.00
O1403  O     0.50000   0.77226   0.79510   0.00000  Uiso   1.00
O1404  O     0.50000   0.89441   0.87157   0.00000  Uiso   1.00
C1405  C     0.50023   0.75349   0.83311   0.00000  Uiso   1.00
C1406  C     0.49977   0.91318   0.83355   0.00000  Uiso   1.00
O1407  O     0.42392   0.83333   0.86261   0.00000  Uiso   1.00
O1408  O     0.57608   0.83334   0.80405   0.00000  Uiso   1.00
O1409  O     0.42392   0.83334   0.78617   0.00000  Uiso   1.00
O1410  O     0.57608   0.83333   0.88050   0.00000  Uiso   1.00
C1411  C     0.40062   0.83231   0.82172   0.00000  Uiso   1.00
C1412  C     0.59938   0.83435   0.84495   0.00000  Uiso   1.00
Zn1413 Zn    0.50000   0.83333   0.88437   0.00000  Uiso   1.00
Zn1414 Zn    0.50000   0.83334   0.78229   0.00000  Uiso   1.00
N1415  N     0.49999   0.83332   0.95240   0.00000  Uiso   1.00
N1416  N     0.50001   0.83334   0.71427   0.00000  Uiso   1.00
C1417  C     0.34616   0.82511   0.81715   0.00000  Uiso   1.00
C1418  C     0.65384   0.84156   0.84952   0.00000  Uiso   1.00
C1419  C     0.46567   0.68731   0.80038   0.00000  Uiso   1.00
C1420  C     0.53433   0.97936   0.86629   0.00000  Uiso   1.00
C1421  C     0.46370   0.97752   0.80118   0.00000  Uiso   1.00
C1422  C     0.53630   0.68915   0.86549   0.00000  Uiso   1.00
C1423  C     0.49851   0.95735   0.83409   0.00000  Uiso   1.00
C1424  C     0.50149   0.70932   0.83258   0.00000  Uiso   1.00
C1425  C     0.54040   0.85218   0.69504   0.00000  Uiso   1.00
C1426  C     0.45960   0.81449   0.97163   0.00000  Uiso   1.00
C1427  C     0.54019   0.85161   0.98060   0.00000  Uiso   1.00
C1428  C     0.45981   0.81506   0.68607   0.00000  Uiso   1.00
H1429  H     0.57205   0.86641   0.96605   0.00000  Uiso   1.00
H1430  H     0.42795   0.80025   0.70062   0.00000  Uiso   1.00
N1431  N     0.65681   0.79343   0.78475   0.00000  Uiso   1.00
O1432  O     0.33772   0.79161   0.74446   0.00000  Uiso   1.00
O1433  O     0.62922   0.76242   0.79790   0.00000  Uiso   1.00
N1434  N     0.34319   0.87323   0.88191   0.00000  Uiso   1.00
O1435  O     0.66227   0.87506   0.92220   0.00000  Uiso   1.00
O1436  O     0.37078   0.90424   0.86876   0.00000  Uiso   1.00
N1437  N     0.42846   0.70885   0.76925   0.00000  Uiso   1.00
O1438  O     0.44129   0.72117   0.73054   0.00000  Uiso   1.00
O1439  O     0.37950   0.70795   0.77519   0.00000  Uiso   1.00
N1440  N     0.57154   0.95782   0.89742   0.00000  Uiso   1.00
O1441  O     0.55872   0.94549   0.93612   0.00000  Uiso   1.00
O1442  O     0.62051   0.95871   0.89147   0.00000  Uiso   1.00
C1443  C     0.42454   0.95419   0.76804   0.00000  Uiso   1.00
O1444  O     0.39684   0.92661   0.78114   0.00000  Uiso   1.00
O1445  O     0.41926   0.96407   0.72188   0.00000  Uiso   1.00
H1446  H     0.39142   0.94612   0.70283   0.00000  Uiso   1.00
C1447  C     0.57546   0.71247   0.89863   0.00000  Uiso   1.00
O1448  O     0.60316   0.74006   0.88553   0.00000  Uiso   1.00
O1449  O     0.58076   0.70259   0.94478   0.00000  Uiso   1.00
H1450  H     0.60860   0.72054   0.96383   0.00000  Uiso   1.00
N1451  N     0.58316   0.87349   0.72244   0.00000  Uiso   1.00
O1452  O     0.63044   0.86879   0.71319   0.00000  Uiso   1.00
O1453  O     0.57420   0.90580   0.74640   0.00000  Uiso   1.00
N1454  N     0.41684   0.79318   0.94423   0.00000  Uiso   1.00
O1455  O     0.36956   0.79788   0.95348   0.00000  Uiso   1.00
O1456  O     0.42580   0.76087   0.92027   0.00000  Uiso   1.00
O1457  O     0.83333   0.77225   0.87154   0.00000  Uiso   1.00
O1458  O     0.83334   0.89442   0.79513   0.00000  Uiso   1.00
O1459  O     0.83333   0.77226   0.79510   0.00000  Uiso   1.00
O1460  O     0.83334   0.89441   0.87157   0.00000  Uiso   1.00
C1461  C     0.83356   0.75349   0.83311   0.00000  Uiso   1.00
C1462  C     0.83311   0.91318   0.83355   0.00000  Uiso   1.00
O1463  O     0.75725   0.83333   0.86261   0.00000  Uiso   1.00
O1464  O     0.90942   0.83334   0.80405   0.00000  Uiso   1.00
O1465  O     0.75725   0.83334   0.78617   0.00000  Uiso   1.00
O1466  O     0.90942   0.83333   0.88050   0.00000  Uiso   1.00
C1467  C     0.73395   0.83231   0.82172   0.00000  Uiso   1.00
C1468  C     0.93271   0.83435   0.84495   0.00000  Uiso   1.00
Zn1469 Zn    0.83333   0.83333   0.88437   0.00000  Uiso   1.00
Zn1470 Zn    0.83333   0.83334   0.78229   0.00000  Uiso   1.00
N1471  N     0.83332   0.83332   0.95240   0.00000  Uiso   1.00
N1472  N     0.83335   0.83334   0.71427   0.00000  Uiso   1.00
C1473  C     0.67950   0.82511   0.81715   0.00000  Uiso   1.00
C1474  C     0.98717   0.84156   0.84952   0.00000  Uiso   1.00
C1475  C     0.79900   0.68731   0.80038   0.00000  Uiso   1.00
C1476  C     0.86767   0.97936   0.86629   0.00000  Uiso   1.00
C1477  C     0.79704   0.97752   0.80118   0.00000  Uiso   1.00
C1478  C     0.86963   0.68915   0.86549   0.00000  Uiso   1.00
C1479  C     0.83184   0.95735   0.83409   0.00000  Uiso   1.00
C1480  C     0.83482   0.70932   0.83258   0.00000  Uiso   1.00
C1481  C     0.87373   0.85218   0.69504   0.00000  Uiso   1.00
C1482  C     0.79293   0.81449   0.97163   0.00000  Uiso   1.00
C1483  C     0.87352   0.85161   0.98060   0.00000  Uiso   1.00
C1484  C     0.79314   0.81506   0.68607   0.00000  Uiso   1.00
H1485  H     0.90538   0.86641   0.96605   0.00000  Uiso   1.00
H1486  H     0.76128   0.80025   0.70062   0.00000  Uiso   1.00
N1487  N     0.99014   0.79343   0.78475   0.00000  Uiso   1.00
O1488  O     0.67106   0.79161   0.74446   0.00000  Uiso   1.00
O1489  O     0.96255   0.76242   0.79790   0.00000  Uiso   1.00
N1490  N     0.67652   0.87323   0.88191   0.00000  Uiso   1.00
O1491  O     0.99561   0.87506   0.92220   0.00000  Uiso   1.00
O1492  O     0.70412   0.90424   0.86876   0.00000  Uiso   1.00
N1493  N     0.76180   0.70885   0.76925   0.00000  Uiso   1.00
O1494  O     0.77462   0.72117   0.73054   0.00000  Uiso   1.00
O1495  O     0.71283   0.70795   0.77519   0.00000  Uiso   1.00
N1496  N     0.90488   0.95782   0.89742   0.00000  Uiso   1.00
O1497  O     0.89205   0.94549   0.93612   0.00000  Uiso   1.00
O1498  O     0.95384   0.95871   0.89147   0.00000  Uiso   1.00
C1499  C     0.75788   0.95419   0.76804   0.00000  Uiso   1.00
O1500  O     0.73017   0.92661   0.78114   0.00000  Uiso   1.00
O1501  O     0.75259   0.96407   0.72188   0.00000  Uiso   1.00
H1502  H     0.72475   0.94612   0.70283   0.00000  Uiso   1.00
C1503  C     0.90879   0.71247   0.89863   0.00000  Uiso   1.00
O1504  O     0.93649   0.74006   0.88553   0.00000  Uiso   1.00
O1505  O     0.91409   0.70259   0.94478   0.00000  Uiso   1.00
H1506  H     0.94193   0.72054   0.96383   0.00000  Uiso   1.00
N1507  N     0.91649   0.87349   0.72244   0.00000  Uiso   1.00
O1508  O     0.96377   0.86879   0.71319   0.00000  Uiso   1.00
O1509  O     0.90753   0.90580   0.74640   0.00000  Uiso   1.00
N1510  N     0.75018   0.79318   0.94423   0.00000  Uiso   1.00
O1511  O     0.70289   0.79788   0.95348   0.00000  Uiso   1.00
O1512  O     0.75913   0.76087   0.92027   0.00000  Uiso   1.00
loop_
_geom_bond_atom_site_label_1
_geom_bond_atom_site_label_2
_geom_bond_distance
_geom_bond_site_symmetry_2
_ccdc_geom_bond_type
O1     C5      1.288   .     A
O1     Zn13    1.996   .     S
O2     C6      1.288   .     A
O2     Zn14    1.996   .     S
O3     Zn14    2.001   .     S
O3     C5      1.283   .     A
O4     C6      1.283   .     A
O4     Zn13    2.001   .     S
C5     C24     1.420   .     S
C6     C23     1.420   .     S
O7     C11     1.279   .     A
O7     Zn13    1.982   .     S
O8     C12     1.279   .     A
O8     Zn14    1.982   .     S
O9     Zn14    1.984   .     S
O9     C11     1.286   .     A
O10    C12     1.286   .     A
O10    Zn13    1.984   .     S
C11    C17     1.407   .     S
C12    C18     1.407   .     S
Zn13   N15     2.020   .     S
Zn14   N16     2.020   .     S
N15    C27     1.357   .     A
N15    C26     1.383   .     A
N16    C28     1.357   .     A
N16    C25     1.383   .     A
C17    C130    1.353   1_455 S
C17    N143    1.449   1_455 S
C18    C73     1.353   .     S
C18    N90     1.449   .     S
C19    C24     1.406   .     A
C19    N37     1.435   .     S
C19    C357    1.385   1_545 S
C20    C23     1.406   .     A
C20    N40     1.435   .     S
C20    C190    1.385   .     S
C21    C43     1.491   .     S
C21    C23     1.408   .     A
C21    C187    1.385   .     S
C22    C24     1.408   .     A
C22    C47     1.491   .     S
C22    C356    1.385   1_545 S
C25    N51     1.432   .     S
C25    C1035   1.418   1_554 S
C26    N54     1.432   .     S
C26    C532    1.418   .     S
C27    H29     1.081   .     S
C27    C529    1.418   .     S
C28    H30     1.081   .     S
C28    C1034   1.418   1_554 S
N31    O33     1.302   .     A
N31    C73     1.449   .     S
N31    O88     1.301   .     S
O32    N143    1.301   1_455 S
N34    O36     1.302   .     A
N34    C130    1.449   1_455 S
N34    O147    1.301   1_455 S
O35    N90     1.301   .     S
N37    O38     1.301   .     A
N37    O39     1.300   .     A
N40    O42     1.300   .     A
N40    O41     1.301   .     A
C43    O44     1.222   .     D
C43    O45     1.399   .     S
O45    H46     1.014   .     S
C47    O49     1.398   .     S
C47    O48     1.222   .     D
O49    H50     1.014   .     S
N51    O52     1.301   .     A
N51    O53     1.298   .     A
N54    O56     1.298   .     A
N54    O55     1.301   .     A
O57    C61     1.288   .     A
O57    Zn69    1.996   .     S
O58    C62     1.288   .     A
O58    Zn70    1.996   .     S
O59    Zn70    2.001   .     S
O59    C61     1.283   .     A
O60    C62     1.283   .     A
O60    Zn69    2.001   .     S
C61    C80     1.420   .     S
C62    C79     1.420   .     S
O63    C67     1.279   .     A
O63    Zn69    1.982   .     S
O64    C68     1.279   .     A
O64    Zn70    1.982   .     S
O65    Zn70    1.984   .     S
O65    C67     1.286   .     A
O66    C68     1.286   .     A
O66    Zn69    1.984   .     S
C67    C73     1.407   .     S
C68    C74     1.407   .     S
Zn69   N71     2.020   .     S
Zn70   N72     2.020   .     S
N71    C83     1.357   .     A
N71    C82     1.383   .     A
N72    C84     1.357   .     A
N72    C81     1.383   .     A
C74    C129    1.353   .     S
C74    N146    1.449   .     S
C75    C80     1.406   .     A
C75    N93     1.435   .     S
C75    C413    1.385   1_545 S
C76    C79     1.406   .     A
C76    N96     1.435   .     S
C76    C246    1.385   .     S
C77    C99     1.491   .     S
C77    C79     1.408   .     A
C77    C243    1.385   .     S
C78    C80     1.408   .     A
C78    C103    1.491   .     S
C78    C412    1.385   1_545 S
C81    N107    1.432   .     S
C81    C1091   1.418   1_554 S
C82    N110    1.432   .     S
C82    C588    1.418   .     S
C83    H85     1.081   .     S
C83    C585    1.418   .     S
C84    H86     1.081   .     S
C84    C1090   1.418   1_554 S
N87    O89     1.302   .     A
N87    C129    1.449   .     S
N87    O144    1.301   .     S
N90    O92     1.302   .     A
O91    N146    1.301   .     S
N93    O94     1.301   .     A
N93    O95     1.300   .     A
N96    O98     1.300   .     A
N96    O97     1.301   .     A
C99    O100    1.222   .     D
C99    O101    1.399   .     S
O101   H102    1.014   .     S
C103   O105    1.398   .     S
C103   O104    1.222   .     D
O105   H106    1.014   .     S
N107   O108    1.301   .     A
N107   O109    1.298   .     A
N110   O112    1.298   .     A
N110   O111    1.301   .     A
O113   C117    1.288   .     A
O113   Zn125   1.996   .     S
O114   C118    1.288   .     A
O114   Zn126   1.996   .     S
O115   Zn126   2.001   .     S
O115   C117    1.283   .     A
O116   C118    1.283   .     A
O116   Zn125   2.001   .     S
C117   C136    1.420   .     S
C118   C135    1.420   .     S
O119   C123    1.279   .     A
O119   Zn125   1.982   .     S
O120   C124    1.279   .     A
O120   Zn126   1.982   .     S
O121   Zn126   1.984   .     S
O121   C123    1.286   .     A
O122   C124    1.286   .     A
O122   Zn125   1.984   .     S
C123   C129    1.407   .     S
C124   C130    1.407   .     S
Zn125  N127    2.020   .     S
Zn126  N128    2.020   .     S
N127   C139    1.357   .     A
N127   C138    1.383   .     A
N128   C140    1.357   .     A
N128   C137    1.383   .     A
C130   C17     1.353   1_655 S
C130   N34     1.449   1_655 S
C131   C136    1.406   .     A
C131   N149    1.435   .     S
C131   C469    1.385   1_545 S
C132   C135    1.406   .     A
C132   N152    1.435   .     S
C132   C302    1.385   .     S
C133   C155    1.491   .     S
C133   C135    1.408   .     A
C133   C299    1.385   .     S
C134   C136    1.408   .     A
C134   C159    1.491   .     S
C134   C468    1.385   1_545 S
C137   N163    1.432   .     S
C137   C1147   1.418   1_554 S
C138   N166    1.432   .     S
C138   C644    1.418   .     S
C139   H141    1.081   .     S
C139   C641    1.418   .     S
C140   H142    1.081   .     S
C140   C1146   1.418   1_554 S
N143   O145    1.302   .     A
N143   C17     1.449   1_655 S
N143   O32     1.301   1_655 S
N146   O148    1.302   .     A
O147   N34     1.301   1_655 S
N149   O150    1.301   .     A
N149   O151    1.300   .     A
N152   O154    1.300   .     A
N152   O153    1.301   .     A
C155   O156    1.222   .     D
C155   O157    1.399   .     S
O157   H158    1.014   .     S
C159   O161    1.398   .     S
C159   O160    1.222   .     D
O161   H162    1.014   .     S
N163   O164    1.301   .     A
N163   O165    1.298   .     A
N166   O168    1.298   .     A
N166   O167    1.301   .     A
O169   C173    1.288   .     A
O169   Zn181   1.996   .     S
O170   C174    1.288   .     A
O170   Zn182   1.996   .     S
O171   Zn182   2.001   .     S
O171   C173    1.283   .     A
O172   C174    1.283   .     A
O172   Zn181   2.001   .     S
C173   C192    1.420   .     S
C174   C191    1.420   .     S
O175   C179    1.279   .     A
O175   Zn181   1.982   .     S
O176   C180    1.279   .     A
O176   Zn182   1.982   .     S
O177   Zn182   1.984   .     S
O177   C179    1.286   .     A
O178   C180    1.286   .     A
O178   Zn181   1.984   .     S
C179   C185    1.407   .     S
C180   C186    1.407   .     S
Zn181  N183    2.020   .     S
Zn182  N184    2.020   .     S
N183   C195    1.357   .     A
N183   C194    1.383   .     A
N184   C196    1.357   .     A
N184   C193    1.383   .     A
C185   C298    1.353   1_455 S
C185   N311    1.449   1_455 S
C186   C241    1.353   .     S
C186   N258    1.449   .     S
C187   C192    1.406   .     A
C187   N205    1.435   .     S
C188   C191    1.406   .     A
C188   N208    1.435   .     S
C188   C358    1.385   .     S
C189   C211    1.491   .     S
C189   C191    1.408   .     A
C189   C355    1.385   .     S
C190   C192    1.408   .     A
C190   C215    1.491   .     S
C193   N219    1.432   .     S
C193   C1203   1.418   1_554 S
C194   N222    1.432   .     S
C194   C700    1.418   .     S
C195   H197    1.081   .     S
C195   C697    1.418   .     S
C196   H198    1.081   .     S
C196   C1202   1.418   1_554 S
N199   O201    1.302   .     A
N199   C241    1.449   .     S
N199   O256    1.301   .     S
O200   N311    1.301   1_455 S
N202   O204    1.302   .     A
N202   C298    1.449   1_455 S
N202   O315    1.301   1_455 S
O203   N258    1.301   .     S
N205   O206    1.301   .     A
N205   O207    1.300   .     A
N208   O210    1.300   .     A
N208   O209    1.301   .     A
C211   O212    1.222   .     D
C211   O213    1.399   .     S
O213   H214    1.014   .     S
C215   O217    1.398   .     S
C215   O216    1.222   .     D
O217   H218    1.014   .     S
N219   O220    1.301   .     A
N219   O221    1.298   .     A
N222   O224    1.298   .     A
N222   O223    1.301   .     A
O225   C229    1.288   .     A
O225   Zn237   1.996   .     S
O226   C230    1.288   .     A
O226   Zn238   1.996   .     S
O227   Zn238   2.001   .     S
O227   C229    1.283   .     A
O228   C230    1.283   .     A
O228   Zn237   2.001   .     S
C229   C248    1.420   .     S
C230   C247    1.420   .     S
O231   C235    1.279   .     A
O231   Zn237   1.982   .     S
O232   C236    1.279   .     A
O232   Zn238   1.982   .     S
O233   Zn238   1.984   .     S
O233   C235    1.286   .     A
O234   C236    1.286   .     A
O234   Zn237   1.984   .     S
C235   C241    1.407   .     S
C236   C242    1.407   .     S
Zn237  N239    2.020   .     S
Zn238  N240    2.020   .     S
N239   C251    1.357   .     A
N239   C250    1.383   .     A
N240   C252    1.357   .     A
N240   C249    1.383   .     A
C242   C297    1.353   .     S
C242   N314    1.449   .     S
C243   C248    1.406   .     A
C243   N261    1.435   .     S
C244   C247    1.406   .     A
C244   N264    1.435   .     S
C244   C414    1.385   .     S
C245   C267    1.491   .     S
C245   C247    1.408   .     A
C245   C411    1.385   .     S
C246   C248    1.408   .     A
C246   C271    1.491   .     S
C249   N275    1.432   .     S
C249   C1259   1.418   1_554 S
C250   N278    1.432   .     S
C250   C756    1.418   .     S
C251   H253    1.081   .     S
C251   C753    1.418   .     S
C252   H254    1.081   .     S
C252   C1258   1.418   1_554 S
N255   O257    1.302   .     A
N255   C297    1.449   .     S
N255   O312    1.301   .     S
N258   O260    1.302   .     A
O259   N314    1.301   .     S
N261   O262    1.301   .     A
N261   O263    1.300   .     A
N264   O266    1.300   .     A
N264   O265    1.301   .     A
C267   O268    1.222   .     D
C267   O269    1.399   .     S
O269   H270    1.014   .     S
C271   O273    1.398   .     S
C271   O272    1.222   .     D
O273   H274    1.014   .     S
N275   O276    1.301   .     A
N275   O277    1.298   .     A
N278   O280    1.298   .     A
N278   O279    1.301   .     A
O281   C285    1.288   .     A
O281   Zn293   1.996   .     S
O282   C286    1.288   .     A
O282   Zn294   1.996   .     S
O283   Zn294   2.001   .     S
O283   C285    1.283   .     A
O284   C286    1.283   .     A
O284   Zn293   2.001   .     S
C285   C304    1.420   .     S
C286   C303    1.420   .     S
O287   C291    1.279   .     A
O287   Zn293   1.982   .     S
O288   C292    1.279   .     A
O288   Zn294   1.982   .     S
O289   Zn294   1.984   .     S
O289   C291    1.286   .     A
O290   C292    1.286   .     A
O290   Zn293   1.984   .     S
C291   C297    1.407   .     S
C292   C298    1.407   .     S
Zn293  N295    2.020   .     S
Zn294  N296    2.020   .     S
N295   C307    1.357   .     A
N295   C306    1.383   .     A
N296   C308    1.357   .     A
N296   C305    1.383   .     A
C298   C185    1.353   1_655 S
C298   N202    1.449   1_655 S
C299   C304    1.406   .     A
C299   N317    1.435   .     S
C300   C303    1.406   .     A
C300   N320    1.435   .     S
C300   C470    1.385   .     S
C301   C323    1.491   .     S
C301   C303    1.408   .     A
C301   C467    1.385   .     S
C302   C304    1.408   .     A
C302   C327    1.491   .     S
C305   N331    1.432   .     S
C305   C1315   1.418   1_554 S
C306   N334    1.432   .     S
C306   C812    1.418   .     S
C307   H309    1.081   .     S
C307   C809    1.418   .     S
C308   H310    1.081   .     S
C308   C1314   1.418   1_554 S
N311   O313    1.302   .     A
N311   C185    1.449   1_655 S
N311   O200    1.301   1_655 S
N314   O316    1.302   .     A
O315   N202    1.301   1_655 S
N317   O318    1.301   .     A
N317   O319    1.300   .     A
N320   O322    1.300   .     A
N320   O321    1.301   .     A
C323   O324    1.222   .     D
C323   O325    1.399   .     S
O325   H326    1.014   .     S
C327   O329    1.398   .     S
C327   O328    1.222   .     D
O329   H330    1.014   .     S
N331   O332    1.301   .     A
N331   O333    1.298   .     A
N334   O336    1.298   .     A
N334   O335    1.301   .     A
O337   C341    1.288   .     A
O337   Zn349   1.996   .     S
O338   C342    1.288   .     A
O338   Zn350   1.996   .     S
O339   Zn350   2.001   .     S
O339   C341    1.283   .     A
O340   C342    1.283   .     A
O340   Zn349   2.001   .     S
C341   C360    1.420   .     S
C342   C359    1.420   .     S
O343   C347    1.279   .     A
O343   Zn349   1.982   .     S
O344   C348    1.279   .     A
O344   Zn350   1.982   .     S
O345   Zn350   1.984   .     S
O345   C347    1.286   .     A
O346   C348    1.286   .     A
O346   Zn349   1.984   .     S
C347   C353    1.407   .     S
C348   C354    1.407   .     S
Zn349  N351    2.020   .     S
Zn350  N352    2.020   .     S
N351   C363    1.357   .     A
N351   C362    1.383   .     A
N352   C364    1.357   .     A
N352   C361    1.383   .     A
C353   C466    1.353   1_455 S
C353   N479    1.449   1_455 S
C354   C409    1.353   .     S
C354   N426    1.449   .     S
C355   C360    1.406   .     A
C355   N373    1.435   .     S
C356   C359    1.406   .     A
C356   N376    1.435   .     S
C356   C22     1.385   1_565 S
C357   C379    1.491   .     S
C357   C359    1.408   .     A
C357   C19     1.385   1_565 S
C358   C360    1.408   .     A
C358   C383    1.491   .     S
C361   N387    1.432   .     S
C361   C1371   1.418   1_554 S
C362   N390    1.432   .     S
C362   C868    1.418   .     S
C363   H365    1.081   .     S
C363   C865    1.418   .     S
C364   H366    1.081   .     S
C364   C1370   1.418   1_554 S
N367   O369    1.302   .     A
N367   C409    1.449   .     S
N367   O424    1.301   .     S
O368   N479    1.301   1_455 S
N370   O372    1.302   .     A
N370   C466    1.449   1_455 S
N370   O483    1.301   1_455 S
O371   N426    1.301   .     S
N373   O374    1.301   .     A
N373   O375    1.300   .     A
N376   O378    1.300   .     A
N376   O377    1.301   .     A
C379   O380    1.222   .     D
C379   O381    1.399   .     S
O381   H382    1.014   .     S
C383   O385    1.398   .     S
C383   O384    1.222   .     D
O385   H386    1.014   .     S
N387   O388    1.301   .     A
N387   O389    1.298   .     A
N390   O392    1.298   .     A
N390   O391    1.301   .     A
O393   C397    1.288   .     A
O393   Zn405   1.996   .     S
O394   C398    1.288   .     A
O394   Zn406   1.996   .     S
O395   Zn406   2.001   .     S
O395   C397    1.283   .     A
O396   C398    1.283   .     A
O396   Zn405   2.001   .     S
C397   C416    1.420   .     S
C398   C415    1.420   .     S
O399   C403    1.279   .     A
O399   Zn405   1.982   .     S
O400   C404    1.279   .     A
O400   Zn406   1.982   .     S
O401   Zn406   1.984   .     S
O401   C403    1.286   .     A
O402   C404    1.286   .     A
O402   Zn405   1.984   .     S
C403   C409    1.407   .     S
C404   C410    1.407   .     S
Zn405  N407    2.020   .     S
Zn406  N408    2.020   .     S
N407   C419    1.357   .     A
N407   C418    1.383   .     A
N408   C420    1.357   .     A
N408   C417    1.383   .     A
C410   C465    1.353   .     S
C410   N482    1.449   .     S
C411   C416    1.406   .     A
C411   N429    1.435   .     S
C412   C415    1.406   .     A
C412   N432    1.435   .     S
C412   C78     1.385   1_565 S
C413   C435    1.491   .     S
C413   C415    1.408   .     A
C413   C75     1.385   1_565 S
C414   C416    1.408   .     A
C414   C439    1.491   .     S
C417   N443    1.432   .     S
C417   C1427   1.418   1_554 S
C418   N446    1.432   .     S
C418   C924    1.418   .     S
C419   H421    1.081   .     S
C419   C921    1.418   .     S
C420   H422    1.081   .     S
C420   C1426   1.418   1_554 S
N423   O425    1.302   .     A
N423   C465    1.449   .     S
N423   O480    1.301   .     S
N426   O428    1.302   .     A
O427   N482    1.301   .     S
N429   O430    1.301   .     A
N429   O431    1.300   .     A
N432   O434    1.300   .     A
N432   O433    1.301   .     A
C435   O436    1.222   .     D
C435   O437    1.399   .     S
O437   H438    1.014   .     S
C439   O441    1.398   .     S
C439   O440    1.222   .     D
O441   H442    1.014   .     S
N443   O444    1.301   .     A
N443   O445    1.298   .     A
N446   O448    1.298   .     A
N446   O447    1.301   .     A
O449   C453    1.288   .     A
O449   Zn461   1.996   .     S
O450   C454    1.288   .     A
O450   Zn462   1.996   .     S
O451   Zn462   2.001   .     S
O451   C453    1.283   .     A
O452   C454    1.283   .     A
O452   Zn461   2.001   .     S
C453   C472    1.420   .     S
C454   C471    1.420   .     S
O455   C459    1.279   .     A
O455   Zn461   1.982   .     S
O456   C460    1.279   .     A
O456   Zn462   1.982   .     S
O457   Zn462   1.984   .     S
O457   C459    1.286   .     A
O458   C460    1.286   .     A
O458   Zn461   1.984   .     S
C459   C465    1.407   .     S
C460   C466    1.407   .     S
Zn461  N463    2.020   .     S
Zn462  N464    2.020   .     S
N463   C475    1.357   .     A
N463   C474    1.383   .     A
N464   C476    1.357   .     A
N464   C473    1.383   .     A
C466   C353    1.353   1_655 S
C466   N370    1.449   1_655 S
C467   C472    1.406   .     A
C467   N485    1.435   .     S
C468   C471    1.406   .     A
C468   N488    1.435   .     S
C468   C134    1.385   1_565 S
C469   C491    1.491   .     S
C469   C471    1.408   .     A
C469   C131    1.385   1_565 S
C470   C472    1.408   .     A
C470   C495    1.491   .     S
C473   N499    1.432   .     S
C473   C1483   1.418   1_554 S
C474   N502    1.432   .     S
C474   C980    1.418   .     S
C475   H477    1.081   .     S
C475   C977    1.418   .     S
C476   H478    1.081   .     S
C476   C1482   1.418   1_554 S
N479   O481    1.302   .     A
N479   C353    1.449   1_655 S
N479   O368    1.301   1_655 S
N482   O484    1.302   .     A
O483   N370    1.301   1_655 S
N485   O486    1.301   .     A
N485   O487    1.300   .     A
N488   O490    1.300   .     A
N488   O489    1.301   .     A
C491   O492    1.222   .     D
C491   O493    1.399   .     S
O493   H494    1.014   .     S
C495   O497    1.398   .     S
C495   O496    1.222   .     D
O497   H498    1.014   .     S
N499   O500    1.301   .     A
N499   O501    1.298   .     A
N502   O504    1.298   .     A
N502   O503    1.301   .     A
O505   C509    1.288   .     A
O505   Zn517   1.996   .     S
O506   C510    1.288   .     A
O506   Zn518   1.996   .     S
O507   Zn518   2.001   .     S
O507   C509    1.283   .     A
O508   C510    1.283   .     A
O508   Zn517   2.001   .     S
C509   C528    1.420   .     S
C510   C527    1.420   .     S
O511   C515    1.279   .     A
O511   Zn517   1.982   .     S
O512   C516    1.279   .     A
O512   Zn518   1.982   .     S
O513   Zn518   1.984   .     S
O513   C515    1.286   .     A
O514   C516    1.286   .     A
O514   Zn517   1.984   .     S
C515   C521    1.407   .     S
C516   C522    1.407   .     S
Zn517  N519    2.020   .     S
Zn518  N520    2.020   .     S
N519   C531    1.357   .     A
N519   C530    1.383   .     A
N520   C532    1.357   .     A
N520   C529    1.383   .     A
C521   C634    1.353   1_455 S
C521   N647    1.449   1_455 S
C522   C577    1.353   .     S
C522   N594    1.449   .     S
C523   C528    1.406   .     A
C523   N541    1.435   .     S
C523   C861    1.385   1_545 S
C524   C527    1.406   .     A
C524   N544    1.435   .     S
C524   C694    1.385   .     S
C525   C547    1.491   .     S
C525   C527    1.408   .     A
C525   C691    1.385   .     S
C526   C528    1.408   .     A
C526   C551    1.491   .     S
C526   C860    1.385   1_545 S
C529   N555    1.432   .     S
C530   N558    1.432   .     S
C530   C1036   1.418   .     S
C531   H533    1.081   .     S
C531   C1033   1.418   .     S
C532   H534    1.081   .     S
N535   O537    1.302   .     A
N535   C577    1.449   .     S
N535   O592    1.301   .     S
O536   N647    1.301   1_455 S
N538   O540    1.302   .     A
N538   C634    1.449   1_455 S
N538   O651    1.301   1_455 S
O539   N594    1.301   .     S
N541   O542    1.301   .     A
N541   O543    1.300   .     A
N544   O546    1.300   .     A
N544   O545    1.301   .     A
C547   O548    1.222   .     D
C547   O549    1.399   .     S
O549   H550    1.014   .     S
C551   O553    1.398   .     S
C551   O552    1.222   .     D
O553   H554    1.014   .     S
N555   O556    1.301   .     A
N555   O557    1.298   .     A
N558   O560    1.298   .     A
N558   O559    1.301   .     A
O561   C565    1.288   .     A
O561   Zn573   1.996   .     S
O562   C566    1.288   .     A
O562   Zn574   1.996   .     S
O563   Zn574   2.001   .     S
O563   C565    1.283   .     A
O564   C566    1.283   .     A
O564   Zn573   2.001   .     S
C565   C584    1.420   .     S
C566   C583    1.420   .     S
O567   C571    1.279   .     A
O567   Zn573   1.982   .     S
O568   C572    1.279   .     A
O568   Zn574   1.982   .     S
O569   Zn574   1.984   .     S
O569   C571    1.286   .     A
O570   C572    1.286   .     A
O570   Zn573   1.984   .     S
C571   C577    1.407   .     S
C572   C578    1.407   .     S
Zn573  N575    2.020   .     S
Zn574  N576    2.020   .     S
N575   C587    1.357   .     A
N575   C586    1.383   .     A
N576   C588    1.357   .     A
N576   C585    1.383   .     A
C578   C633    1.353   .     S
C578   N650    1.449   .     S
C579   C584    1.406   .     A
C579   N597    1.435   .     S
C579   C917    1.385   1_545 S
C580   C583    1.406   .     A
C580   N600    1.435   .     S
C580   C750    1.385   .     S
C581   C603    1.491   .     S
C581   C583    1.408   .     A
C581   C747    1.385   .     S
C582   C584    1.408   .     A
C582   C607    1.491   .     S
C582   C916    1.385   1_545 S
C585   N611    1.432   .     S
C586   N614    1.432   .     S
C586   C1092   1.418   .     S
C587   H589    1.081   .     S
C587   C1089   1.418   .     S
C588   H590    1.081   .     S
N591   O593    1.302   .     A
N591   C633    1.449   .     S
N591   O648    1.301   .     S
N594   O596    1.302   .     A
O595   N650    1.301   .     S
N597   O598    1.301   .     A
N597   O599    1.300   .     A
N600   O602    1.300   .     A
N600   O601    1.301   .     A
C603   O604    1.222   .     D
C603   O605    1.399   .     S
O605   H606    1.014   .     S
C607   O609    1.398   .     S
C607   O608    1.222   .     D
O609   H610    1.014   .     S
N611   O612    1.301   .     A
N611   O613    1.298   .     A
N614   O616    1.298   .     A
N614   O615    1.301   .     A
O617   C621    1.288   .     A
O617   Zn629   1.996   .     S
O618   C622    1.288   .     A
O618   Zn630   1.996   .     S
O619   Zn630   2.001   .     S
O619   C621    1.283   .     A
O620   C622    1.283   .     A
O620   Zn629   2.001   .     S
C621   C640    1.420   .     S
C622   C639    1.420   .     S
O623   C627    1.279   .     A
O623   Zn629   1.982   .     S
O624   C628    1.279   .     A
O624   Zn630   1.982   .     S
O625   Zn630   1.984   .     S
O625   C627    1.286   .     A
O626   C628    1.286   .     A
O626   Zn629   1.984   .     S
C627   C633    1.407   .     S
C628   C634    1.407   .     S
Zn629  N631    2.020   .     S
Zn630  N632    2.020   .     S
N631   C643    1.357   .     A
N631   C642    1.383   .     A
N632   C644    1.357   .     A
N632   C641    1.383   .     A
C634   C521    1.353   1_655 S
C634   N538    1.449   1_655 S
C635   C640    1.406   .     A
C635   N653    1.435   .     S
C635   C973    1.385   1_545 S
C636   C639    1.406   .     A
C636   N656    1.435   .     S
C636   C806    1.385   .     S
C637   C659    1.491   .     S
C637   C639    1.408   .     A
C637   C803    1.385   .     S
C638   C640    1.408   .     A
C638   C663    1.491   .     S
C638   C972    1.385   1_545 S
C641   N667    1.432   .     S
C642   N670    1.432   .     S
C642   C1148   1.418   .     S
C643   H645    1.081   .     S
C643   C1145   1.418   .     S
C644   H646    1.081   .     S
N647   O649    1.302   .     A
N647   C521    1.449   1_655 S
N647   O536    1.301   1_655 S
N650   O652    1.302   .     A
O651   N538    1.301   1_655 S
N653   O654    1.301   .     A
N653   O655    1.300   .     A
N656   O658    1.300   .     A
N656   O657    1.301   .     A
C659   O660    1.222   .     D
C659   O661    1.399   .     S
O661   H662    1.014   .     S
C663   O665    1.398   .     S
C663   O664    1.222   .     D
O665   H666    1.014   .     S
N667   O668    1.301   .     A
N667   O669    1.298   .     A
N670   O672    1.298   .     A
N670   O671    1.301   .     A
O673   C677    1.288   .     A
O673   Zn685   1.996   .     S
O674   C678    1.288   .     A
O674   Zn686   1.996   .     S
O675   Zn686   2.001   .     S
O675   C677    1.283   .     A
O676   C678    1.283   .     A
O676   Zn685   2.001   .     S
C677   C696    1.420   .     S
C678   C695    1.420   .     S
O679   C683    1.279   .     A
O679   Zn685   1.982   .     S
O680   C684    1.279   .     A
O680   Zn686   1.982   .     S
O681   Zn686   1.984   .     S
O681   C683    1.286   .     A
O682   C684    1.286   .     A
O682   Zn685   1.984   .     S
C683   C689    1.407   .     S
C684   C690    1.407   .     S
Zn685  N687    2.020   .     S
Zn686  N688    2.020   .     S
N687   C699    1.357   .     A
N687   C698    1.383   .     A
N688   C700    1.357   .     A
N688   C697    1.383   .     A
C689   C802    1.353   1_455 S
C689   N815    1.449   1_455 S
C690   C745    1.353   .     S
C690   N762    1.449   .     S
C691   C696    1.406   .     A
C691   N709    1.435   .     S
C692   C695    1.406   .     A
C692   N712    1.435   .     S
C692   C862    1.385   .     S
C693   C715    1.491   .     S
C693   C695    1.408   .     A
C693   C859    1.385   .     S
C694   C696    1.408   .     A
C694   C719    1.491   .     S
C697   N723    1.432   .     S
C698   N726    1.432   .     S
C698   C1204   1.418   .     S
C699   H701    1.081   .     S
C699   C1201   1.418   .     S
C700   H702    1.081   .     S
N703   O705    1.302   .     A
N703   C745    1.449   .     S
N703   O760    1.301   .     S
O704   N815    1.301   1_455 S
N706   O708    1.302   .     A
N706   C802    1.449   1_455 S
N706   O819    1.301   1_455 S
O707   N762    1.301   .     S
N709   O710    1.301   .     A
N709   O711    1.300   .     A
N712   O714    1.300   .     A
N712   O713    1.301   .     A
C715   O716    1.222   .     D
C715   O717    1.399   .     S
O717   H718    1.014   .     S
C719   O721    1.398   .     S
C719   O720    1.222   .     D
O721   H722    1.014   .     S
N723   O724    1.301   .     A
N723   O725    1.298   .     A
N726   O728    1.298   .     A
N726   O727    1.301   .     A
O729   C733    1.288   .     A
O729   Zn741   1.996   .     S
O730   C734    1.288   .     A
O730   Zn742   1.996   .     S
O731   Zn742   2.001   .     S
O731   C733    1.283   .     A
O732   C734    1.283   .     A
O732   Zn741   2.001   .     S
C733   C752    1.420   .     S
C734   C751    1.420   .     S
O735   C739    1.279   .     A
O735   Zn741   1.982   .     S
O736   C740    1.279   .     A
O736   Zn742   1.982   .     S
O737   Zn742   1.984   .     S
O737   C739    1.286   .     A
O738   C740    1.286   .     A
O738   Zn741   1.984   .     S
C739   C745    1.407   .     S
C740   C746    1.407   .     S
Zn741  N743    2.020   .     S
Zn742  N744    2.020   .     S
N743   C755    1.357   .     A
N743   C754    1.383   .     A
N744   C756    1.357   .     A
N744   C753    1.383   .     A
C746   C801    1.353   .     S
C746   N818    1.449   .     S
C747   C752    1.406   .     A
C747   N765    1.435   .     S
C748   C751    1.406   .     A
C748   N768    1.435   .     S
C748   C918    1.385   .     S
C749   C771    1.491   .     S
C749   C751    1.408   .     A
C749   C915    1.385   .     S
C750   C752    1.408   .     A
C750   C775    1.491   .     S
C753   N779    1.432   .     S
C754   N782    1.432   .     S
C754   C1260   1.418   .     S
C755   H757    1.081   .     S
C755   C1257   1.418   .     S
C756   H758    1.081   .     S
N759   O761    1.302   .     A
N759   C801    1.449   .     S
N759   O816    1.301   .     S
N762   O764    1.302   .     A
O763   N818    1.301   .     S
N765   O766    1.301   .     A
N765   O767    1.300   .     A
N768   O770    1.300   .     A
N768   O769    1.301   .     A
C771   O772    1.222   .     D
C771   O773    1.399   .     S
O773   H774    1.014   .     S
C775   O777    1.398   .     S
C775   O776    1.222   .     D
O777   H778    1.014   .     S
N779   O780    1.301   .     A
N779   O781    1.298   .     A
N782   O784    1.298   .     A
N782   O783    1.301   .     A
O785   C789    1.288   .     A
O785   Zn797   1.996   .     S
O786   C790    1.288   .     A
O786   Zn798   1.996   .     S
O787   Zn798   2.001   .     S
O787   C789    1.283   .     A
O788   C790    1.283   .     A
O788   Zn797   2.001   .     S
C789   C808    1.420   .     S
C790   C807    1.420   .     S
O791   C795    1.279   .     A
O791   Zn797   1.982   .     S
O792   C796    1.279   .     A
O792   Zn798   1.982   .     S
O793   Zn798   1.984   .     S
O793   C795    1.286   .     A
O794   C796    1.286   .     A
O794   Zn797   1.984   .     S
C795   C801    1.407   .     S
C796   C802    1.407   .     S
Zn797  N799    2.020   .     S
Zn798  N800    2.020   .     S
N799   C811    1.357   .     A
N799   C810    1.383   .     A
N800   C812    1.357   .     A
N800   C809    1.383   .     A
C802   C689    1.353   1_655 S
C802   N706    1.449   1_655 S
C803   C808    1.406   .     A
C803   N821    1.435   .     S
C804   C807    1.406   .     A
C804   N824    1.435   .     S
C804   C974    1.385   .     S
C805   C827    1.491   .     S
C805   C807    1.408   .     A
C805   C971    1.385   .     S
C806   C808    1.408   .     A
C806   C831    1.491   .     S
C809   N835    1.432   .     S
C810   N838    1.432   .     S
C810   C1316   1.418   .     S
C811   H813    1.081   .     S
C811   C1313   1.418   .     S
C812   H814    1.081   .     S
N815   O817    1.302   .     A
N815   C689    1.449   1_655 S
N815   O704    1.301   1_655 S
N818   O820    1.302   .     A
O819   N706    1.301   1_655 S
N821   O822    1.301   .     A
N821   O823    1.300   .     A
N824   O826    1.300   .     A
N824   O825    1.301   .     A
C827   O828    1.222   .     D
C827   O829    1.399   .     S
O829   H830    1.014   .     S
C831   O833    1.398   .     S
C831   O832    1.222   .     D
O833   H834    1.014   .     S
N835   O836    1.301   .     A
N835   O837    1.298   .     A
N838   O840    1.298   .     A
N838   O839    1.301   .     A
O841   C845    1.288   .     A
O841   Zn853   1.996   .     S
O842   C846    1.288   .     A
O842   Zn854   1.996   .     S
O843   Zn854   2.001   .     S
O843   C845    1.283   .     A
O844   C846    1.283   .     A
O844   Zn853   2.001   .     S
C845   C864    1.420   .     S
C846   C863    1.420   .     S
O847   C851    1.279   .     A
O847   Zn853   1.982   .     S
O848   C852    1.279   .     A
O848   Zn854   1.982   .     S
O849   Zn854   1.984   .     S
O849   C851    1.286   .     A
O850   C852    1.286   .     A
O850   Zn853   1.984   .     S
C851   C857    1.407   .     S
C852   C858    1.407   .     S
Zn853  N855    2.020   .     S
Zn854  N856    2.020   .     S
N855   C867    1.357   .     A
N855   C866    1.383   .     A
N856   C868    1.357   .     A
N856   C865    1.383   .     A
C857   C970    1.353   1_455 S
C857   N983    1.449   1_455 S
C858   C913    1.353   .     S
C858   N930    1.449   .     S
C859   C864    1.406   .     A
C859   N877    1.435   .     S
C860   C863    1.406   .     A
C860   N880    1.435   .     S
C860   C526    1.385   1_565 S
C861   C883    1.491   .     S
C861   C863    1.408   .     A
C861   C523    1.385   1_565 S
C862   C864    1.408   .     A
C862   C887    1.491   .     S
C865   N891    1.432   .     S
C866   N894    1.432   .     S
C866   C1372   1.418   .     S
C867   H869    1.081   .     S
C867   C1369   1.418   .     S
C868   H870    1.081   .     S
N871   O873    1.302   .     A
N871   C913    1.449   .     S
N871   O928    1.301   .     S
O872   N983    1.301   1_455 S
N874   O876    1.302   .     A
N874   C970    1.449   1_455 S
N874   O987    1.301   1_455 S
O875   N930    1.301   .     S
N877   O878    1.301   .     A
N877   O879    1.300   .     A
N880   O882    1.300   .     A
N880   O881    1.301   .     A
C883   O884    1.222   .     D
C883   O885    1.399   .     S
O885   H886    1.014   .     S
C887   O889    1.398   .     S
C887   O888    1.222   .     D
O889   H890    1.014   .     S
N891   O892    1.301   .     A
N891   O893    1.298   .     A
N894   O896    1.298   .     A
N894   O895    1.301   .     A
O897   C901    1.288   .     A
O897   Zn909   1.996   .     S
O898   C902    1.288   .     A
O898   Zn910   1.996   .     S
O899   Zn910   2.001   .     S
O899   C901    1.283   .     A
O900   C902    1.283   .     A
O900   Zn909   2.001   .     S
C901   C920    1.420   .     S
C902   C919    1.420   .     S
O903   C907    1.279   .     A
O903   Zn909   1.982   .     S
O904   C908    1.279   .     A
O904   Zn910   1.982   .     S
O905   Zn910   1.984   .     S
O905   C907    1.286   .     A
O906   C908    1.286   .     A
O906   Zn909   1.984   .     S
C907   C913    1.407   .     S
C908   C914    1.407   .     S
Zn909  N911    2.020   .     S
Zn910  N912    2.020   .     S
N911   C923    1.357   .     A
N911   C922    1.383   .     A
N912   C924    1.357   .     A
N912   C921    1.383   .     A
C914   C969    1.353   .     S
C914   N986    1.449   .     S
C915   C920    1.406   .     A
C915   N933    1.435   .     S
C916   C919    1.406   .     A
C916   N936    1.435   .     S
C916   C582    1.385   1_565 S
C917   C939    1.491   .     S
C917   C919    1.408   .     A
C917   C579    1.385   1_565 S
C918   C920    1.408   .     A
C918   C943    1.491   .     S
C921   N947    1.432   .     S
C922   N950    1.432   .     S
C922   C1428   1.418   .     S
C923   H925    1.081   .     S
C923   C1425   1.418   .     S
C924   H926    1.081   .     S
N927   O929    1.302   .     A
N927   C969    1.449   .     S
N927   O984    1.301   .     S
N930   O932    1.302   .     A
O931   N986    1.301   .     S
N933   O934    1.301   .     A
N933   O935    1.300   .     A
N936   O938    1.300   .     A
N936   O937    1.301   .     A
C939   O940    1.222   .     D
C939   O941    1.399   .     S
O941   H942    1.014   .     S
C943   O945    1.398   .     S
C943   O944    1.222   .     D
O945   H946    1.014   .     S
N947   O948    1.301   .     A
N947   O949    1.298   .     A
N950   O952    1.298   .     A
N950   O951    1.301   .     A
O953   C957    1.288   .     A
O953   Zn965   1.996   .     S
O954   C958    1.288   .     A
O954   Zn966   1.996   .     S
O955   Zn966   2.001   .     S
O955   C957    1.283   .     A
O956   C958    1.283   .     A
O956   Zn965   2.001   .     S
C957   C976    1.420   .     S
C958   C975    1.420   .     S
O959   C963    1.279   .     A
O959   Zn965   1.982   .     S
O960   C964    1.279   .     A
O960   Zn966   1.982   .     S
O961   Zn966   1.984   .     S
O961   C963    1.286   .     A
O962   C964    1.286   .     A
O962   Zn965   1.984   .     S
C963   C969    1.407   .     S
C964   C970    1.407   .     S
Zn965  N967    2.020   .     S
Zn966  N968    2.020   .     S
N967   C979    1.357   .     A
N967   C978    1.383   .     A
N968   C980    1.357   .     A
N968   C977    1.383   .     A
C970   C857    1.353   1_655 S
C970   N874    1.449   1_655 S
C971   C976    1.406   .     A
C971   N989    1.435   .     S
C972   C975    1.406   .     A
C972   N992    1.435   .     S
C972   C638    1.385   1_565 S
C973   C995    1.491   .     S
C973   C975    1.408   .     A
C973   C635    1.385   1_565 S
C974   C976    1.408   .     A
C974   C999    1.491   .     S
C977   N1003   1.432   .     S
C978   N1006   1.432   .     S
C978   C1484   1.418   .     S
C979   H981    1.081   .     S
C979   C1481   1.418   .     S
C980   H982    1.081   .     S
N983   O985    1.302   .     A
N983   C857    1.449   1_655 S
N983   O872    1.301   1_655 S
N986   O988    1.302   .     A
O987   N874    1.301   1_655 S
N989   O990    1.301   .     A
N989   O991    1.300   .     A
N992   O994    1.300   .     A
N992   O993    1.301   .     A
C995   O996    1.222   .     D
C995   O997    1.399   .     S
O997   H998    1.014   .     S
C999   O1001   1.398   .     S
C999   O1000   1.222   .     D
O1001  H1002   1.014   .     S
N1003  O1004   1.301   .     A
N1003  O1005   1.298   .     A
N1006  O1008   1.298   .     A
N1006  O1007   1.301   .     A
O1009  C1013   1.288   .     A
O1009  Zn1021  1.996   .     S
O1010  C1014   1.288   .     A
O1010  Zn1022  1.996   .     S
O1011  Zn1022  2.001   .     S
O1011  C1013   1.283   .     A
O1012  C1014   1.283   .     A
O1012  Zn1021  2.001   .     S
C1013  C1032   1.420   .     S
C1014  C1031   1.420   .     S
O1015  C1019   1.279   .     A
O1015  Zn1021  1.982   .     S
O1016  C1020   1.279   .     A
O1016  Zn1022  1.982   .     S
O1017  Zn1022  1.984   .     S
O1017  C1019   1.286   .     A
O1018  C1020   1.286   .     A
O1018  Zn1021  1.984   .     S
C1019  C1025   1.407   .     S
C1020  C1026   1.407   .     S
Zn1021 N1023   2.020   .     S
Zn1022 N1024   2.020   .     S
N1023  C1035   1.357   .     A
N1023  C1034   1.383   .     A
N1024  C1036   1.357   .     A
N1024  C1033   1.383   .     A
C1025  C1138   1.353   1_455 S
C1025  N1151   1.449   1_455 S
C1026  C1081   1.353   .     S
C1026  N1098   1.449   .     S
C1027  C1032   1.406   .     A
C1027  N1045   1.435   .     S
C1027  C1365   1.385   1_545 S
C1028  C1031   1.406   .     A
C1028  N1048   1.435   .     S
C1028  C1198   1.385   .     S
C1029  C1051   1.491   .     S
C1029  C1031   1.408   .     A
C1029  C1195   1.385   .     S
C1030  C1032   1.408   .     A
C1030  C1055   1.491   .     S
C1030  C1364   1.385   1_545 S
C1033  N1059   1.432   .     S
C1034  N1062   1.432   .     S
C1034  C28     1.418   1_556 S
C1035  H1037   1.081   .     S
C1035  C25     1.418   1_556 S
C1036  H1038   1.081   .     S
N1039  O1041   1.302   .     A
N1039  C1081   1.449   .     S
N1039  O1096   1.301   .     S
O1040  N1151   1.301   1_455 S
N1042  O1044   1.302   .     A
N1042  C1138   1.449   1_455 S
N1042  O1155   1.301   1_455 S
O1043  N1098   1.301   .     S
N1045  O1046   1.301   .     A
N1045  O1047   1.300   .     A
N1048  O1050   1.300   .     A
N1048  O1049   1.301   .     A
C1051  O1052   1.222   .     D
C1051  O1053   1.399   .     S
O1053  H1054   1.014   .     S
C1055  O1057   1.398   .     S
C1055  O1056   1.222   .     D
O1057  H1058   1.014   .     S
N1059  O1060   1.301   .     A
N1059  O1061   1.298   .     A
N1062  O1064   1.298   .     A
N1062  O1063   1.301   .     A
O1065  C1069   1.288   .     A
O1065  Zn1077  1.996   .     S
O1066  C1070   1.288   .     A
O1066  Zn1078  1.996   .     S
O1067  Zn1078  2.001   .     S
O1067  C1069   1.283   .     A
O1068  C1070   1.283   .     A
O1068  Zn1077  2.001   .     S
C1069  C1088   1.420   .     S
C1070  C1087   1.420   .     S
O1071  C1075   1.279   .     A
O1071  Zn1077  1.982   .     S
O1072  C1076   1.279   .     A
O1072  Zn1078  1.982   .     S
O1073  Zn1078  1.984   .     S
O1073  C1075   1.286   .     A
O1074  C1076   1.286   .     A
O1074  Zn1077  1.984   .     S
C1075  C1081   1.407   .     S
C1076  C1082   1.407   .     S
Zn1077 N1079   2.020   .     S
Zn1078 N1080   2.020   .     S
N1079  C1091   1.357   .     A
N1079  C1090   1.383   .     A
N1080  C1092   1.357   .     A
N1080  C1089   1.383   .     A
C1082  C1137   1.353   .     S
C1082  N1154   1.449   .     S
C1083  C1088   1.406   .     A
C1083  N1101   1.435   .     S
C1083  C1421   1.385   1_545 S
C1084  C1087   1.406   .     A
C1084  N1104   1.435   .     S
C1084  C1254   1.385   .     S
C1085  C1107   1.491   .     S
C1085  C1087   1.408   .     A
C1085  C1251   1.385   .     S
C1086  C1088   1.408   .     A
C1086  C1111   1.491   .     S
C1086  C1420   1.385   1_545 S
C1089  N1115   1.432   .     S
C1090  N1118   1.432   .     S
C1090  C84     1.418   1_556 S
C1091  H1093   1.081   .     S
C1091  C81     1.418   1_556 S
C1092  H1094   1.081   .     S
N1095  O1097   1.302   .     A
N1095  C1137   1.449   .     S
N1095  O1152   1.301   .     S
N1098  O1100   1.302   .     A
O1099  N1154   1.301   .     S
N1101  O1102   1.301   .     A
N1101  O1103   1.300   .     A
N1104  O1106   1.300   .     A
N1104  O1105   1.301   .     A
C1107  O1108   1.222   .     D
C1107  O1109   1.399   .     S
O1109  H1110   1.014   .     S
C1111  O1113   1.398   .     S
C1111  O1112   1.222   .     D
O1113  H1114   1.014   .     S
N1115  O1116   1.301   .     A
N1115  O1117   1.298   .     A
N1118  O1120   1.298   .     A
N1118  O1119   1.301   .     A
O1121  C1125   1.288   .     A
O1121  Zn1133  1.996   .     S
O1122  C1126   1.288   .     A
O1122  Zn1134  1.996   .     S
O1123  Zn1134  2.001   .     S
O1123  C1125   1.283   .     A
O1124  C1126   1.283   .     A
O1124  Zn1133  2.001   .     S
C1125  C1144   1.420   .     S
C1126  C1143   1.420   .     S
O1127  C1131   1.279   .     A
O1127  Zn1133  1.982   .     S
O1128  C1132   1.279   .     A
O1128  Zn1134  1.982   .     S
O1129  Zn1134  1.984   .     S
O1129  C1131   1.286   .     A
O1130  C1132   1.286   .     A
O1130  Zn1133  1.984   .     S
C1131  C1137   1.407   .     S
C1132  C1138   1.407   .     S
Zn1133 N1135   2.020   .     S
Zn1134 N1136   2.020   .     S
N1135  C1147   1.357   .     A
N1135  C1146   1.383   .     A
N1136  C1148   1.357   .     A
N1136  C1145   1.383   .     A
C1138  C1025   1.353   1_655 S
C1138  N1042   1.449   1_655 S
C1139  C1144   1.406   .     A
C1139  N1157   1.435   .     S
C1139  C1477   1.385   1_545 S
C1140  C1143   1.406   .     A
C1140  N1160   1.435   .     S
C1140  C1310   1.385   .     S
C1141  C1163   1.491   .     S
C1141  C1143   1.408   .     A
C1141  C1307   1.385   .     S
C1142  C1144   1.408   .     A
C1142  C1167   1.491   .     S
C1142  C1476   1.385   1_545 S
C1145  N1171   1.432   .     S
C1146  N1174   1.432   .     S
C1146  C140    1.418   1_556 S
C1147  H1149   1.081   .     S
C1147  C137    1.418   1_556 S
C1148  H1150   1.081   .     S
N1151  O1153   1.302   .     A
N1151  C1025   1.449   1_655 S
N1151  O1040   1.301   1_655 S
N1154  O1156   1.302   .     A
O1155  N1042   1.301   1_655 S
N1157  O1158   1.301   .     A
N1157  O1159   1.300   .     A
N1160  O1162   1.300   .     A
N1160  O1161   1.301   .     A
C1163  O1164   1.222   .     D
C1163  O1165   1.399   .     S
O1165  H1166   1.014   .     S
C1167  O1169   1.398   .     S
C1167  O1168   1.222   .     D
O1169  H1170   1.014   .     S
N1171  O1172   1.301   .     A
N1171  O1173   1.298   .     A
N1174  O1176   1.298   .     A
N1174  O1175   1.301   .     A
O1177  C1181   1.288   .     A
O1177  Zn1189  1.996   .     S
O1178  C1182   1.288   .     A
O1178  Zn1190  1.996   .     S
O1179  Zn1190  2.001   .     S
O1179  C1181   1.283   .     A
O1180  C1182   1.283   .     A
O1180  Zn1189  2.001   .     S
C1181  C1200   1.420   .     S
C1182  C1199   1.420   .     S
O1183  C1187   1.279   .     A
O1183  Zn1189  1.982   .     S
O1184  C1188   1.279   .     A
O1184  Zn1190  1.982   .     S
O1185  Zn1190  1.984   .     S
O1185  C1187   1.286   .     A
O1186  C1188   1.286   .     A
O1186  Zn1189  1.984   .     S
C1187  C1193   1.407   .     S
C1188  C1194   1.407   .     S
Zn1189 N1191   2.020   .     S
Zn1190 N1192   2.020   .     S
N1191  C1203   1.357   .     A
N1191  C1202   1.383   .     A
N1192  C1204   1.357   .     A
N1192  C1201   1.383   .     A
C1193  C1306   1.353   1_455 S
C1193  N1319   1.449   1_455 S
C1194  C1249   1.353   .     S
C1194  N1266   1.449   .     S
C1195  C1200   1.406   .     A
C1195  N1213   1.435   .     S
C1196  C1199   1.406   .     A
C1196  N1216   1.435   .     S
C1196  C1366   1.385   .     S
C1197  C1219   1.491   .     S
C1197  C1199   1.408   .     A
C1197  C1363   1.385   .     S
C1198  C1200   1.408   .     A
C1198  C1223   1.491   .     S
C1201  N1227   1.432   .     S
C1202  N1230   1.432   .     S
C1202  C196    1.418   1_556 S
C1203  H1205   1.081   .     S
C1203  C193    1.418   1_556 S
C1204  H1206   1.081   .     S
N1207  O1209   1.302   .     A
N1207  C1249   1.449   .     S
N1207  O1264   1.301   .     S
O1208  N1319   1.301   1_455 S
N1210  O1212   1.302   .     A
N1210  C1306   1.449   1_455 S
N1210  O1323   1.301   1_455 S
O1211  N1266   1.301   .     S
N1213  O1214   1.301   .     A
N1213  O1215   1.300   .     A
N1216  O1218   1.300   .     A
N1216  O1217   1.301   .     A
C1219  O1220   1.222   .     D
C1219  O1221   1.399   .     S
O1221  H1222   1.014   .     S
C1223  O1225   1.398   .     S
C1223  O1224   1.222   .     D
O1225  H1226   1.014   .     S
N1227  O1228   1.301   .     A
N1227  O1229   1.298   .     A
N1230  O1232   1.298   .     A
N1230  O1231   1.301   .     A
O1233  C1237   1.288   .     A
O1233  Zn1245  1.996   .     S
O1234  C1238   1.288   .     A
O1234  Zn1246  1.996   .     S
O1235  Zn1246  2.001   .     S
O1235  C1237   1.283   .     A
O1236  C1238   1.283   .     A
O1236  Zn1245  2.001   .     S
C1237  C1256   1.420   .     S
C1238  C1255   1.420   .     S
O1239  C1243   1.279   .     A
O1239  Zn1245  1.982   .     S
O1240  C1244   1.279   .     A
O1240  Zn1246  1.982   .     S
O1241  Zn1246  1.984   .     S
O1241  C1243   1.286   .     A
O1242  C1244   1.286   .     A
O1242  Zn1245  1.984   .     S
C1243  C1249   1.407   .     S
C1244  C1250   1.407   .     S
Zn1245 N1247   2.020   .     S
Zn1246 N1248   2.020   .     S
N1247  C1259   1.357   .     A
N1247  C1258   1.383   .     A
N1248  C1260   1.357   .     A
N1248  C1257   1.383   .     A
C1250  C1305   1.353   .     S
C1250  N1322   1.449   .     S
C1251  C1256   1.406   .     A
C1251  N1269   1.435   .     S
C1252  C1255   1.406   .     A
C1252  N1272   1.435   .     S
C1252  C1422   1.385   .     S
C1253  C1275   1.491   .     S
C1253  C1255   1.408   .     A
C1253  C1419   1.385   .     S
C1254  C1256   1.408   .     A
C1254  C1279   1.491   .     S
C1257  N1283   1.432   .     S
C1258  N1286   1.432   .     S
C1258  C252    1.418   1_556 S
C1259  H1261   1.081   .     S
C1259  C249    1.418   1_556 S
C1260  H1262   1.081   .     S
N1263  O1265   1.302   .     A
N1263  C1305   1.449   .     S
N1263  O1320   1.301   .     S
N1266  O1268   1.302   .     A
O1267  N1322   1.301   .     S
N1269  O1270   1.301   .     A
N1269  O1271   1.300   .     A
N1272  O1274   1.300   .     A
N1272  O1273   1.301   .     A
C1275  O1276   1.222   .     D
C1275  O1277   1.399   .     S
O1277  H1278   1.014   .     S
C1279  O1281   1.398   .     S
C1279  O1280   1.222   .     D
O1281  H1282   1.014   .     S
N1283  O1284   1.301   .     A
N1283  O1285   1.298   .     A
N1286  O1288   1.298   .     A
N1286  O1287   1.301   .     A
O1289  C1293   1.288   .     A
O1289  Zn1301  1.996   .     S
O1290  C1294   1.288   .     A
O1290  Zn1302  1.996   .     S
O1291  Zn1302  2.001   .     S
O1291  C1293   1.283   .     A
O1292  C1294   1.283   .     A
O1292  Zn1301  2.001   .     S
C1293  C1312   1.420   .     S
C1294  C1311   1.420   .     S
O1295  C1299   1.279   .     A
O1295  Zn1301  1.982   .     S
O1296  C1300   1.279   .     A
O1296  Zn1302  1.982   .     S
O1297  Zn1302  1.984   .     S
O1297  C1299   1.286   .     A
O1298  C1300   1.286   .     A
O1298  Zn1301  1.984   .     S
C1299  C1305   1.407   .     S
C1300  C1306   1.407   .     S
Zn1301 N1303   2.020   .     S
Zn1302 N1304   2.020   .     S
N1303  C1315   1.357   .     A
N1303  C1314   1.383   .     A
N1304  C1316   1.357   .     A
N1304  C1313   1.383   .     A
C1306  C1193   1.353   1_655 S
C1306  N1210   1.449   1_655 S
C1307  C1312   1.406   .     A
C1307  N1325   1.435   .     S
C1308  C1311   1.406   .     A
C1308  N1328   1.435   .     S
C1308  C1478   1.385   .     S
C1309  C1331   1.491   .     S
C1309  C1311   1.408   .     A
C1309  C1475   1.385   .     S
C1310  C1312   1.408   .     A
C1310  C1335   1.491   .     S
C1313  N1339   1.432   .     S
C1314  N1342   1.432   .     S
C1314  C308    1.418   1_556 S
C1315  H1317   1.081   .     S
C1315  C305    1.418   1_556 S
C1316  H1318   1.081   .     S
N1319  O1321   1.302   .     A
N1319  C1193   1.449   1_655 S
N1319  O1208   1.301   1_655 S
N1322  O1324   1.302   .     A
O1323  N1210   1.301   1_655 S
N1325  O1326   1.301   .     A
N1325  O1327   1.300   .     A
N1328  O1330   1.300   .     A
N1328  O1329   1.301   .     A
C1331  O1332   1.222   .     D
C1331  O1333   1.399   .     S
O1333  H1334   1.014   .     S
C1335  O1337   1.398   .     S
C1335  O1336   1.222   .     D
O1337  H1338   1.014   .     S
N1339  O1340   1.301   .     A
N1339  O1341   1.298   .     A
N1342  O1344   1.298   .     A
N1342  O1343   1.301   .     A
O1345  C1349   1.288   .     A
O1345  Zn1357  1.996   .     S
O1346  C1350   1.288   .     A
O1346  Zn1358  1.996   .     S
O1347  Zn1358  2.001   .     S
O1347  C1349   1.283   .     A
O1348  C1350   1.283   .     A
O1348  Zn1357  2.001   .     S
C1349  C1368   1.420   .     S
C1350  C1367   1.420   .     S
O1351  C1355   1.279   .     A
O1351  Zn1357  1.982   .     S
O1352  C1356   1.279   .     A
O1352  Zn1358  1.982   .     S
O1353  Zn1358  1.984   .     S
O1353  C1355   1.286   .     A
O1354  C1356   1.286   .     A
O1354  Zn1357  1.984   .     S
C1355  C1361   1.407   .     S
C1356  C1362   1.407   .     S
Zn1357 N1359   2.020   .     S
Zn1358 N1360   2.020   .     S
N1359  C1371   1.357   .     A
N1359  C1370   1.383   .     A
N1360  C1372   1.357   .     A
N1360  C1369   1.383   .     A
C1361  C1474   1.353   1_455 S
C1361  N1487   1.449   1_455 S
C1362  C1417   1.353   .     S
C1362  N1434   1.449   .     S
C1363  C1368   1.406   .     A
C1363  N1381   1.435   .     S
C1364  C1367   1.406   .     A
C1364  N1384   1.435   .     S
C1364  C1030   1.385   1_565 S
C1365  C1387   1.491   .     S
C1365  C1367   1.408   .     A
C1365  C1027   1.385   1_565 S
C1366  C1368   1.408   .     A
C1366  C1391   1.491   .     S
C1369  N1395   1.432   .     S
C1370  N1398   1.432   .     S
C1370  C364    1.418   1_556 S
C1371  H1373   1.081   .     S
C1371  C361    1.418   1_556 S
C1372  H1374   1.081   .     S
N1375  O1377   1.302   .     A
N1375  C1417   1.449   .     S
N1375  O1432   1.301   .     S
O1376  N1487   1.301   1_455 S
N1378  O1380   1.302   .     A
N1378  C1474   1.449   1_455 S
N1378  O1491   1.301   1_455 S
O1379  N1434   1.301   .     S
N1381  O1382   1.301   .     A
N1381  O1383   1.300   .     A
N1384  O1386   1.300   .     A
N1384  O1385   1.301   .     A
C1387  O1388   1.222   .     D
C1387  O1389   1.399   .     S
O1389  H1390   1.014   .     S
C1391  O1393   1.398   .     S
C1391  O1392   1.222   .     D
O1393  H1394   1.014   .     S
N1395  O1396   1.301   .     A
N1395  O1397   1.298   .     A
N1398  O1400   1.298   .     A
N1398  O1399   1.301   .     A
O1401  C1405   1.288   .     A
O1401  Zn1413  1.996   .     S
O1402  C1406   1.288   .     A
O1402  Zn1414  1.996   .     S
O1403  Zn1414  2.001   .     S
O1403  C1405   1.283   .     A
O1404  C1406   1.283   .     A
O1404  Zn1413  2.001   .     S
C1405  C1424   1.420   .     S
C1406  C1423   1.420   .     S
O1407  C1411   1.279   .     A
O1407  Zn1413  1.982   .     S
O1408  C1412   1.279   .     A
O1408  Zn1414  1.982   .     S
O1409  Zn1414  1.984   .     S
O1409  C1411   1.286   .     A
O1410  C1412   1.286   .     A
O1410  Zn1413  1.984   .     S
C1411  C1417   1.407   .     S
C1412  C1418   1.407   .     S
Zn1413 N1415   2.020   .     S
Zn1414 N1416   2.020   .     S
N1415  C1427   1.357   .     A
N1415  C1426   1.383   .     A
N1416  C1428   1.357   .     A
N1416  C1425   1.383   .     A
C1418  C1473   1.353   .     S
C1418  N1490   1.449   .     S
C1419  C1424   1.406   .     A
C1419  N1437   1.435   .     S
C1420  C1423   1.406   .     A
C1420  N1440   1.435   .     S
C1420  C1086   1.385   1_565 S
C1421  C1443   1.491   .     S
C1421  C1423   1.408   .     A
C1421  C1083   1.385   1_565 S
C1422  C1424   1.408   .     A
C1422  C1447   1.491   .     S
C1425  N1451   1.432   .     S
C1426  N1454   1.432   .     S
C1426  C420    1.418   1_556 S
C1427  H1429   1.081   .     S
C1427  C417    1.418   1_556 S
C1428  H1430   1.081   .     S
N1431  O1433   1.302   .     A
N1431  C1473   1.449   .     S
N1431  O1488   1.301   .     S
N1434  O1436   1.302   .     A
O1435  N1490   1.301   .     S
N1437  O1438   1.301   .     A
N1437  O1439   1.300   .     A
N1440  O1442   1.300   .     A
N1440  O1441   1.301   .     A
C1443  O1444   1.222   .     D
C1443  O1445   1.399   .     S
O1445  H1446   1.014   .     S
C1447  O1449   1.398   .     S
C1447  O1448   1.222   .     D
O1449  H1450   1.014   .     S
N1451  O1452   1.301   .     A
N1451  O1453   1.298   .     A
N1454  O1456   1.298   .     A
N1454  O1455   1.301   .     A
O1457  C1461   1.288   .     A
O1457  Zn1469  1.996   .     S
O1458  C1462   1.288   .     A
O1458  Zn1470  1.996   .     S
O1459  Zn1470  2.001   .     S
O1459  C1461   1.283   .     A
O1460  C1462   1.283   .     A
O1460  Zn1469  2.001   .     S
C1461  C1480   1.420   .     S
C1462  C1479   1.420   .     S
O1463  C1467   1.279   .     A
O1463  Zn1469  1.982   .     S
O1464  C1468   1.279   .     A
O1464  Zn1470  1.982   .     S
O1465  Zn1470  1.984   .     S
O1465  C1467   1.286   .     A
O1466  C1468   1.286   .     A
O1466  Zn1469  1.984   .     S
C1467  C1473   1.407   .     S
C1468  C1474   1.407   .     S
Zn1469 N1471   2.020   .     S
Zn1470 N1472   2.020   .     S
N1471  C1483   1.357   .     A
N1471  C1482   1.383   .     A
N1472  C1484   1.357   .     A
N1472  C1481   1.383   .     A
C1474  C1361   1.353   1_655 S
C1474  N1378   1.449   1_655 S
C1475  C1480   1.406   .     A
C1475  N1493   1.435   .     S
C1476  C1479   1.406   .     A
C1476  N1496   1.435   .     S
C1476  C1142   1.385   1_565 S
C1477  C1499   1.491   .     S
C1477  C1479   1.408   .     A
C1477  C1139   1.385   1_565 S
C1478  C1480   1.408   .     A
C1478  C1503   1.491   .     S
C1481  N1507   1.432   .     S
C1482  N1510   1.432   .     S
C1482  C476    1.418   1_556 S
C1483  H1485   1.081   .     S
C1483  C473    1.418   1_556 S
C1484  H1486   1.081   .     S
N1487  O1489   1.302   .     A
N1487  C1361   1.449   1_655 S
N1487  O1376   1.301   1_655 S
N1490  O1492   1.302   .     A
O1491  N1378   1.301   1_655 S
N1493  O1494   1.301   .     A
N1493  O1495   1.300   .     A
N1496  O1498   1.300   .     A
N1496  O1497   1.301   .     A
C1499  O1500   1.222   .     D
C1499  O1501   1.399   .     S
O1501  H1502   1.014   .     S
C1503  O1505   1.398   .     S
C1503  O1504   1.222   .     D
O1505  H1506   1.014   .     S
N1507  O1508   1.301   .     A
N1507  O1509   1.298   .     A
N1510  O1512   1.298   .     A
N1510  O1511   1.301   .     A
