data_str_m3_o10_o17_pcu_sym.107
_audit_creation_date              2020-01-03
_audit_creation_method            'Materials Studio'
_symmetry_space_group_name_H-M    'P1'
_symmetry_Int_Tables_number       1
_symmetry_cell_setting            triclinic
loop_
_symmetry_equiv_pos_as_xyz
  x,y,z
_cell_length_a                    23.2544
_cell_length_b                    25.6982
_cell_length_c                    29.8100
_cell_angle_alpha                 90.8723
_cell_angle_beta                  86.0808
_cell_angle_gamma                 93.3651
loop_
_atom_site_label
_atom_site_type_symbol
_atom_site_fract_x
_atom_site_fract_y
_atom_site_fract_z
_atom_site_U_iso_or_equiv
_atom_site_adp_type
_atom_site_occupancy
C1     C     0.18161   0.26488   0.24890   0.00000  Uiso   1.00
C2     C     0.19476   0.21082   0.40584   0.00000  Uiso   1.00
C3     C     0.16369   0.16565   0.11615   0.00000  Uiso   1.00
C4     C     0.16965   0.16768   0.38385   0.00000  Uiso   1.00
C5     C     0.18894   0.20867   0.09326   0.00000  Uiso   1.00
C6     C     0.14439   0.12467   0.40674   0.00000  Uiso   1.00
C7     C     0.19003   0.21003   0.04682   0.00000  Uiso   1.00
C8     C     0.14330   0.12330   0.45318   0.00000  Uiso   1.00
C9     C     0.16582   0.16651   0.02350   0.00000  Uiso   1.00
C10    C     0.16751   0.16682   0.47650   0.00000  Uiso   1.00
C11    C     0.14002   0.12264   0.04719   0.00000  Uiso   1.00
C12    C     0.15173   0.06846   0.25110   0.00000  Uiso   1.00
C13    C     0.19332   0.21070   0.45281   0.00000  Uiso   1.00
C14    C     0.21499   0.25358   0.02316   0.00000  Uiso   1.00
C15    C     0.11835   0.07975   0.47684   0.00000  Uiso   1.00
C16    C     0.21652   0.25347   0.47663   0.00000  Uiso   1.00
C17    C     0.11681   0.07986   0.02337   0.00000  Uiso   1.00
C18    C     0.18771   0.31842   0.24121   0.00000  Uiso   1.00
C19    C     0.14562   0.01491   0.25879   0.00000  Uiso   1.00
C20    C     0.16763   0.16720   0.33637   0.00000  Uiso   1.00
C21    C     0.16570   0.16613   0.16363   0.00000  Uiso   1.00
C22    C     0.13857   0.12251   0.09416   0.00000  Uiso   1.00
H23    H     0.20760   0.24080   0.11237   0.00000  Uiso   1.00
H24    H     0.12573   0.09253   0.38763   0.00000  Uiso   1.00
H25    H     0.23606   0.28755   0.45968   0.00000  Uiso   1.00
H26    H     0.09728   0.04578   0.04032   0.00000  Uiso   1.00
H27    H     0.00473   0.12760   0.21611   0.00000  Uiso   1.00
H28    H     0.32860   0.20573   0.28389   0.00000  Uiso   1.00
I29    I     0.10113   0.05751   0.13288   0.00000  Uiso   1.00
I30    I     0.23220   0.27582   0.36712   0.00000  Uiso   1.00
I31    I     0.25131   0.32199   0.05406   0.00000  Uiso   1.00
I32    I     0.08203   0.01135   0.44594   0.00000  Uiso   1.00
I33    I     0.25586   0.00667   0.19101   0.00000  Uiso   1.00
I34    I     0.07747   0.32666   0.30899   0.00000  Uiso   1.00
N35    N     0.31678   0.15265   0.23783   0.00000  Uiso   1.00
N36    N     0.01656   0.18068   0.26217   0.00000  Uiso   1.00
O37    O     0.12975   0.24619   0.25299   0.00000  Uiso   1.00
O38    O     0.20358   0.08714   0.24702   0.00000  Uiso   1.00
O39    O     0.22613   0.23721   0.24519   0.00000  Uiso   1.00
O40    O     0.10720   0.09613   0.25481   0.00000  Uiso   1.00
O41    O     0.11847   0.17117   0.31997   0.00000  Uiso   1.00
O42    O     0.21486   0.16216   0.18003   0.00000  Uiso   1.00
O43    O     0.21485   0.16219   0.31218   0.00000  Uiso   1.00
O44    O     0.11848   0.17115   0.18783   0.00000  Uiso   1.00
Zn45   Zn    0.10231   0.17266   0.25521   0.00000  Uiso   1.00
Zn46   Zn    0.23102   0.16067   0.24479   0.00000  Uiso   1.00
C47    C     0.51494   0.26488   0.24890   0.00000  Uiso   1.00
C48    C     0.52809   0.21082   0.40584   0.00000  Uiso   1.00
C49    C     0.49702   0.16565   0.11615   0.00000  Uiso   1.00
C50    C     0.50298   0.16768   0.38385   0.00000  Uiso   1.00
C51    C     0.52227   0.20867   0.09326   0.00000  Uiso   1.00
C52    C     0.47773   0.12467   0.40674   0.00000  Uiso   1.00
C53    C     0.52336   0.21003   0.04682   0.00000  Uiso   1.00
C54    C     0.47664   0.12330   0.45318   0.00000  Uiso   1.00
C55    C     0.49916   0.16651   0.02350   0.00000  Uiso   1.00
C56    C     0.50084   0.16682   0.47650   0.00000  Uiso   1.00
C57    C     0.47335   0.12264   0.04719   0.00000  Uiso   1.00
C58    C     0.48506   0.06846   0.25110   0.00000  Uiso   1.00
C59    C     0.52665   0.21070   0.45281   0.00000  Uiso   1.00
C60    C     0.54832   0.25358   0.02316   0.00000  Uiso   1.00
C61    C     0.45168   0.07975   0.47684   0.00000  Uiso   1.00
C62    C     0.54986   0.25347   0.47663   0.00000  Uiso   1.00
C63    C     0.45014   0.07986   0.02337   0.00000  Uiso   1.00
C64    C     0.52105   0.31842   0.24121   0.00000  Uiso   1.00
C65    C     0.47895   0.01491   0.25879   0.00000  Uiso   1.00
C66    C     0.50097   0.16720   0.33637   0.00000  Uiso   1.00
C67    C     0.49903   0.16613   0.16363   0.00000  Uiso   1.00
C68    C     0.47191   0.12251   0.09416   0.00000  Uiso   1.00
H69    H     0.54094   0.24080   0.11237   0.00000  Uiso   1.00
H70    H     0.45906   0.09253   0.38763   0.00000  Uiso   1.00
H71    H     0.56939   0.28755   0.45968   0.00000  Uiso   1.00
H72    H     0.43061   0.04578   0.04032   0.00000  Uiso   1.00
H73    H     0.33806   0.12760   0.21611   0.00000  Uiso   1.00
H74    H     0.66194   0.20573   0.28389   0.00000  Uiso   1.00
I75    I     0.43447   0.05751   0.13288   0.00000  Uiso   1.00
I76    I     0.56553   0.27582   0.36712   0.00000  Uiso   1.00
I77    I     0.58464   0.32199   0.05406   0.00000  Uiso   1.00
I78    I     0.41536   0.01135   0.44594   0.00000  Uiso   1.00
I79    I     0.58920   0.00667   0.19101   0.00000  Uiso   1.00
I80    I     0.41080   0.32666   0.30899   0.00000  Uiso   1.00
N81    N     0.65011   0.15265   0.23783   0.00000  Uiso   1.00
N82    N     0.34989   0.18068   0.26217   0.00000  Uiso   1.00
O83    O     0.46308   0.24619   0.25299   0.00000  Uiso   1.00
O84    O     0.53692   0.08714   0.24702   0.00000  Uiso   1.00
O85    O     0.55946   0.23721   0.24519   0.00000  Uiso   1.00
O86    O     0.44054   0.09613   0.25481   0.00000  Uiso   1.00
O87    O     0.45181   0.17117   0.31997   0.00000  Uiso   1.00
O88    O     0.54819   0.16216   0.18003   0.00000  Uiso   1.00
O89    O     0.54819   0.16219   0.31218   0.00000  Uiso   1.00
O90    O     0.45181   0.17115   0.18783   0.00000  Uiso   1.00
Zn91   Zn    0.43565   0.17266   0.25521   0.00000  Uiso   1.00
Zn92   Zn    0.56435   0.16067   0.24479   0.00000  Uiso   1.00
C93    C     0.84827   0.26488   0.24890   0.00000  Uiso   1.00
C94    C     0.86143   0.21082   0.40584   0.00000  Uiso   1.00
C95    C     0.83035   0.16565   0.11615   0.00000  Uiso   1.00
C96    C     0.83631   0.16768   0.38385   0.00000  Uiso   1.00
C97    C     0.85561   0.20867   0.09326   0.00000  Uiso   1.00
C98    C     0.81106   0.12467   0.40674   0.00000  Uiso   1.00
C99    C     0.85670   0.21003   0.04682   0.00000  Uiso   1.00
C100   C     0.80997   0.12330   0.45318   0.00000  Uiso   1.00
C101   C     0.83249   0.16651   0.02350   0.00000  Uiso   1.00
C102   C     0.83418   0.16682   0.47650   0.00000  Uiso   1.00
C103   C     0.80668   0.12264   0.04719   0.00000  Uiso   1.00
C104   C     0.81840   0.06846   0.25110   0.00000  Uiso   1.00
C105   C     0.85998   0.21070   0.45281   0.00000  Uiso   1.00
C106   C     0.88165   0.25358   0.02316   0.00000  Uiso   1.00
C107   C     0.78501   0.07975   0.47684   0.00000  Uiso   1.00
C108   C     0.88319   0.25347   0.47663   0.00000  Uiso   1.00
C109   C     0.78348   0.07986   0.02337   0.00000  Uiso   1.00
C110   C     0.85438   0.31842   0.24121   0.00000  Uiso   1.00
C111   C     0.81229   0.01491   0.25879   0.00000  Uiso   1.00
C112   C     0.83430   0.16720   0.33637   0.00000  Uiso   1.00
C113   C     0.83237   0.16613   0.16363   0.00000  Uiso   1.00
C114   C     0.80524   0.12251   0.09416   0.00000  Uiso   1.00
H115   H     0.87427   0.24080   0.11237   0.00000  Uiso   1.00
H116   H     0.79240   0.09253   0.38763   0.00000  Uiso   1.00
H117   H     0.90272   0.28755   0.45968   0.00000  Uiso   1.00
H118   H     0.76394   0.04578   0.04032   0.00000  Uiso   1.00
H119   H     0.67140   0.12760   0.21611   0.00000  Uiso   1.00
H120   H     0.99527   0.20573   0.28389   0.00000  Uiso   1.00
I121   I     0.76780   0.05751   0.13288   0.00000  Uiso   1.00
I122   I     0.89887   0.27582   0.36712   0.00000  Uiso   1.00
I123   I     0.91797   0.32199   0.05406   0.00000  Uiso   1.00
I124   I     0.74870   0.01135   0.44594   0.00000  Uiso   1.00
I125   I     0.92253   0.00667   0.19101   0.00000  Uiso   1.00
I126   I     0.74414   0.32666   0.30899   0.00000  Uiso   1.00
N127   N     0.98344   0.15265   0.23783   0.00000  Uiso   1.00
N128   N     0.68322   0.18068   0.26217   0.00000  Uiso   1.00
O129   O     0.79642   0.24619   0.25299   0.00000  Uiso   1.00
O130   O     0.87025   0.08714   0.24702   0.00000  Uiso   1.00
O131   O     0.89280   0.23721   0.24519   0.00000  Uiso   1.00
O132   O     0.77387   0.09613   0.25481   0.00000  Uiso   1.00
O133   O     0.78514   0.17117   0.31997   0.00000  Uiso   1.00
O134   O     0.88153   0.16216   0.18003   0.00000  Uiso   1.00
O135   O     0.88152   0.16219   0.31218   0.00000  Uiso   1.00
O136   O     0.78515   0.17115   0.18783   0.00000  Uiso   1.00
Zn137  Zn    0.76898   0.17266   0.25521   0.00000  Uiso   1.00
Zn138  Zn    0.89769   0.16067   0.24479   0.00000  Uiso   1.00
C139   C     0.18161   0.59821   0.24890   0.00000  Uiso   1.00
C140   C     0.19476   0.54416   0.40584   0.00000  Uiso   1.00
C141   C     0.16369   0.49898   0.11615   0.00000  Uiso   1.00
C142   C     0.16965   0.50102   0.38385   0.00000  Uiso   1.00
C143   C     0.18894   0.54200   0.09326   0.00000  Uiso   1.00
C144   C     0.14439   0.45800   0.40674   0.00000  Uiso   1.00
C145   C     0.19003   0.54337   0.04682   0.00000  Uiso   1.00
C146   C     0.14330   0.45663   0.45318   0.00000  Uiso   1.00
C147   C     0.16582   0.49985   0.02350   0.00000  Uiso   1.00
C148   C     0.16751   0.50015   0.47650   0.00000  Uiso   1.00
C149   C     0.14002   0.45597   0.04719   0.00000  Uiso   1.00
C150   C     0.15173   0.40179   0.25110   0.00000  Uiso   1.00
C151   C     0.19332   0.54403   0.45281   0.00000  Uiso   1.00
C152   C     0.21499   0.58691   0.02316   0.00000  Uiso   1.00
C153   C     0.11835   0.41309   0.47684   0.00000  Uiso   1.00
C154   C     0.21652   0.58680   0.47663   0.00000  Uiso   1.00
C155   C     0.11681   0.41320   0.02337   0.00000  Uiso   1.00
C156   C     0.18771   0.65176   0.24121   0.00000  Uiso   1.00
C157   C     0.14562   0.34824   0.25879   0.00000  Uiso   1.00
C158   C     0.16763   0.50053   0.33637   0.00000  Uiso   1.00
C159   C     0.16570   0.49947   0.16363   0.00000  Uiso   1.00
C160   C     0.13857   0.45584   0.09416   0.00000  Uiso   1.00
H161   H     0.20760   0.57413   0.11237   0.00000  Uiso   1.00
H162   H     0.12573   0.42586   0.38763   0.00000  Uiso   1.00
H163   H     0.23606   0.62089   0.45968   0.00000  Uiso   1.00
H164   H     0.09728   0.37911   0.04032   0.00000  Uiso   1.00
H165   H     0.00473   0.46094   0.21611   0.00000  Uiso   1.00
H166   H     0.32860   0.53906   0.28389   0.00000  Uiso   1.00
I167   I     0.10113   0.39085   0.13288   0.00000  Uiso   1.00
I168   I     0.23220   0.60915   0.36712   0.00000  Uiso   1.00
I169   I     0.25131   0.65532   0.05406   0.00000  Uiso   1.00
I170   I     0.08203   0.34468   0.44594   0.00000  Uiso   1.00
I171   I     0.25586   0.34001   0.19101   0.00000  Uiso   1.00
I172   I     0.07747   0.65999   0.30899   0.00000  Uiso   1.00
N173   N     0.31678   0.48598   0.23783   0.00000  Uiso   1.00
N174   N     0.01656   0.51402   0.26217   0.00000  Uiso   1.00
O175   O     0.12975   0.57952   0.25299   0.00000  Uiso   1.00
O176   O     0.20358   0.42048   0.24702   0.00000  Uiso   1.00
O177   O     0.22613   0.57054   0.24519   0.00000  Uiso   1.00
O178   O     0.10720   0.42946   0.25481   0.00000  Uiso   1.00
O179   O     0.11847   0.50450   0.31997   0.00000  Uiso   1.00
O180   O     0.21486   0.49550   0.18003   0.00000  Uiso   1.00
O181   O     0.21485   0.49552   0.31218   0.00000  Uiso   1.00
O182   O     0.11848   0.50448   0.18783   0.00000  Uiso   1.00
Zn183  Zn    0.10231   0.50600   0.25521   0.00000  Uiso   1.00
Zn184  Zn    0.23102   0.49400   0.24479   0.00000  Uiso   1.00
C185   C     0.51494   0.59821   0.24890   0.00000  Uiso   1.00
C186   C     0.52809   0.54416   0.40584   0.00000  Uiso   1.00
C187   C     0.49702   0.49898   0.11615   0.00000  Uiso   1.00
C188   C     0.50298   0.50102   0.38385   0.00000  Uiso   1.00
C189   C     0.52227   0.54200   0.09326   0.00000  Uiso   1.00
C190   C     0.47773   0.45800   0.40674   0.00000  Uiso   1.00
C191   C     0.52336   0.54337   0.04682   0.00000  Uiso   1.00
C192   C     0.47664   0.45663   0.45318   0.00000  Uiso   1.00
C193   C     0.49916   0.49985   0.02350   0.00000  Uiso   1.00
C194   C     0.50084   0.50015   0.47650   0.00000  Uiso   1.00
C195   C     0.47335   0.45597   0.04719   0.00000  Uiso   1.00
C196   C     0.48506   0.40179   0.25110   0.00000  Uiso   1.00
C197   C     0.52665   0.54403   0.45281   0.00000  Uiso   1.00
C198   C     0.54832   0.58691   0.02316   0.00000  Uiso   1.00
C199   C     0.45168   0.41309   0.47684   0.00000  Uiso   1.00
C200   C     0.54986   0.58680   0.47663   0.00000  Uiso   1.00
C201   C     0.45014   0.41320   0.02337   0.00000  Uiso   1.00
C202   C     0.52105   0.65176   0.24121   0.00000  Uiso   1.00
C203   C     0.47895   0.34824   0.25879   0.00000  Uiso   1.00
C204   C     0.50097   0.50053   0.33637   0.00000  Uiso   1.00
C205   C     0.49903   0.49947   0.16363   0.00000  Uiso   1.00
C206   C     0.47191   0.45584   0.09416   0.00000  Uiso   1.00
H207   H     0.54094   0.57413   0.11237   0.00000  Uiso   1.00
H208   H     0.45906   0.42586   0.38763   0.00000  Uiso   1.00
H209   H     0.56939   0.62089   0.45968   0.00000  Uiso   1.00
H210   H     0.43061   0.37911   0.04032   0.00000  Uiso   1.00
H211   H     0.33806   0.46094   0.21611   0.00000  Uiso   1.00
H212   H     0.66194   0.53906   0.28389   0.00000  Uiso   1.00
I213   I     0.43447   0.39085   0.13288   0.00000  Uiso   1.00
I214   I     0.56553   0.60915   0.36712   0.00000  Uiso   1.00
I215   I     0.58464   0.65532   0.05406   0.00000  Uiso   1.00
I216   I     0.41536   0.34468   0.44594   0.00000  Uiso   1.00
I217   I     0.58920   0.34001   0.19101   0.00000  Uiso   1.00
I218   I     0.41080   0.65999   0.30899   0.00000  Uiso   1.00
N219   N     0.65011   0.48598   0.23783   0.00000  Uiso   1.00
N220   N     0.34989   0.51402   0.26217   0.00000  Uiso   1.00
O221   O     0.46308   0.57952   0.25299   0.00000  Uiso   1.00
O222   O     0.53692   0.42048   0.24702   0.00000  Uiso   1.00
O223   O     0.55946   0.57054   0.24519   0.00000  Uiso   1.00
O224   O     0.44054   0.42946   0.25481   0.00000  Uiso   1.00
O225   O     0.45181   0.50450   0.31997   0.00000  Uiso   1.00
O226   O     0.54819   0.49550   0.18003   0.00000  Uiso   1.00
O227   O     0.54819   0.49552   0.31218   0.00000  Uiso   1.00
O228   O     0.45181   0.50448   0.18783   0.00000  Uiso   1.00
Zn229  Zn    0.43565   0.50600   0.25521   0.00000  Uiso   1.00
Zn230  Zn    0.56435   0.49400   0.24479   0.00000  Uiso   1.00
C231   C     0.84827   0.59821   0.24890   0.00000  Uiso   1.00
C232   C     0.86143   0.54416   0.40584   0.00000  Uiso   1.00
C233   C     0.83035   0.49898   0.11615   0.00000  Uiso   1.00
C234   C     0.83631   0.50102   0.38385   0.00000  Uiso   1.00
C235   C     0.85561   0.54200   0.09326   0.00000  Uiso   1.00
C236   C     0.81106   0.45800   0.40674   0.00000  Uiso   1.00
C237   C     0.85670   0.54337   0.04682   0.00000  Uiso   1.00
C238   C     0.80997   0.45663   0.45318   0.00000  Uiso   1.00
C239   C     0.83249   0.49985   0.02350   0.00000  Uiso   1.00
C240   C     0.83418   0.50015   0.47650   0.00000  Uiso   1.00
C241   C     0.80668   0.45597   0.04719   0.00000  Uiso   1.00
C242   C     0.81840   0.40179   0.25110   0.00000  Uiso   1.00
C243   C     0.85998   0.54403   0.45281   0.00000  Uiso   1.00
C244   C     0.88165   0.58691   0.02316   0.00000  Uiso   1.00
C245   C     0.78501   0.41309   0.47684   0.00000  Uiso   1.00
C246   C     0.88319   0.58680   0.47663   0.00000  Uiso   1.00
C247   C     0.78348   0.41320   0.02337   0.00000  Uiso   1.00
C248   C     0.85438   0.65176   0.24121   0.00000  Uiso   1.00
C249   C     0.81229   0.34824   0.25879   0.00000  Uiso   1.00
C250   C     0.83430   0.50053   0.33637   0.00000  Uiso   1.00
C251   C     0.83237   0.49947   0.16363   0.00000  Uiso   1.00
C252   C     0.80524   0.45584   0.09416   0.00000  Uiso   1.00
H253   H     0.87427   0.57413   0.11237   0.00000  Uiso   1.00
H254   H     0.79240   0.42586   0.38763   0.00000  Uiso   1.00
H255   H     0.90272   0.62089   0.45968   0.00000  Uiso   1.00
H256   H     0.76394   0.37911   0.04032   0.00000  Uiso   1.00
H257   H     0.67140   0.46094   0.21611   0.00000  Uiso   1.00
H258   H     0.99527   0.53906   0.28389   0.00000  Uiso   1.00
I259   I     0.76780   0.39085   0.13288   0.00000  Uiso   1.00
I260   I     0.89887   0.60915   0.36712   0.00000  Uiso   1.00
I261   I     0.91797   0.65532   0.05406   0.00000  Uiso   1.00
I262   I     0.74870   0.34468   0.44594   0.00000  Uiso   1.00
I263   I     0.92253   0.34001   0.19101   0.00000  Uiso   1.00
I264   I     0.74414   0.65999   0.30899   0.00000  Uiso   1.00
N265   N     0.98344   0.48598   0.23783   0.00000  Uiso   1.00
N266   N     0.68322   0.51402   0.26217   0.00000  Uiso   1.00
O267   O     0.79642   0.57952   0.25299   0.00000  Uiso   1.00
O268   O     0.87025   0.42048   0.24702   0.00000  Uiso   1.00
O269   O     0.89280   0.57054   0.24519   0.00000  Uiso   1.00
O270   O     0.77387   0.42946   0.25481   0.00000  Uiso   1.00
O271   O     0.78514   0.50450   0.31997   0.00000  Uiso   1.00
O272   O     0.88153   0.49550   0.18003   0.00000  Uiso   1.00
O273   O     0.88152   0.49552   0.31218   0.00000  Uiso   1.00
O274   O     0.78515   0.50448   0.18783   0.00000  Uiso   1.00
Zn275  Zn    0.76898   0.50600   0.25521   0.00000  Uiso   1.00
Zn276  Zn    0.89769   0.49400   0.24479   0.00000  Uiso   1.00
C277   C     0.18161   0.93154   0.24890   0.00000  Uiso   1.00
C278   C     0.19476   0.87749   0.40584   0.00000  Uiso   1.00
C279   C     0.16369   0.83231   0.11615   0.00000  Uiso   1.00
C280   C     0.16965   0.83435   0.38385   0.00000  Uiso   1.00
C281   C     0.18894   0.87533   0.09326   0.00000  Uiso   1.00
C282   C     0.14439   0.79133   0.40674   0.00000  Uiso   1.00
C283   C     0.19003   0.87670   0.04682   0.00000  Uiso   1.00
C284   C     0.14330   0.78997   0.45318   0.00000  Uiso   1.00
C285   C     0.16582   0.83318   0.02350   0.00000  Uiso   1.00
C286   C     0.16751   0.83349   0.47650   0.00000  Uiso   1.00
C287   C     0.14002   0.78930   0.04719   0.00000  Uiso   1.00
C288   C     0.15173   0.73512   0.25110   0.00000  Uiso   1.00
C289   C     0.19332   0.87736   0.45281   0.00000  Uiso   1.00
C290   C     0.21499   0.92025   0.02316   0.00000  Uiso   1.00
C291   C     0.11835   0.74642   0.47684   0.00000  Uiso   1.00
C292   C     0.21652   0.92014   0.47663   0.00000  Uiso   1.00
C293   C     0.11681   0.74653   0.02337   0.00000  Uiso   1.00
C294   C     0.18771   0.98509   0.24121   0.00000  Uiso   1.00
C295   C     0.14562   0.68158   0.25879   0.00000  Uiso   1.00
C296   C     0.16763   0.83387   0.33637   0.00000  Uiso   1.00
C297   C     0.16570   0.83280   0.16363   0.00000  Uiso   1.00
C298   C     0.13857   0.78918   0.09416   0.00000  Uiso   1.00
H299   H     0.20760   0.90747   0.11237   0.00000  Uiso   1.00
H300   H     0.12573   0.75920   0.38763   0.00000  Uiso   1.00
H301   H     0.23606   0.95422   0.45968   0.00000  Uiso   1.00
H302   H     0.09728   0.71245   0.04032   0.00000  Uiso   1.00
H303   H     0.00473   0.79427   0.21611   0.00000  Uiso   1.00
H304   H     0.32860   0.87240   0.28389   0.00000  Uiso   1.00
I305   I     0.10113   0.72418   0.13288   0.00000  Uiso   1.00
I306   I     0.23220   0.94249   0.36712   0.00000  Uiso   1.00
I307   I     0.25131   0.98865   0.05406   0.00000  Uiso   1.00
I308   I     0.08203   0.67801   0.44594   0.00000  Uiso   1.00
I309   I     0.25586   0.67334   0.19101   0.00000  Uiso   1.00
I310   I     0.07747   0.99333   0.30899   0.00000  Uiso   1.00
N311   N     0.31678   0.81932   0.23783   0.00000  Uiso   1.00
N312   N     0.01656   0.84735   0.26217   0.00000  Uiso   1.00
O313   O     0.12975   0.91286   0.25299   0.00000  Uiso   1.00
O314   O     0.20358   0.75381   0.24702   0.00000  Uiso   1.00
O315   O     0.22613   0.90387   0.24519   0.00000  Uiso   1.00
O316   O     0.10720   0.76279   0.25481   0.00000  Uiso   1.00
O317   O     0.11847   0.83784   0.31997   0.00000  Uiso   1.00
O318   O     0.21486   0.82883   0.18003   0.00000  Uiso   1.00
O319   O     0.21485   0.82885   0.31218   0.00000  Uiso   1.00
O320   O     0.11848   0.83781   0.18783   0.00000  Uiso   1.00
Zn321  Zn    0.10231   0.83933   0.25521   0.00000  Uiso   1.00
Zn322  Zn    0.23102   0.82734   0.24479   0.00000  Uiso   1.00
C323   C     0.51494   0.93154   0.24890   0.00000  Uiso   1.00
C324   C     0.52809   0.87749   0.40584   0.00000  Uiso   1.00
C325   C     0.49702   0.83231   0.11615   0.00000  Uiso   1.00
C326   C     0.50298   0.83435   0.38385   0.00000  Uiso   1.00
C327   C     0.52227   0.87533   0.09326   0.00000  Uiso   1.00
C328   C     0.47773   0.79133   0.40674   0.00000  Uiso   1.00
C329   C     0.52336   0.87670   0.04682   0.00000  Uiso   1.00
C330   C     0.47664   0.78997   0.45318   0.00000  Uiso   1.00
C331   C     0.49916   0.83318   0.02350   0.00000  Uiso   1.00
C332   C     0.50084   0.83349   0.47650   0.00000  Uiso   1.00
C333   C     0.47335   0.78930   0.04719   0.00000  Uiso   1.00
C334   C     0.48506   0.73512   0.25110   0.00000  Uiso   1.00
C335   C     0.52665   0.87736   0.45281   0.00000  Uiso   1.00
C336   C     0.54832   0.92025   0.02316   0.00000  Uiso   1.00
C337   C     0.45168   0.74642   0.47684   0.00000  Uiso   1.00
C338   C     0.54986   0.92014   0.47663   0.00000  Uiso   1.00
C339   C     0.45014   0.74653   0.02337   0.00000  Uiso   1.00
C340   C     0.52105   0.98509   0.24121   0.00000  Uiso   1.00
C341   C     0.47895   0.68158   0.25879   0.00000  Uiso   1.00
C342   C     0.50097   0.83387   0.33637   0.00000  Uiso   1.00
C343   C     0.49903   0.83280   0.16363   0.00000  Uiso   1.00
C344   C     0.47191   0.78918   0.09416   0.00000  Uiso   1.00
H345   H     0.54094   0.90747   0.11237   0.00000  Uiso   1.00
H346   H     0.45906   0.75920   0.38763   0.00000  Uiso   1.00
H347   H     0.56939   0.95422   0.45968   0.00000  Uiso   1.00
H348   H     0.43061   0.71245   0.04032   0.00000  Uiso   1.00
H349   H     0.33806   0.79427   0.21611   0.00000  Uiso   1.00
H350   H     0.66194   0.87240   0.28389   0.00000  Uiso   1.00
I351   I     0.43447   0.72418   0.13288   0.00000  Uiso   1.00
I352   I     0.56553   0.94249   0.36712   0.00000  Uiso   1.00
I353   I     0.58464   0.98865   0.05406   0.00000  Uiso   1.00
I354   I     0.41536   0.67801   0.44594   0.00000  Uiso   1.00
I355   I     0.58920   0.67334   0.19101   0.00000  Uiso   1.00
I356   I     0.41080   0.99333   0.30899   0.00000  Uiso   1.00
N357   N     0.65011   0.81932   0.23783   0.00000  Uiso   1.00
N358   N     0.34989   0.84735   0.26217   0.00000  Uiso   1.00
O359   O     0.46308   0.91286   0.25299   0.00000  Uiso   1.00
O360   O     0.53692   0.75381   0.24702   0.00000  Uiso   1.00
O361   O     0.55946   0.90387   0.24519   0.00000  Uiso   1.00
O362   O     0.44054   0.76279   0.25481   0.00000  Uiso   1.00
O363   O     0.45181   0.83784   0.31997   0.00000  Uiso   1.00
O364   O     0.54819   0.82883   0.18003   0.00000  Uiso   1.00
O365   O     0.54819   0.82885   0.31218   0.00000  Uiso   1.00
O366   O     0.45181   0.83781   0.18783   0.00000  Uiso   1.00
Zn367  Zn    0.43565   0.83933   0.25521   0.00000  Uiso   1.00
Zn368  Zn    0.56435   0.82734   0.24479   0.00000  Uiso   1.00
C369   C     0.84827   0.93154   0.24890   0.00000  Uiso   1.00
C370   C     0.86143   0.87749   0.40584   0.00000  Uiso   1.00
C371   C     0.83035   0.83231   0.11615   0.00000  Uiso   1.00
C372   C     0.83631   0.83435   0.38385   0.00000  Uiso   1.00
C373   C     0.85561   0.87533   0.09326   0.00000  Uiso   1.00
C374   C     0.81106   0.79133   0.40674   0.00000  Uiso   1.00
C375   C     0.85670   0.87670   0.04682   0.00000  Uiso   1.00
C376   C     0.80997   0.78997   0.45318   0.00000  Uiso   1.00
C377   C     0.83249   0.83318   0.02350   0.00000  Uiso   1.00
C378   C     0.83418   0.83349   0.47650   0.00000  Uiso   1.00
C379   C     0.80668   0.78930   0.04719   0.00000  Uiso   1.00
C380   C     0.81840   0.73512   0.25110   0.00000  Uiso   1.00
C381   C     0.85998   0.87736   0.45281   0.00000  Uiso   1.00
C382   C     0.88165   0.92025   0.02316   0.00000  Uiso   1.00
C383   C     0.78501   0.74642   0.47684   0.00000  Uiso   1.00
C384   C     0.88319   0.92014   0.47663   0.00000  Uiso   1.00
C385   C     0.78348   0.74653   0.02337   0.00000  Uiso   1.00
C386   C     0.85438   0.98509   0.24121   0.00000  Uiso   1.00
C387   C     0.81229   0.68158   0.25879   0.00000  Uiso   1.00
C388   C     0.83430   0.83387   0.33637   0.00000  Uiso   1.00
C389   C     0.83237   0.83280   0.16363   0.00000  Uiso   1.00
C390   C     0.80524   0.78918   0.09416   0.00000  Uiso   1.00
H391   H     0.87427   0.90747   0.11237   0.00000  Uiso   1.00
H392   H     0.79240   0.75920   0.38763   0.00000  Uiso   1.00
H393   H     0.90272   0.95422   0.45968   0.00000  Uiso   1.00
H394   H     0.76394   0.71245   0.04032   0.00000  Uiso   1.00
H395   H     0.67140   0.79427   0.21611   0.00000  Uiso   1.00
H396   H     0.99527   0.87240   0.28389   0.00000  Uiso   1.00
I397   I     0.76780   0.72418   0.13288   0.00000  Uiso   1.00
I398   I     0.89887   0.94249   0.36712   0.00000  Uiso   1.00
I399   I     0.91797   0.98865   0.05406   0.00000  Uiso   1.00
I400   I     0.74870   0.67801   0.44594   0.00000  Uiso   1.00
I401   I     0.92253   0.67334   0.19101   0.00000  Uiso   1.00
I402   I     0.74414   0.99333   0.30899   0.00000  Uiso   1.00
N403   N     0.98344   0.81932   0.23783   0.00000  Uiso   1.00
N404   N     0.68322   0.84735   0.26217   0.00000  Uiso   1.00
O405   O     0.79642   0.91286   0.25299   0.00000  Uiso   1.00
O406   O     0.87025   0.75381   0.24702   0.00000  Uiso   1.00
O407   O     0.89280   0.90387   0.24519   0.00000  Uiso   1.00
O408   O     0.77387   0.76279   0.25481   0.00000  Uiso   1.00
O409   O     0.78514   0.83784   0.31997   0.00000  Uiso   1.00
O410   O     0.88153   0.82883   0.18003   0.00000  Uiso   1.00
O411   O     0.88152   0.82885   0.31218   0.00000  Uiso   1.00
O412   O     0.78515   0.83781   0.18783   0.00000  Uiso   1.00
Zn413  Zn    0.76898   0.83933   0.25521   0.00000  Uiso   1.00
Zn414  Zn    0.89769   0.82734   0.24479   0.00000  Uiso   1.00
C415   C     0.18161   0.26488   0.74890   0.00000  Uiso   1.00
C416   C     0.19476   0.21082   0.90584   0.00000  Uiso   1.00
C417   C     0.16369   0.16565   0.61615   0.00000  Uiso   1.00
C418   C     0.16965   0.16768   0.88385   0.00000  Uiso   1.00
C419   C     0.18894   0.20867   0.59326   0.00000  Uiso   1.00
C420   C     0.14439   0.12467   0.90674   0.00000  Uiso   1.00
C421   C     0.19003   0.21003   0.54682   0.00000  Uiso   1.00
C422   C     0.14330   0.12330   0.95318   0.00000  Uiso   1.00
C423   C     0.16582   0.16651   0.52350   0.00000  Uiso   1.00
C424   C     0.16751   0.16682   0.97650   0.00000  Uiso   1.00
C425   C     0.14002   0.12264   0.54719   0.00000  Uiso   1.00
C426   C     0.15173   0.06846   0.75110   0.00000  Uiso   1.00
C427   C     0.19332   0.21070   0.95281   0.00000  Uiso   1.00
C428   C     0.21499   0.25358   0.52316   0.00000  Uiso   1.00
C429   C     0.11835   0.07975   0.97684   0.00000  Uiso   1.00
C430   C     0.21652   0.25347   0.97663   0.00000  Uiso   1.00
C431   C     0.11681   0.07986   0.52337   0.00000  Uiso   1.00
C432   C     0.18771   0.31842   0.74121   0.00000  Uiso   1.00
C433   C     0.14562   0.01491   0.75879   0.00000  Uiso   1.00
C434   C     0.16763   0.16720   0.83637   0.00000  Uiso   1.00
C435   C     0.16570   0.16613   0.66363   0.00000  Uiso   1.00
C436   C     0.13857   0.12251   0.59416   0.00000  Uiso   1.00
H437   H     0.20760   0.24080   0.61237   0.00000  Uiso   1.00
H438   H     0.12573   0.09253   0.88763   0.00000  Uiso   1.00
H439   H     0.23606   0.28755   0.95968   0.00000  Uiso   1.00
H440   H     0.09728   0.04578   0.54032   0.00000  Uiso   1.00
H441   H     0.00473   0.12760   0.71611   0.00000  Uiso   1.00
H442   H     0.32860   0.20573   0.78389   0.00000  Uiso   1.00
I443   I     0.10113   0.05751   0.63288   0.00000  Uiso   1.00
I444   I     0.23220   0.27582   0.86712   0.00000  Uiso   1.00
I445   I     0.25131   0.32199   0.55406   0.00000  Uiso   1.00
I446   I     0.08203   0.01135   0.94594   0.00000  Uiso   1.00
I447   I     0.25586   0.00667   0.69101   0.00000  Uiso   1.00
I448   I     0.07747   0.32666   0.80899   0.00000  Uiso   1.00
N449   N     0.31678   0.15265   0.73783   0.00000  Uiso   1.00
N450   N     0.01656   0.18068   0.76217   0.00000  Uiso   1.00
O451   O     0.12975   0.24619   0.75299   0.00000  Uiso   1.00
O452   O     0.20358   0.08714   0.74702   0.00000  Uiso   1.00
O453   O     0.22613   0.23721   0.74519   0.00000  Uiso   1.00
O454   O     0.10720   0.09613   0.75481   0.00000  Uiso   1.00
O455   O     0.11847   0.17117   0.81997   0.00000  Uiso   1.00
O456   O     0.21486   0.16216   0.68003   0.00000  Uiso   1.00
O457   O     0.21485   0.16219   0.81218   0.00000  Uiso   1.00
O458   O     0.11848   0.17115   0.68783   0.00000  Uiso   1.00
Zn459  Zn    0.10231   0.17266   0.75521   0.00000  Uiso   1.00
Zn460  Zn    0.23102   0.16067   0.74479   0.00000  Uiso   1.00
C461   C     0.51494   0.26488   0.74890   0.00000  Uiso   1.00
C462   C     0.52809   0.21082   0.90584   0.00000  Uiso   1.00
C463   C     0.49702   0.16565   0.61615   0.00000  Uiso   1.00
C464   C     0.50298   0.16768   0.88385   0.00000  Uiso   1.00
C465   C     0.52227   0.20867   0.59326   0.00000  Uiso   1.00
C466   C     0.47773   0.12467   0.90674   0.00000  Uiso   1.00
C467   C     0.52336   0.21003   0.54682   0.00000  Uiso   1.00
C468   C     0.47664   0.12330   0.95318   0.00000  Uiso   1.00
C469   C     0.49916   0.16651   0.52350   0.00000  Uiso   1.00
C470   C     0.50084   0.16682   0.97650   0.00000  Uiso   1.00
C471   C     0.47335   0.12264   0.54719   0.00000  Uiso   1.00
C472   C     0.48506   0.06846   0.75110   0.00000  Uiso   1.00
C473   C     0.52665   0.21070   0.95281   0.00000  Uiso   1.00
C474   C     0.54832   0.25358   0.52316   0.00000  Uiso   1.00
C475   C     0.45168   0.07975   0.97684   0.00000  Uiso   1.00
C476   C     0.54986   0.25347   0.97663   0.00000  Uiso   1.00
C477   C     0.45014   0.07986   0.52337   0.00000  Uiso   1.00
C478   C     0.52105   0.31842   0.74121   0.00000  Uiso   1.00
C479   C     0.47895   0.01491   0.75879   0.00000  Uiso   1.00
C480   C     0.50097   0.16720   0.83637   0.00000  Uiso   1.00
C481   C     0.49903   0.16613   0.66363   0.00000  Uiso   1.00
C482   C     0.47191   0.12251   0.59416   0.00000  Uiso   1.00
H483   H     0.54094   0.24080   0.61237   0.00000  Uiso   1.00
H484   H     0.45906   0.09253   0.88763   0.00000  Uiso   1.00
H485   H     0.56939   0.28755   0.95968   0.00000  Uiso   1.00
H486   H     0.43061   0.04578   0.54032   0.00000  Uiso   1.00
H487   H     0.33806   0.12760   0.71611   0.00000  Uiso   1.00
H488   H     0.66194   0.20573   0.78389   0.00000  Uiso   1.00
I489   I     0.43447   0.05751   0.63288   0.00000  Uiso   1.00
I490   I     0.56553   0.27582   0.86712   0.00000  Uiso   1.00
I491   I     0.58464   0.32199   0.55406   0.00000  Uiso   1.00
I492   I     0.41536   0.01135   0.94594   0.00000  Uiso   1.00
I493   I     0.58920   0.00667   0.69101   0.00000  Uiso   1.00
I494   I     0.41080   0.32666   0.80899   0.00000  Uiso   1.00
N495   N     0.65011   0.15265   0.73783   0.00000  Uiso   1.00
N496   N     0.34989   0.18068   0.76217   0.00000  Uiso   1.00
O497   O     0.46308   0.24619   0.75299   0.00000  Uiso   1.00
O498   O     0.53692   0.08714   0.74702   0.00000  Uiso   1.00
O499   O     0.55946   0.23721   0.74519   0.00000  Uiso   1.00
O500   O     0.44054   0.09613   0.75481   0.00000  Uiso   1.00
O501   O     0.45181   0.17117   0.81997   0.00000  Uiso   1.00
O502   O     0.54819   0.16216   0.68003   0.00000  Uiso   1.00
O503   O     0.54819   0.16219   0.81218   0.00000  Uiso   1.00
O504   O     0.45181   0.17115   0.68783   0.00000  Uiso   1.00
Zn505  Zn    0.43565   0.17266   0.75521   0.00000  Uiso   1.00
Zn506  Zn    0.56435   0.16067   0.74479   0.00000  Uiso   1.00
C507   C     0.84827   0.26488   0.74890   0.00000  Uiso   1.00
C508   C     0.86143   0.21082   0.90584   0.00000  Uiso   1.00
C509   C     0.83035   0.16565   0.61615   0.00000  Uiso   1.00
C510   C     0.83631   0.16768   0.88385   0.00000  Uiso   1.00
C511   C     0.85561   0.20867   0.59326   0.00000  Uiso   1.00
C512   C     0.81106   0.12467   0.90674   0.00000  Uiso   1.00
C513   C     0.85670   0.21003   0.54682   0.00000  Uiso   1.00
C514   C     0.80997   0.12330   0.95318   0.00000  Uiso   1.00
C515   C     0.83249   0.16651   0.52350   0.00000  Uiso   1.00
C516   C     0.83418   0.16682   0.97650   0.00000  Uiso   1.00
C517   C     0.80668   0.12264   0.54719   0.00000  Uiso   1.00
C518   C     0.81840   0.06846   0.75110   0.00000  Uiso   1.00
C519   C     0.85998   0.21070   0.95281   0.00000  Uiso   1.00
C520   C     0.88165   0.25358   0.52316   0.00000  Uiso   1.00
C521   C     0.78501   0.07975   0.97684   0.00000  Uiso   1.00
C522   C     0.88319   0.25347   0.97663   0.00000  Uiso   1.00
C523   C     0.78348   0.07986   0.52337   0.00000  Uiso   1.00
C524   C     0.85438   0.31842   0.74121   0.00000  Uiso   1.00
C525   C     0.81229   0.01491   0.75879   0.00000  Uiso   1.00
C526   C     0.83430   0.16720   0.83637   0.00000  Uiso   1.00
C527   C     0.83237   0.16613   0.66363   0.00000  Uiso   1.00
C528   C     0.80524   0.12251   0.59416   0.00000  Uiso   1.00
H529   H     0.87427   0.24080   0.61237   0.00000  Uiso   1.00
H530   H     0.79240   0.09253   0.88763   0.00000  Uiso   1.00
H531   H     0.90272   0.28755   0.95968   0.00000  Uiso   1.00
H532   H     0.76394   0.04578   0.54032   0.00000  Uiso   1.00
H533   H     0.67140   0.12760   0.71611   0.00000  Uiso   1.00
H534   H     0.99527   0.20573   0.78389   0.00000  Uiso   1.00
I535   I     0.76780   0.05751   0.63288   0.00000  Uiso   1.00
I536   I     0.89887   0.27582   0.86712   0.00000  Uiso   1.00
I537   I     0.91797   0.32199   0.55406   0.00000  Uiso   1.00
I538   I     0.74870   0.01135   0.94594   0.00000  Uiso   1.00
I539   I     0.92253   0.00667   0.69101   0.00000  Uiso   1.00
I540   I     0.74414   0.32666   0.80899   0.00000  Uiso   1.00
N541   N     0.98344   0.15265   0.73783   0.00000  Uiso   1.00
N542   N     0.68322   0.18068   0.76217   0.00000  Uiso   1.00
O543   O     0.79642   0.24619   0.75299   0.00000  Uiso   1.00
O544   O     0.87025   0.08714   0.74702   0.00000  Uiso   1.00
O545   O     0.89280   0.23721   0.74519   0.00000  Uiso   1.00
O546   O     0.77387   0.09613   0.75481   0.00000  Uiso   1.00
O547   O     0.78514   0.17117   0.81997   0.00000  Uiso   1.00
O548   O     0.88153   0.16216   0.68003   0.00000  Uiso   1.00
O549   O     0.88152   0.16219   0.81218   0.00000  Uiso   1.00
O550   O     0.78515   0.17115   0.68783   0.00000  Uiso   1.00
Zn551  Zn    0.76898   0.17266   0.75521   0.00000  Uiso   1.00
Zn552  Zn    0.89769   0.16067   0.74479   0.00000  Uiso   1.00
C553   C     0.18161   0.59821   0.74890   0.00000  Uiso   1.00
C554   C     0.19476   0.54416   0.90584   0.00000  Uiso   1.00
C555   C     0.16369   0.49898   0.61615   0.00000  Uiso   1.00
C556   C     0.16965   0.50102   0.88385   0.00000  Uiso   1.00
C557   C     0.18894   0.54200   0.59326   0.00000  Uiso   1.00
C558   C     0.14439   0.45800   0.90674   0.00000  Uiso   1.00
C559   C     0.19003   0.54337   0.54682   0.00000  Uiso   1.00
C560   C     0.14330   0.45663   0.95318   0.00000  Uiso   1.00
C561   C     0.16582   0.49985   0.52350   0.00000  Uiso   1.00
C562   C     0.16751   0.50015   0.97650   0.00000  Uiso   1.00
C563   C     0.14002   0.45597   0.54719   0.00000  Uiso   1.00
C564   C     0.15173   0.40179   0.75110   0.00000  Uiso   1.00
C565   C     0.19332   0.54403   0.95281   0.00000  Uiso   1.00
C566   C     0.21499   0.58691   0.52316   0.00000  Uiso   1.00
C567   C     0.11835   0.41309   0.97684   0.00000  Uiso   1.00
C568   C     0.21652   0.58680   0.97663   0.00000  Uiso   1.00
C569   C     0.11681   0.41320   0.52337   0.00000  Uiso   1.00
C570   C     0.18771   0.65176   0.74121   0.00000  Uiso   1.00
C571   C     0.14562   0.34824   0.75879   0.00000  Uiso   1.00
C572   C     0.16763   0.50053   0.83637   0.00000  Uiso   1.00
C573   C     0.16570   0.49947   0.66363   0.00000  Uiso   1.00
C574   C     0.13857   0.45584   0.59416   0.00000  Uiso   1.00
H575   H     0.20760   0.57413   0.61237   0.00000  Uiso   1.00
H576   H     0.12573   0.42586   0.88763   0.00000  Uiso   1.00
H577   H     0.23606   0.62089   0.95968   0.00000  Uiso   1.00
H578   H     0.09728   0.37911   0.54032   0.00000  Uiso   1.00
H579   H     0.00473   0.46094   0.71611   0.00000  Uiso   1.00
H580   H     0.32860   0.53906   0.78389   0.00000  Uiso   1.00
I581   I     0.10113   0.39085   0.63288   0.00000  Uiso   1.00
I582   I     0.23220   0.60915   0.86712   0.00000  Uiso   1.00
I583   I     0.25131   0.65532   0.55406   0.00000  Uiso   1.00
I584   I     0.08203   0.34468   0.94594   0.00000  Uiso   1.00
I585   I     0.25586   0.34001   0.69101   0.00000  Uiso   1.00
I586   I     0.07747   0.65999   0.80899   0.00000  Uiso   1.00
N587   N     0.31678   0.48598   0.73783   0.00000  Uiso   1.00
N588   N     0.01656   0.51402   0.76217   0.00000  Uiso   1.00
O589   O     0.12975   0.57952   0.75299   0.00000  Uiso   1.00
O590   O     0.20358   0.42048   0.74702   0.00000  Uiso   1.00
O591   O     0.22613   0.57054   0.74519   0.00000  Uiso   1.00
O592   O     0.10720   0.42946   0.75481   0.00000  Uiso   1.00
O593   O     0.11847   0.50450   0.81997   0.00000  Uiso   1.00
O594   O     0.21486   0.49550   0.68003   0.00000  Uiso   1.00
O595   O     0.21485   0.49552   0.81218   0.00000  Uiso   1.00
O596   O     0.11848   0.50448   0.68783   0.00000  Uiso   1.00
Zn597  Zn    0.10231   0.50600   0.75521   0.00000  Uiso   1.00
Zn598  Zn    0.23102   0.49400   0.74479   0.00000  Uiso   1.00
C599   C     0.51494   0.59821   0.74890   0.00000  Uiso   1.00
C600   C     0.52809   0.54416   0.90584   0.00000  Uiso   1.00
C601   C     0.49702   0.49898   0.61615   0.00000  Uiso   1.00
C602   C     0.50298   0.50102   0.88385   0.00000  Uiso   1.00
C603   C     0.52227   0.54200   0.59326   0.00000  Uiso   1.00
C604   C     0.47773   0.45800   0.90674   0.00000  Uiso   1.00
C605   C     0.52336   0.54337   0.54682   0.00000  Uiso   1.00
C606   C     0.47664   0.45663   0.95318   0.00000  Uiso   1.00
C607   C     0.49916   0.49985   0.52350   0.00000  Uiso   1.00
C608   C     0.50084   0.50015   0.97650   0.00000  Uiso   1.00
C609   C     0.47335   0.45597   0.54719   0.00000  Uiso   1.00
C610   C     0.48506   0.40179   0.75110   0.00000  Uiso   1.00
C611   C     0.52665   0.54403   0.95281   0.00000  Uiso   1.00
C612   C     0.54832   0.58691   0.52316   0.00000  Uiso   1.00
C613   C     0.45168   0.41309   0.97684   0.00000  Uiso   1.00
C614   C     0.54986   0.58680   0.97663   0.00000  Uiso   1.00
C615   C     0.45014   0.41320   0.52337   0.00000  Uiso   1.00
C616   C     0.52105   0.65176   0.74121   0.00000  Uiso   1.00
C617   C     0.47895   0.34824   0.75879   0.00000  Uiso   1.00
C618   C     0.50097   0.50053   0.83637   0.00000  Uiso   1.00
C619   C     0.49903   0.49947   0.66363   0.00000  Uiso   1.00
C620   C     0.47191   0.45584   0.59416   0.00000  Uiso   1.00
H621   H     0.54094   0.57413   0.61237   0.00000  Uiso   1.00
H622   H     0.45906   0.42586   0.88763   0.00000  Uiso   1.00
H623   H     0.56939   0.62089   0.95968   0.00000  Uiso   1.00
H624   H     0.43061   0.37911   0.54032   0.00000  Uiso   1.00
H625   H     0.33806   0.46094   0.71611   0.00000  Uiso   1.00
H626   H     0.66194   0.53906   0.78389   0.00000  Uiso   1.00
I627   I     0.43447   0.39085   0.63288   0.00000  Uiso   1.00
I628   I     0.56553   0.60915   0.86712   0.00000  Uiso   1.00
I629   I     0.58464   0.65532   0.55406   0.00000  Uiso   1.00
I630   I     0.41536   0.34468   0.94594   0.00000  Uiso   1.00
I631   I     0.58920   0.34001   0.69101   0.00000  Uiso   1.00
I632   I     0.41080   0.65999   0.80899   0.00000  Uiso   1.00
N633   N     0.65011   0.48598   0.73783   0.00000  Uiso   1.00
N634   N     0.34989   0.51402   0.76217   0.00000  Uiso   1.00
O635   O     0.46308   0.57952   0.75299   0.00000  Uiso   1.00
O636   O     0.53692   0.42048   0.74702   0.00000  Uiso   1.00
O637   O     0.55946   0.57054   0.74519   0.00000  Uiso   1.00
O638   O     0.44054   0.42946   0.75481   0.00000  Uiso   1.00
O639   O     0.45181   0.50450   0.81997   0.00000  Uiso   1.00
O640   O     0.54819   0.49550   0.68003   0.00000  Uiso   1.00
O641   O     0.54819   0.49552   0.81218   0.00000  Uiso   1.00
O642   O     0.45181   0.50448   0.68783   0.00000  Uiso   1.00
Zn643  Zn    0.43565   0.50600   0.75521   0.00000  Uiso   1.00
Zn644  Zn    0.56435   0.49400   0.74479   0.00000  Uiso   1.00
C645   C     0.84827   0.59821   0.74890   0.00000  Uiso   1.00
C646   C     0.86143   0.54416   0.90584   0.00000  Uiso   1.00
C647   C     0.83035   0.49898   0.61615   0.00000  Uiso   1.00
C648   C     0.83631   0.50102   0.88385   0.00000  Uiso   1.00
C649   C     0.85561   0.54200   0.59326   0.00000  Uiso   1.00
C650   C     0.81106   0.45800   0.90674   0.00000  Uiso   1.00
C651   C     0.85670   0.54337   0.54682   0.00000  Uiso   1.00
C652   C     0.80997   0.45663   0.95318   0.00000  Uiso   1.00
C653   C     0.83249   0.49985   0.52350   0.00000  Uiso   1.00
C654   C     0.83418   0.50015   0.97650   0.00000  Uiso   1.00
C655   C     0.80668   0.45597   0.54719   0.00000  Uiso   1.00
C656   C     0.81840   0.40179   0.75110   0.00000  Uiso   1.00
C657   C     0.85998   0.54403   0.95281   0.00000  Uiso   1.00
C658   C     0.88165   0.58691   0.52316   0.00000  Uiso   1.00
C659   C     0.78501   0.41309   0.97684   0.00000  Uiso   1.00
C660   C     0.88319   0.58680   0.97663   0.00000  Uiso   1.00
C661   C     0.78348   0.41320   0.52337   0.00000  Uiso   1.00
C662   C     0.85438   0.65176   0.74121   0.00000  Uiso   1.00
C663   C     0.81229   0.34824   0.75879   0.00000  Uiso   1.00
C664   C     0.83430   0.50053   0.83637   0.00000  Uiso   1.00
C665   C     0.83237   0.49947   0.66363   0.00000  Uiso   1.00
C666   C     0.80524   0.45584   0.59416   0.00000  Uiso   1.00
H667   H     0.87427   0.57413   0.61237   0.00000  Uiso   1.00
H668   H     0.79240   0.42586   0.88763   0.00000  Uiso   1.00
H669   H     0.90272   0.62089   0.95968   0.00000  Uiso   1.00
H670   H     0.76394   0.37911   0.54032   0.00000  Uiso   1.00
H671   H     0.67140   0.46094   0.71611   0.00000  Uiso   1.00
H672   H     0.99527   0.53906   0.78389   0.00000  Uiso   1.00
I673   I     0.76780   0.39085   0.63288   0.00000  Uiso   1.00
I674   I     0.89887   0.60915   0.86712   0.00000  Uiso   1.00
I675   I     0.91797   0.65532   0.55406   0.00000  Uiso   1.00
I676   I     0.74870   0.34468   0.94594   0.00000  Uiso   1.00
I677   I     0.92253   0.34001   0.69101   0.00000  Uiso   1.00
I678   I     0.74414   0.65999   0.80899   0.00000  Uiso   1.00
N679   N     0.98344   0.48598   0.73783   0.00000  Uiso   1.00
N680   N     0.68322   0.51402   0.76217   0.00000  Uiso   1.00
O681   O     0.79642   0.57952   0.75299   0.00000  Uiso   1.00
O682   O     0.87025   0.42048   0.74702   0.00000  Uiso   1.00
O683   O     0.89280   0.57054   0.74519   0.00000  Uiso   1.00
O684   O     0.77387   0.42946   0.75481   0.00000  Uiso   1.00
O685   O     0.78514   0.50450   0.81997   0.00000  Uiso   1.00
O686   O     0.88153   0.49550   0.68003   0.00000  Uiso   1.00
O687   O     0.88152   0.49552   0.81218   0.00000  Uiso   1.00
O688   O     0.78515   0.50448   0.68783   0.00000  Uiso   1.00
Zn689  Zn    0.76898   0.50600   0.75521   0.00000  Uiso   1.00
Zn690  Zn    0.89769   0.49400   0.74479   0.00000  Uiso   1.00
C691   C     0.18161   0.93154   0.74890   0.00000  Uiso   1.00
C692   C     0.19476   0.87749   0.90584   0.00000  Uiso   1.00
C693   C     0.16369   0.83231   0.61615   0.00000  Uiso   1.00
C694   C     0.16965   0.83435   0.88385   0.00000  Uiso   1.00
C695   C     0.18894   0.87533   0.59326   0.00000  Uiso   1.00
C696   C     0.14439   0.79133   0.90674   0.00000  Uiso   1.00
C697   C     0.19003   0.87670   0.54682   0.00000  Uiso   1.00
C698   C     0.14330   0.78997   0.95318   0.00000  Uiso   1.00
C699   C     0.16582   0.83318   0.52350   0.00000  Uiso   1.00
C700   C     0.16751   0.83349   0.97650   0.00000  Uiso   1.00
C701   C     0.14002   0.78930   0.54719   0.00000  Uiso   1.00
C702   C     0.15173   0.73512   0.75110   0.00000  Uiso   1.00
C703   C     0.19332   0.87736   0.95281   0.00000  Uiso   1.00
C704   C     0.21499   0.92025   0.52316   0.00000  Uiso   1.00
C705   C     0.11835   0.74642   0.97684   0.00000  Uiso   1.00
C706   C     0.21652   0.92014   0.97663   0.00000  Uiso   1.00
C707   C     0.11681   0.74653   0.52337   0.00000  Uiso   1.00
C708   C     0.18771   0.98509   0.74121   0.00000  Uiso   1.00
C709   C     0.14562   0.68158   0.75879   0.00000  Uiso   1.00
C710   C     0.16763   0.83387   0.83637   0.00000  Uiso   1.00
C711   C     0.16570   0.83280   0.66363   0.00000  Uiso   1.00
C712   C     0.13857   0.78918   0.59416   0.00000  Uiso   1.00
H713   H     0.20760   0.90747   0.61237   0.00000  Uiso   1.00
H714   H     0.12573   0.75920   0.88763   0.00000  Uiso   1.00
H715   H     0.23606   0.95422   0.95968   0.00000  Uiso   1.00
H716   H     0.09728   0.71245   0.54032   0.00000  Uiso   1.00
H717   H     0.00473   0.79427   0.71611   0.00000  Uiso   1.00
H718   H     0.32860   0.87240   0.78389   0.00000  Uiso   1.00
I719   I     0.10113   0.72418   0.63288   0.00000  Uiso   1.00
I720   I     0.23220   0.94249   0.86712   0.00000  Uiso   1.00
I721   I     0.25131   0.98865   0.55406   0.00000  Uiso   1.00
I722   I     0.08203   0.67801   0.94594   0.00000  Uiso   1.00
I723   I     0.25586   0.67334   0.69101   0.00000  Uiso   1.00
I724   I     0.07747   0.99333   0.80899   0.00000  Uiso   1.00
N725   N     0.31678   0.81932   0.73783   0.00000  Uiso   1.00
N726   N     0.01656   0.84735   0.76217   0.00000  Uiso   1.00
O727   O     0.12975   0.91286   0.75299   0.00000  Uiso   1.00
O728   O     0.20358   0.75381   0.74702   0.00000  Uiso   1.00
O729   O     0.22613   0.90387   0.74519   0.00000  Uiso   1.00
O730   O     0.10720   0.76279   0.75481   0.00000  Uiso   1.00
O731   O     0.11847   0.83784   0.81997   0.00000  Uiso   1.00
O732   O     0.21486   0.82883   0.68003   0.00000  Uiso   1.00
O733   O     0.21485   0.82885   0.81218   0.00000  Uiso   1.00
O734   O     0.11848   0.83781   0.68783   0.00000  Uiso   1.00
Zn735  Zn    0.10231   0.83933   0.75521   0.00000  Uiso   1.00
Zn736  Zn    0.23102   0.82734   0.74479   0.00000  Uiso   1.00
C737   C     0.51494   0.93154   0.74890   0.00000  Uiso   1.00
C738   C     0.52809   0.87749   0.90584   0.00000  Uiso   1.00
C739   C     0.49702   0.83231   0.61615   0.00000  Uiso   1.00
C740   C     0.50298   0.83435   0.88385   0.00000  Uiso   1.00
C741   C     0.52227   0.87533   0.59326   0.00000  Uiso   1.00
C742   C     0.47773   0.79133   0.90674   0.00000  Uiso   1.00
C743   C     0.52336   0.87670   0.54682   0.00000  Uiso   1.00
C744   C     0.47664   0.78997   0.95318   0.00000  Uiso   1.00
C745   C     0.49916   0.83318   0.52350   0.00000  Uiso   1.00
C746   C     0.50084   0.83349   0.97650   0.00000  Uiso   1.00
C747   C     0.47335   0.78930   0.54719   0.00000  Uiso   1.00
C748   C     0.48506   0.73512   0.75110   0.00000  Uiso   1.00
C749   C     0.52665   0.87736   0.95281   0.00000  Uiso   1.00
C750   C     0.54832   0.92025   0.52316   0.00000  Uiso   1.00
C751   C     0.45168   0.74642   0.97684   0.00000  Uiso   1.00
C752   C     0.54986   0.92014   0.97663   0.00000  Uiso   1.00
C753   C     0.45014   0.74653   0.52337   0.00000  Uiso   1.00
C754   C     0.52105   0.98509   0.74121   0.00000  Uiso   1.00
C755   C     0.47895   0.68158   0.75879   0.00000  Uiso   1.00
C756   C     0.50097   0.83387   0.83637   0.00000  Uiso   1.00
C757   C     0.49903   0.83280   0.66363   0.00000  Uiso   1.00
C758   C     0.47191   0.78918   0.59416   0.00000  Uiso   1.00
H759   H     0.54094   0.90747   0.61237   0.00000  Uiso   1.00
H760   H     0.45906   0.75920   0.88763   0.00000  Uiso   1.00
H761   H     0.56939   0.95422   0.95968   0.00000  Uiso   1.00
H762   H     0.43061   0.71245   0.54032   0.00000  Uiso   1.00
H763   H     0.33806   0.79427   0.71611   0.00000  Uiso   1.00
H764   H     0.66194   0.87240   0.78389   0.00000  Uiso   1.00
I765   I     0.43447   0.72418   0.63288   0.00000  Uiso   1.00
I766   I     0.56553   0.94249   0.86712   0.00000  Uiso   1.00
I767   I     0.58464   0.98865   0.55406   0.00000  Uiso   1.00
I768   I     0.41536   0.67801   0.94594   0.00000  Uiso   1.00
I769   I     0.58920   0.67334   0.69101   0.00000  Uiso   1.00
I770   I     0.41080   0.99333   0.80899   0.00000  Uiso   1.00
N771   N     0.65011   0.81932   0.73783   0.00000  Uiso   1.00
N772   N     0.34989   0.84735   0.76217   0.00000  Uiso   1.00
O773   O     0.46308   0.91286   0.75299   0.00000  Uiso   1.00
O774   O     0.53692   0.75381   0.74702   0.00000  Uiso   1.00
O775   O     0.55946   0.90387   0.74519   0.00000  Uiso   1.00
O776   O     0.44054   0.76279   0.75481   0.00000  Uiso   1.00
O777   O     0.45181   0.83784   0.81997   0.00000  Uiso   1.00
O778   O     0.54819   0.82883   0.68003   0.00000  Uiso   1.00
O779   O     0.54819   0.82885   0.81218   0.00000  Uiso   1.00
O780   O     0.45181   0.83781   0.68783   0.00000  Uiso   1.00
Zn781  Zn    0.43565   0.83933   0.75521   0.00000  Uiso   1.00
Zn782  Zn    0.56435   0.82734   0.74479   0.00000  Uiso   1.00
C783   C     0.84827   0.93154   0.74890   0.00000  Uiso   1.00
C784   C     0.86143   0.87749   0.90584   0.00000  Uiso   1.00
C785   C     0.83035   0.83231   0.61615   0.00000  Uiso   1.00
C786   C     0.83631   0.83435   0.88385   0.00000  Uiso   1.00
C787   C     0.85561   0.87533   0.59326   0.00000  Uiso   1.00
C788   C     0.81106   0.79133   0.90674   0.00000  Uiso   1.00
C789   C     0.85670   0.87670   0.54682   0.00000  Uiso   1.00
C790   C     0.80997   0.78997   0.95318   0.00000  Uiso   1.00
C791   C     0.83249   0.83318   0.52350   0.00000  Uiso   1.00
C792   C     0.83418   0.83349   0.97650   0.00000  Uiso   1.00
C793   C     0.80668   0.78930   0.54719   0.00000  Uiso   1.00
C794   C     0.81840   0.73512   0.75110   0.00000  Uiso   1.00
C795   C     0.85998   0.87736   0.95281   0.00000  Uiso   1.00
C796   C     0.88165   0.92025   0.52316   0.00000  Uiso   1.00
C797   C     0.78501   0.74642   0.97684   0.00000  Uiso   1.00
C798   C     0.88319   0.92014   0.97663   0.00000  Uiso   1.00
C799   C     0.78348   0.74653   0.52337   0.00000  Uiso   1.00
C800   C     0.85438   0.98509   0.74121   0.00000  Uiso   1.00
C801   C     0.81229   0.68158   0.75879   0.00000  Uiso   1.00
C802   C     0.83430   0.83387   0.83637   0.00000  Uiso   1.00
C803   C     0.83237   0.83280   0.66363   0.00000  Uiso   1.00
C804   C     0.80524   0.78918   0.59416   0.00000  Uiso   1.00
H805   H     0.87427   0.90747   0.61237   0.00000  Uiso   1.00
H806   H     0.79240   0.75920   0.88763   0.00000  Uiso   1.00
H807   H     0.90272   0.95422   0.95968   0.00000  Uiso   1.00
H808   H     0.76394   0.71245   0.54032   0.00000  Uiso   1.00
H809   H     0.67140   0.79427   0.71611   0.00000  Uiso   1.00
H810   H     0.99527   0.87240   0.78389   0.00000  Uiso   1.00
I811   I     0.76780   0.72418   0.63288   0.00000  Uiso   1.00
I812   I     0.89887   0.94249   0.86712   0.00000  Uiso   1.00
I813   I     0.91797   0.98865   0.55406   0.00000  Uiso   1.00
I814   I     0.74870   0.67801   0.94594   0.00000  Uiso   1.00
I815   I     0.92253   0.67334   0.69101   0.00000  Uiso   1.00
I816   I     0.74414   0.99333   0.80899   0.00000  Uiso   1.00
N817   N     0.98344   0.81932   0.73783   0.00000  Uiso   1.00
N818   N     0.68322   0.84735   0.76217   0.00000  Uiso   1.00
O819   O     0.79642   0.91286   0.75299   0.00000  Uiso   1.00
O820   O     0.87025   0.75381   0.74702   0.00000  Uiso   1.00
O821   O     0.89280   0.90387   0.74519   0.00000  Uiso   1.00
O822   O     0.77387   0.76279   0.75481   0.00000  Uiso   1.00
O823   O     0.78514   0.83784   0.81997   0.00000  Uiso   1.00
O824   O     0.88153   0.82883   0.68003   0.00000  Uiso   1.00
O825   O     0.88152   0.82885   0.81218   0.00000  Uiso   1.00
O826   O     0.78515   0.83781   0.68783   0.00000  Uiso   1.00
Zn827  Zn    0.76898   0.83933   0.75521   0.00000  Uiso   1.00
Zn828  Zn    0.89769   0.82734   0.74479   0.00000  Uiso   1.00
loop_
_geom_bond_atom_site_label_1
_geom_bond_atom_site_label_2
_geom_bond_distance
_geom_bond_site_symmetry_2
_ccdc_geom_bond_type
C1     O37     1.270   .     A
C1     C18     1.396   .     S
C1     O39     1.288   .     A
C2     C4      1.398   .     A
C2     I30     2.152   .     S
C2     C13     1.399   .     A
C3     C21     1.419   .     S
C3     C22     1.398   .     A
C3     C5      1.387   .     A
C4     C6      1.387   .     A
C4     C20     1.419   .     S
C5     H23     1.083   .     S
C5     C7      1.384   .     A
C6     H24     1.083   .     S
C6     C8      1.384   .     A
C7     C9      1.417   .     A
C7     C14     1.407   .     A
C8     C15     1.407   .     A
C8     C10     1.417   .     A
C9     C11     1.420   .     A
C9     C424    1.399   1_554 S
C10    C13     1.420   .     A
C10    C423    1.399   .     S
C11    C22     1.399   .     A
C11    C17     1.401   .     A
C12    O40     1.288   .     A
C12    C19     1.396   .     S
C12    O38     1.270   .     A
C13    C16     1.401   .     A
C14    I31     2.130   .     S
C14    C430    1.385   1_554 S
C15    I32     2.130   .     S
C15    C431    1.385   .     S
C16    H25     1.079   .     S
C16    C428    1.385   .     S
C17    H26     1.079   .     S
C17    C429    1.385   1_554 S
C18    C157    1.351   .     S
C18    I171    2.158   .     S
C19    C294    1.351   1_545 S
C19    I310    2.158   1_545 S
C20    O41     1.284   .     A
C20    O43     1.284   .     A
C21    O44     1.284   .     A
C21    O42     1.284   .     A
C22    I29     2.152   .     S
H27    N127    1.029   1_455 S
H28    N82     1.029   .     S
I33    C294    2.158   1_545 S
I34    C157    2.158   .     S
N35    Zn46    2.013   .     S
N35    H73     1.029   .     S
N35    N82     1.278   .     S
N36    Zn45    2.013   .     S
N36    H120    1.029   1_455 S
N36    N127    1.278   1_455 S
O37    Zn45    1.959   .     S
O38    Zn46    1.959   .     S
O39    Zn46    1.977   .     S
O40    Zn45    1.977   .     S
O41    Zn45    1.993   .     S
O42    Zn46    1.993   .     S
O43    Zn46    2.018   .     S
O44    Zn45    2.018   .     S
C47    O83     1.270   .     A
C47    C64     1.396   .     S
C47    O85     1.288   .     A
C48    C50     1.398   .     A
C48    I76     2.152   .     S
C48    C59     1.399   .     A
C49    C67     1.419   .     S
C49    C68     1.398   .     A
C49    C51     1.387   .     A
C50    C52     1.387   .     A
C50    C66     1.419   .     S
C51    H69     1.083   .     S
C51    C53     1.384   .     A
C52    H70     1.083   .     S
C52    C54     1.384   .     A
C53    C55     1.417   .     A
C53    C60     1.407   .     A
C54    C61     1.407   .     A
C54    C56     1.417   .     A
C55    C57     1.420   .     A
C55    C470    1.399   1_554 S
C56    C59     1.420   .     A
C56    C469    1.399   .     S
C57    C68     1.399   .     A
C57    C63     1.401   .     A
C58    O86     1.288   .     A
C58    C65     1.396   .     S
C58    O84     1.270   .     A
C59    C62     1.401   .     A
C60    I77     2.130   .     S
C60    C476    1.385   1_554 S
C61    I78     2.130   .     S
C61    C477    1.385   .     S
C62    H71     1.079   .     S
C62    C474    1.385   .     S
C63    H72     1.079   .     S
C63    C475    1.385   1_554 S
C64    C203    1.351   .     S
C64    I217    2.158   .     S
C65    C340    1.351   1_545 S
C65    I356    2.158   1_545 S
C66    O87     1.284   .     A
C66    O89     1.284   .     A
C67    O90     1.284   .     A
C67    O88     1.284   .     A
C68    I75     2.152   .     S
H74    N128    1.029   .     S
I79    C340    2.158   1_545 S
I80    C203    2.158   .     S
N81    Zn92    2.013   .     S
N81    H119    1.029   .     S
N81    N128    1.278   .     S
N82    Zn91    2.013   .     S
O83    Zn91    1.959   .     S
O84    Zn92    1.959   .     S
O85    Zn92    1.977   .     S
O86    Zn91    1.977   .     S
O87    Zn91    1.993   .     S
O88    Zn92    1.993   .     S
O89    Zn92    2.018   .     S
O90    Zn91    2.018   .     S
C93    O129    1.270   .     A
C93    C110    1.396   .     S
C93    O131    1.288   .     A
C94    C96     1.398   .     A
C94    I122    2.152   .     S
C94    C105    1.399   .     A
C95    C113    1.419   .     S
C95    C114    1.398   .     A
C95    C97     1.387   .     A
C96    C98     1.387   .     A
C96    C112    1.419   .     S
C97    H115    1.083   .     S
C97    C99     1.384   .     A
C98    H116    1.083   .     S
C98    C100    1.384   .     A
C99    C101    1.417   .     A
C99    C106    1.407   .     A
C100   C107    1.407   .     A
C100   C102    1.417   .     A
C101   C103    1.420   .     A
C101   C516    1.399   1_554 S
C102   C105    1.420   .     A
C102   C515    1.399   .     S
C103   C114    1.399   .     A
C103   C109    1.401   .     A
C104   O132    1.288   .     A
C104   C111    1.396   .     S
C104   O130    1.270   .     A
C105   C108    1.401   .     A
C106   I123    2.130   .     S
C106   C522    1.385   1_554 S
C107   I124    2.130   .     S
C107   C523    1.385   .     S
C108   H117    1.079   .     S
C108   C520    1.385   .     S
C109   H118    1.079   .     S
C109   C521    1.385   1_554 S
C110   C249    1.351   .     S
C110   I263    2.158   .     S
C111   C386    1.351   1_545 S
C111   I402    2.158   1_545 S
C112   O133    1.284   .     A
C112   O135    1.284   .     A
C113   O136    1.284   .     A
C113   O134    1.284   .     A
C114   I121    2.152   .     S
H120   N36     1.029   1_655 S
I125   C386    2.158   1_545 S
I126   C249    2.158   .     S
N127   Zn138   2.013   .     S
N127   H27     1.029   1_655 S
N127   N36     1.278   1_655 S
N128   Zn137   2.013   .     S
O129   Zn137   1.959   .     S
O130   Zn138   1.959   .     S
O131   Zn138   1.977   .     S
O132   Zn137   1.977   .     S
O133   Zn137   1.993   .     S
O134   Zn138   1.993   .     S
O135   Zn138   2.018   .     S
O136   Zn137   2.018   .     S
C139   O175    1.270   .     A
C139   C156    1.396   .     S
C139   O177    1.288   .     A
C140   C142    1.398   .     A
C140   I168    2.152   .     S
C140   C151    1.399   .     A
C141   C159    1.419   .     S
C141   C160    1.398   .     A
C141   C143    1.387   .     A
C142   C144    1.387   .     A
C142   C158    1.419   .     S
C143   H161    1.083   .     S
C143   C145    1.384   .     A
C144   H162    1.083   .     S
C144   C146    1.384   .     A
C145   C147    1.417   .     A
C145   C152    1.407   .     A
C146   C153    1.407   .     A
C146   C148    1.417   .     A
C147   C149    1.420   .     A
C147   C562    1.399   1_554 S
C148   C151    1.420   .     A
C148   C561    1.399   .     S
C149   C160    1.399   .     A
C149   C155    1.401   .     A
C150   O178    1.288   .     A
C150   C157    1.396   .     S
C150   O176    1.270   .     A
C151   C154    1.401   .     A
C152   I169    2.130   .     S
C152   C568    1.385   1_554 S
C153   I170    2.130   .     S
C153   C569    1.385   .     S
C154   H163    1.079   .     S
C154   C566    1.385   .     S
C155   H164    1.079   .     S
C155   C567    1.385   1_554 S
C156   C295    1.351   .     S
C156   I309    2.158   .     S
C158   O179    1.284   .     A
C158   O181    1.284   .     A
C159   O182    1.284   .     A
C159   O180    1.284   .     A
C160   I167    2.152   .     S
H165   N265    1.029   1_455 S
H166   N220    1.029   .     S
I172   C295    2.158   .     S
N173   Zn184   2.013   .     S
N173   H211    1.029   .     S
N173   N220    1.278   .     S
N174   Zn183   2.013   .     S
N174   H258    1.029   1_455 S
N174   N265    1.278   1_455 S
O175   Zn183   1.959   .     S
O176   Zn184   1.959   .     S
O177   Zn184   1.977   .     S
O178   Zn183   1.977   .     S
O179   Zn183   1.993   .     S
O180   Zn184   1.993   .     S
O181   Zn184   2.018   .     S
O182   Zn183   2.018   .     S
C185   O221    1.270   .     A
C185   C202    1.396   .     S
C185   O223    1.288   .     A
C186   C188    1.398   .     A
C186   I214    2.152   .     S
C186   C197    1.399   .     A
C187   C205    1.419   .     S
C187   C206    1.398   .     A
C187   C189    1.387   .     A
C188   C190    1.387   .     A
C188   C204    1.419   .     S
C189   H207    1.083   .     S
C189   C191    1.384   .     A
C190   H208    1.083   .     S
C190   C192    1.384   .     A
C191   C193    1.417   .     A
C191   C198    1.407   .     A
C192   C199    1.407   .     A
C192   C194    1.417   .     A
C193   C195    1.420   .     A
C193   C608    1.399   1_554 S
C194   C197    1.420   .     A
C194   C607    1.399   .     S
C195   C206    1.399   .     A
C195   C201    1.401   .     A
C196   O224    1.288   .     A
C196   C203    1.396   .     S
C196   O222    1.270   .     A
C197   C200    1.401   .     A
C198   I215    2.130   .     S
C198   C614    1.385   1_554 S
C199   I216    2.130   .     S
C199   C615    1.385   .     S
C200   H209    1.079   .     S
C200   C612    1.385   .     S
C201   H210    1.079   .     S
C201   C613    1.385   1_554 S
C202   C341    1.351   .     S
C202   I355    2.158   .     S
C204   O225    1.284   .     A
C204   O227    1.284   .     A
C205   O228    1.284   .     A
C205   O226    1.284   .     A
C206   I213    2.152   .     S
H212   N266    1.029   .     S
I218   C341    2.158   .     S
N219   Zn230   2.013   .     S
N219   H257    1.029   .     S
N219   N266    1.278   .     S
N220   Zn229   2.013   .     S
O221   Zn229   1.959   .     S
O222   Zn230   1.959   .     S
O223   Zn230   1.977   .     S
O224   Zn229   1.977   .     S
O225   Zn229   1.993   .     S
O226   Zn230   1.993   .     S
O227   Zn230   2.018   .     S
O228   Zn229   2.018   .     S
C231   O267    1.270   .     A
C231   C248    1.396   .     S
C231   O269    1.288   .     A
C232   C234    1.398   .     A
C232   I260    2.152   .     S
C232   C243    1.399   .     A
C233   C251    1.419   .     S
C233   C252    1.398   .     A
C233   C235    1.387   .     A
C234   C236    1.387   .     A
C234   C250    1.419   .     S
C235   H253    1.083   .     S
C235   C237    1.384   .     A
C236   H254    1.083   .     S
C236   C238    1.384   .     A
C237   C239    1.417   .     A
C237   C244    1.407   .     A
C238   C245    1.407   .     A
C238   C240    1.417   .     A
C239   C241    1.420   .     A
C239   C654    1.399   1_554 S
C240   C243    1.420   .     A
C240   C653    1.399   .     S
C241   C252    1.399   .     A
C241   C247    1.401   .     A
C242   O270    1.288   .     A
C242   C249    1.396   .     S
C242   O268    1.270   .     A
C243   C246    1.401   .     A
C244   I261    2.130   .     S
C244   C660    1.385   1_554 S
C245   I262    2.130   .     S
C245   C661    1.385   .     S
C246   H255    1.079   .     S
C246   C658    1.385   .     S
C247   H256    1.079   .     S
C247   C659    1.385   1_554 S
C248   C387    1.351   .     S
C248   I401    2.158   .     S
C250   O271    1.284   .     A
C250   O273    1.284   .     A
C251   O274    1.284   .     A
C251   O272    1.284   .     A
C252   I259    2.152   .     S
H258   N174    1.029   1_655 S
I264   C387    2.158   .     S
N265   Zn276   2.013   .     S
N265   H165    1.029   1_655 S
N265   N174    1.278   1_655 S
N266   Zn275   2.013   .     S
O267   Zn275   1.959   .     S
O268   Zn276   1.959   .     S
O269   Zn276   1.977   .     S
O270   Zn275   1.977   .     S
O271   Zn275   1.993   .     S
O272   Zn276   1.993   .     S
O273   Zn276   2.018   .     S
O274   Zn275   2.018   .     S
C277   O313    1.270   .     A
C277   C294    1.396   .     S
C277   O315    1.288   .     A
C278   C280    1.398   .     A
C278   I306    2.152   .     S
C278   C289    1.399   .     A
C279   C297    1.419   .     S
C279   C298    1.398   .     A
C279   C281    1.387   .     A
C280   C282    1.387   .     A
C280   C296    1.419   .     S
C281   H299    1.083   .     S
C281   C283    1.384   .     A
C282   H300    1.083   .     S
C282   C284    1.384   .     A
C283   C285    1.417   .     A
C283   C290    1.407   .     A
C284   C291    1.407   .     A
C284   C286    1.417   .     A
C285   C287    1.420   .     A
C285   C700    1.399   1_554 S
C286   C289    1.420   .     A
C286   C699    1.399   .     S
C287   C298    1.399   .     A
C287   C293    1.401   .     A
C288   O316    1.288   .     A
C288   C295    1.396   .     S
C288   O314    1.270   .     A
C289   C292    1.401   .     A
C290   I307    2.130   .     S
C290   C706    1.385   1_554 S
C291   I308    2.130   .     S
C291   C707    1.385   .     S
C292   H301    1.079   .     S
C292   C704    1.385   .     S
C293   H302    1.079   .     S
C293   C705    1.385   1_554 S
C294   C19     1.351   1_565 S
C294   I33     2.158   1_565 S
C296   O317    1.284   .     A
C296   O319    1.284   .     A
C297   O320    1.284   .     A
C297   O318    1.284   .     A
C298   I305    2.152   .     S
H303   N403    1.029   1_455 S
H304   N358    1.029   .     S
I310   C19     2.158   1_565 S
N311   Zn322   2.013   .     S
N311   H349    1.029   .     S
N311   N358    1.278   .     S
N312   Zn321   2.013   .     S
N312   H396    1.029   1_455 S
N312   N403    1.278   1_455 S
O313   Zn321   1.959   .     S
O314   Zn322   1.959   .     S
O315   Zn322   1.977   .     S
O316   Zn321   1.977   .     S
O317   Zn321   1.993   .     S
O318   Zn322   1.993   .     S
O319   Zn322   2.018   .     S
O320   Zn321   2.018   .     S
C323   O359    1.270   .     A
C323   C340    1.396   .     S
C323   O361    1.288   .     A
C324   C326    1.398   .     A
C324   I352    2.152   .     S
C324   C335    1.399   .     A
C325   C343    1.419   .     S
C325   C344    1.398   .     A
C325   C327    1.387   .     A
C326   C328    1.387   .     A
C326   C342    1.419   .     S
C327   H345    1.083   .     S
C327   C329    1.384   .     A
C328   H346    1.083   .     S
C328   C330    1.384   .     A
C329   C331    1.417   .     A
C329   C336    1.407   .     A
C330   C337    1.407   .     A
C330   C332    1.417   .     A
C331   C333    1.420   .     A
C331   C746    1.399   1_554 S
C332   C335    1.420   .     A
C332   C745    1.399   .     S
C333   C344    1.399   .     A
C333   C339    1.401   .     A
C334   O362    1.288   .     A
C334   C341    1.396   .     S
C334   O360    1.270   .     A
C335   C338    1.401   .     A
C336   I353    2.130   .     S
C336   C752    1.385   1_554 S
C337   I354    2.130   .     S
C337   C753    1.385   .     S
C338   H347    1.079   .     S
C338   C750    1.385   .     S
C339   H348    1.079   .     S
C339   C751    1.385   1_554 S
C340   C65     1.351   1_565 S
C340   I79     2.158   1_565 S
C342   O363    1.284   .     A
C342   O365    1.284   .     A
C343   O366    1.284   .     A
C343   O364    1.284   .     A
C344   I351    2.152   .     S
H350   N404    1.029   .     S
I356   C65     2.158   1_565 S
N357   Zn368   2.013   .     S
N357   H395    1.029   .     S
N357   N404    1.278   .     S
N358   Zn367   2.013   .     S
O359   Zn367   1.959   .     S
O360   Zn368   1.959   .     S
O361   Zn368   1.977   .     S
O362   Zn367   1.977   .     S
O363   Zn367   1.993   .     S
O364   Zn368   1.993   .     S
O365   Zn368   2.018   .     S
O366   Zn367   2.018   .     S
C369   O405    1.270   .     A
C369   C386    1.396   .     S
C369   O407    1.288   .     A
C370   C372    1.398   .     A
C370   I398    2.152   .     S
C370   C381    1.399   .     A
C371   C389    1.419   .     S
C371   C390    1.398   .     A
C371   C373    1.387   .     A
C372   C374    1.387   .     A
C372   C388    1.419   .     S
C373   H391    1.083   .     S
C373   C375    1.384   .     A
C374   H392    1.083   .     S
C374   C376    1.384   .     A
C375   C377    1.417   .     A
C375   C382    1.407   .     A
C376   C383    1.407   .     A
C376   C378    1.417   .     A
C377   C379    1.420   .     A
C377   C792    1.399   1_554 S
C378   C381    1.420   .     A
C378   C791    1.399   .     S
C379   C390    1.399   .     A
C379   C385    1.401   .     A
C380   O408    1.288   .     A
C380   C387    1.396   .     S
C380   O406    1.270   .     A
C381   C384    1.401   .     A
C382   I399    2.130   .     S
C382   C798    1.385   1_554 S
C383   I400    2.130   .     S
C383   C799    1.385   .     S
C384   H393    1.079   .     S
C384   C796    1.385   .     S
C385   H394    1.079   .     S
C385   C797    1.385   1_554 S
C386   C111    1.351   1_565 S
C386   I125    2.158   1_565 S
C388   O409    1.284   .     A
C388   O411    1.284   .     A
C389   O412    1.284   .     A
C389   O410    1.284   .     A
C390   I397    2.152   .     S
H396   N312    1.029   1_655 S
I402   C111    2.158   1_565 S
N403   Zn414   2.013   .     S
N403   H303    1.029   1_655 S
N403   N312    1.278   1_655 S
N404   Zn413   2.013   .     S
O405   Zn413   1.959   .     S
O406   Zn414   1.959   .     S
O407   Zn414   1.977   .     S
O408   Zn413   1.977   .     S
O409   Zn413   1.993   .     S
O410   Zn414   1.993   .     S
O411   Zn414   2.018   .     S
O412   Zn413   2.018   .     S
C415   O451    1.270   .     A
C415   C432    1.396   .     S
C415   O453    1.288   .     A
C416   C418    1.398   .     A
C416   I444    2.152   .     S
C416   C427    1.399   .     A
C417   C435    1.419   .     S
C417   C436    1.398   .     A
C417   C419    1.387   .     A
C418   C420    1.387   .     A
C418   C434    1.419   .     S
C419   H437    1.083   .     S
C419   C421    1.384   .     A
C420   H438    1.083   .     S
C420   C422    1.384   .     A
C421   C423    1.417   .     A
C421   C428    1.407   .     A
C422   C429    1.407   .     A
C422   C424    1.417   .     A
C423   C425    1.420   .     A
C424   C427    1.420   .     A
C424   C9      1.399   1_556 S
C425   C436    1.399   .     A
C425   C431    1.401   .     A
C426   O454    1.288   .     A
C426   C433    1.396   .     S
C426   O452    1.270   .     A
C427   C430    1.401   .     A
C428   I445    2.130   .     S
C429   I446    2.130   .     S
C429   C17     1.385   1_556 S
C430   H439    1.079   .     S
C430   C14     1.385   1_556 S
C431   H440    1.079   .     S
C432   C571    1.351   .     S
C432   I585    2.158   .     S
C433   C708    1.351   1_545 S
C433   I724    2.158   1_545 S
C434   O455    1.284   .     A
C434   O457    1.284   .     A
C435   O458    1.284   .     A
C435   O456    1.284   .     A
C436   I443    2.152   .     S
H441   N541    1.029   1_455 S
H442   N496    1.029   .     S
I447   C708    2.158   1_545 S
I448   C571    2.158   .     S
N449   Zn460   2.013   .     S
N449   H487    1.029   .     S
N449   N496    1.278   .     S
N450   Zn459   2.013   .     S
N450   H534    1.029   1_455 S
N450   N541    1.278   1_455 S
O451   Zn459   1.959   .     S
O452   Zn460   1.959   .     S
O453   Zn460   1.977   .     S
O454   Zn459   1.977   .     S
O455   Zn459   1.993   .     S
O456   Zn460   1.993   .     S
O457   Zn460   2.018   .     S
O458   Zn459   2.018   .     S
C461   O497    1.270   .     A
C461   C478    1.396   .     S
C461   O499    1.288   .     A
C462   C464    1.398   .     A
C462   I490    2.152   .     S
C462   C473    1.399   .     A
C463   C481    1.419   .     S
C463   C482    1.398   .     A
C463   C465    1.387   .     A
C464   C466    1.387   .     A
C464   C480    1.419   .     S
C465   H483    1.083   .     S
C465   C467    1.384   .     A
C466   H484    1.083   .     S
C466   C468    1.384   .     A
C467   C469    1.417   .     A
C467   C474    1.407   .     A
C468   C475    1.407   .     A
C468   C470    1.417   .     A
C469   C471    1.420   .     A
C470   C473    1.420   .     A
C470   C55     1.399   1_556 S
C471   C482    1.399   .     A
C471   C477    1.401   .     A
C472   O500    1.288   .     A
C472   C479    1.396   .     S
C472   O498    1.270   .     A
C473   C476    1.401   .     A
C474   I491    2.130   .     S
C475   I492    2.130   .     S
C475   C63     1.385   1_556 S
C476   H485    1.079   .     S
C476   C60     1.385   1_556 S
C477   H486    1.079   .     S
C478   C617    1.351   .     S
C478   I631    2.158   .     S
C479   C754    1.351   1_545 S
C479   I770    2.158   1_545 S
C480   O501    1.284   .     A
C480   O503    1.284   .     A
C481   O504    1.284   .     A
C481   O502    1.284   .     A
C482   I489    2.152   .     S
H488   N542    1.029   .     S
I493   C754    2.158   1_545 S
I494   C617    2.158   .     S
N495   Zn506   2.013   .     S
N495   H533    1.029   .     S
N495   N542    1.278   .     S
N496   Zn505   2.013   .     S
O497   Zn505   1.959   .     S
O498   Zn506   1.959   .     S
O499   Zn506   1.977   .     S
O500   Zn505   1.977   .     S
O501   Zn505   1.993   .     S
O502   Zn506   1.993   .     S
O503   Zn506   2.018   .     S
O504   Zn505   2.018   .     S
C507   O543    1.270   .     A
C507   C524    1.396   .     S
C507   O545    1.288   .     A
C508   C510    1.398   .     A
C508   I536    2.152   .     S
C508   C519    1.399   .     A
C509   C527    1.419   .     S
C509   C528    1.398   .     A
C509   C511    1.387   .     A
C510   C512    1.387   .     A
C510   C526    1.419   .     S
C511   H529    1.083   .     S
C511   C513    1.384   .     A
C512   H530    1.083   .     S
C512   C514    1.384   .     A
C513   C515    1.417   .     A
C513   C520    1.407   .     A
C514   C521    1.407   .     A
C514   C516    1.417   .     A
C515   C517    1.420   .     A
C516   C519    1.420   .     A
C516   C101    1.399   1_556 S
C517   C528    1.399   .     A
C517   C523    1.401   .     A
C518   O546    1.288   .     A
C518   C525    1.396   .     S
C518   O544    1.270   .     A
C519   C522    1.401   .     A
C520   I537    2.130   .     S
C521   I538    2.130   .     S
C521   C109    1.385   1_556 S
C522   H531    1.079   .     S
C522   C106    1.385   1_556 S
C523   H532    1.079   .     S
C524   C663    1.351   .     S
C524   I677    2.158   .     S
C525   C800    1.351   1_545 S
C525   I816    2.158   1_545 S
C526   O547    1.284   .     A
C526   O549    1.284   .     A
C527   O550    1.284   .     A
C527   O548    1.284   .     A
C528   I535    2.152   .     S
H534   N450    1.029   1_655 S
I539   C800    2.158   1_545 S
I540   C663    2.158   .     S
N541   Zn552   2.013   .     S
N541   H441    1.029   1_655 S
N541   N450    1.278   1_655 S
N542   Zn551   2.013   .     S
O543   Zn551   1.959   .     S
O544   Zn552   1.959   .     S
O545   Zn552   1.977   .     S
O546   Zn551   1.977   .     S
O547   Zn551   1.993   .     S
O548   Zn552   1.993   .     S
O549   Zn552   2.018   .     S
O550   Zn551   2.018   .     S
C553   O589    1.270   .     A
C553   C570    1.396   .     S
C553   O591    1.288   .     A
C554   C556    1.398   .     A
C554   I582    2.152   .     S
C554   C565    1.399   .     A
C555   C573    1.419   .     S
C555   C574    1.398   .     A
C555   C557    1.387   .     A
C556   C558    1.387   .     A
C556   C572    1.419   .     S
C557   H575    1.083   .     S
C557   C559    1.384   .     A
C558   H576    1.083   .     S
C558   C560    1.384   .     A
C559   C561    1.417   .     A
C559   C566    1.407   .     A
C560   C567    1.407   .     A
C560   C562    1.417   .     A
C561   C563    1.420   .     A
C562   C565    1.420   .     A
C562   C147    1.399   1_556 S
C563   C574    1.399   .     A
C563   C569    1.401   .     A
C564   O592    1.288   .     A
C564   C571    1.396   .     S
C564   O590    1.270   .     A
C565   C568    1.401   .     A
C566   I583    2.130   .     S
C567   I584    2.130   .     S
C567   C155    1.385   1_556 S
C568   H577    1.079   .     S
C568   C152    1.385   1_556 S
C569   H578    1.079   .     S
C570   C709    1.351   .     S
C570   I723    2.158   .     S
C572   O593    1.284   .     A
C572   O595    1.284   .     A
C573   O596    1.284   .     A
C573   O594    1.284   .     A
C574   I581    2.152   .     S
H579   N679    1.029   1_455 S
H580   N634    1.029   .     S
I586   C709    2.158   .     S
N587   Zn598   2.013   .     S
N587   H625    1.029   .     S
N587   N634    1.278   .     S
N588   Zn597   2.013   .     S
N588   H672    1.029   1_455 S
N588   N679    1.278   1_455 S
O589   Zn597   1.959   .     S
O590   Zn598   1.959   .     S
O591   Zn598   1.977   .     S
O592   Zn597   1.977   .     S
O593   Zn597   1.993   .     S
O594   Zn598   1.993   .     S
O595   Zn598   2.018   .     S
O596   Zn597   2.018   .     S
C599   O635    1.270   .     A
C599   C616    1.396   .     S
C599   O637    1.288   .     A
C600   C602    1.398   .     A
C600   I628    2.152   .     S
C600   C611    1.399   .     A
C601   C619    1.419   .     S
C601   C620    1.398   .     A
C601   C603    1.387   .     A
C602   C604    1.387   .     A
C602   C618    1.419   .     S
C603   H621    1.083   .     S
C603   C605    1.384   .     A
C604   H622    1.083   .     S
C604   C606    1.384   .     A
C605   C607    1.417   .     A
C605   C612    1.407   .     A
C606   C613    1.407   .     A
C606   C608    1.417   .     A
C607   C609    1.420   .     A
C608   C611    1.420   .     A
C608   C193    1.399   1_556 S
C609   C620    1.399   .     A
C609   C615    1.401   .     A
C610   O638    1.288   .     A
C610   C617    1.396   .     S
C610   O636    1.270   .     A
C611   C614    1.401   .     A
C612   I629    2.130   .     S
C613   I630    2.130   .     S
C613   C201    1.385   1_556 S
C614   H623    1.079   .     S
C614   C198    1.385   1_556 S
C615   H624    1.079   .     S
C616   C755    1.351   .     S
C616   I769    2.158   .     S
C618   O639    1.284   .     A
C618   O641    1.284   .     A
C619   O642    1.284   .     A
C619   O640    1.284   .     A
C620   I627    2.152   .     S
H626   N680    1.029   .     S
I632   C755    2.158   .     S
N633   Zn644   2.013   .     S
N633   H671    1.029   .     S
N633   N680    1.278   .     S
N634   Zn643   2.013   .     S
O635   Zn643   1.959   .     S
O636   Zn644   1.959   .     S
O637   Zn644   1.977   .     S
O638   Zn643   1.977   .     S
O639   Zn643   1.993   .     S
O640   Zn644   1.993   .     S
O641   Zn644   2.018   .     S
O642   Zn643   2.018   .     S
C645   O681    1.270   .     A
C645   C662    1.396   .     S
C645   O683    1.288   .     A
C646   C648    1.398   .     A
C646   I674    2.152   .     S
C646   C657    1.399   .     A
C647   C665    1.419   .     S
C647   C666    1.398   .     A
C647   C649    1.387   .     A
C648   C650    1.387   .     A
C648   C664    1.419   .     S
C649   H667    1.083   .     S
C649   C651    1.384   .     A
C650   H668    1.083   .     S
C650   C652    1.384   .     A
C651   C653    1.417   .     A
C651   C658    1.407   .     A
C652   C659    1.407   .     A
C652   C654    1.417   .     A
C653   C655    1.420   .     A
C654   C657    1.420   .     A
C654   C239    1.399   1_556 S
C655   C666    1.399   .     A
C655   C661    1.401   .     A
C656   O684    1.288   .     A
C656   C663    1.396   .     S
C656   O682    1.270   .     A
C657   C660    1.401   .     A
C658   I675    2.130   .     S
C659   I676    2.130   .     S
C659   C247    1.385   1_556 S
C660   H669    1.079   .     S
C660   C244    1.385   1_556 S
C661   H670    1.079   .     S
C662   C801    1.351   .     S
C662   I815    2.158   .     S
C664   O685    1.284   .     A
C664   O687    1.284   .     A
C665   O688    1.284   .     A
C665   O686    1.284   .     A
C666   I673    2.152   .     S
H672   N588    1.029   1_655 S
I678   C801    2.158   .     S
N679   Zn690   2.013   .     S
N679   H579    1.029   1_655 S
N679   N588    1.278   1_655 S
N680   Zn689   2.013   .     S
O681   Zn689   1.959   .     S
O682   Zn690   1.959   .     S
O683   Zn690   1.977   .     S
O684   Zn689   1.977   .     S
O685   Zn689   1.993   .     S
O686   Zn690   1.993   .     S
O687   Zn690   2.018   .     S
O688   Zn689   2.018   .     S
C691   O727    1.270   .     A
C691   C708    1.396   .     S
C691   O729    1.288   .     A
C692   C694    1.398   .     A
C692   I720    2.152   .     S
C692   C703    1.399   .     A
C693   C711    1.419   .     S
C693   C712    1.398   .     A
C693   C695    1.387   .     A
C694   C696    1.387   .     A
C694   C710    1.419   .     S
C695   H713    1.083   .     S
C695   C697    1.384   .     A
C696   H714    1.083   .     S
C696   C698    1.384   .     A
C697   C699    1.417   .     A
C697   C704    1.407   .     A
C698   C705    1.407   .     A
C698   C700    1.417   .     A
C699   C701    1.420   .     A
C700   C703    1.420   .     A
C700   C285    1.399   1_556 S
C701   C712    1.399   .     A
C701   C707    1.401   .     A
C702   O730    1.288   .     A
C702   C709    1.396   .     S
C702   O728    1.270   .     A
C703   C706    1.401   .     A
C704   I721    2.130   .     S
C705   I722    2.130   .     S
C705   C293    1.385   1_556 S
C706   H715    1.079   .     S
C706   C290    1.385   1_556 S
C707   H716    1.079   .     S
C708   C433    1.351   1_565 S
C708   I447    2.158   1_565 S
C710   O731    1.284   .     A
C710   O733    1.284   .     A
C711   O734    1.284   .     A
C711   O732    1.284   .     A
C712   I719    2.152   .     S
H717   N817    1.029   1_455 S
H718   N772    1.029   .     S
I724   C433    2.158   1_565 S
N725   Zn736   2.013   .     S
N725   H763    1.029   .     S
N725   N772    1.278   .     S
N726   Zn735   2.013   .     S
N726   H810    1.029   1_455 S
N726   N817    1.278   1_455 S
O727   Zn735   1.959   .     S
O728   Zn736   1.959   .     S
O729   Zn736   1.977   .     S
O730   Zn735   1.977   .     S
O731   Zn735   1.993   .     S
O732   Zn736   1.993   .     S
O733   Zn736   2.018   .     S
O734   Zn735   2.018   .     S
C737   O773    1.270   .     A
C737   C754    1.396   .     S
C737   O775    1.288   .     A
C738   C740    1.398   .     A
C738   I766    2.152   .     S
C738   C749    1.399   .     A
C739   C757    1.419   .     S
C739   C758    1.398   .     A
C739   C741    1.387   .     A
C740   C742    1.387   .     A
C740   C756    1.419   .     S
C741   H759    1.083   .     S
C741   C743    1.384   .     A
C742   H760    1.083   .     S
C742   C744    1.384   .     A
C743   C745    1.417   .     A
C743   C750    1.407   .     A
C744   C751    1.407   .     A
C744   C746    1.417   .     A
C745   C747    1.420   .     A
C746   C749    1.420   .     A
C746   C331    1.399   1_556 S
C747   C758    1.399   .     A
C747   C753    1.401   .     A
C748   O776    1.288   .     A
C748   C755    1.396   .     S
C748   O774    1.270   .     A
C749   C752    1.401   .     A
C750   I767    2.130   .     S
C751   I768    2.130   .     S
C751   C339    1.385   1_556 S
C752   H761    1.079   .     S
C752   C336    1.385   1_556 S
C753   H762    1.079   .     S
C754   C479    1.351   1_565 S
C754   I493    2.158   1_565 S
C756   O777    1.284   .     A
C756   O779    1.284   .     A
C757   O780    1.284   .     A
C757   O778    1.284   .     A
C758   I765    2.152   .     S
H764   N818    1.029   .     S
I770   C479    2.158   1_565 S
N771   Zn782   2.013   .     S
N771   H809    1.029   .     S
N771   N818    1.278   .     S
N772   Zn781   2.013   .     S
O773   Zn781   1.959   .     S
O774   Zn782   1.959   .     S
O775   Zn782   1.977   .     S
O776   Zn781   1.977   .     S
O777   Zn781   1.993   .     S
O778   Zn782   1.993   .     S
O779   Zn782   2.018   .     S
O780   Zn781   2.018   .     S
C783   O819    1.270   .     A
C783   C800    1.396   .     S
C783   O821    1.288   .     A
C784   C786    1.398   .     A
C784   I812    2.152   .     S
C784   C795    1.399   .     A
C785   C803    1.419   .     S
C785   C804    1.398   .     A
C785   C787    1.387   .     A
C786   C788    1.387   .     A
C786   C802    1.419   .     S
C787   H805    1.083   .     S
C787   C789    1.384   .     A
C788   H806    1.083   .     S
C788   C790    1.384   .     A
C789   C791    1.417   .     A
C789   C796    1.407   .     A
C790   C797    1.407   .     A
C790   C792    1.417   .     A
C791   C793    1.420   .     A
C792   C795    1.420   .     A
C792   C377    1.399   1_556 S
C793   C804    1.399   .     A
C793   C799    1.401   .     A
C794   O822    1.288   .     A
C794   C801    1.396   .     S
C794   O820    1.270   .     A
C795   C798    1.401   .     A
C796   I813    2.130   .     S
C797   I814    2.130   .     S
C797   C385    1.385   1_556 S
C798   H807    1.079   .     S
C798   C382    1.385   1_556 S
C799   H808    1.079   .     S
C800   C525    1.351   1_565 S
C800   I539    2.158   1_565 S
C802   O823    1.284   .     A
C802   O825    1.284   .     A
C803   O826    1.284   .     A
C803   O824    1.284   .     A
C804   I811    2.152   .     S
H810   N726    1.029   1_655 S
I816   C525    2.158   1_565 S
N817   Zn828   2.013   .     S
N817   H717    1.029   1_655 S
N817   N726    1.278   1_655 S
N818   Zn827   2.013   .     S
O819   Zn827   1.959   .     S
O820   Zn828   1.959   .     S
O821   Zn828   1.977   .     S
O822   Zn827   1.977   .     S
O823   Zn827   1.993   .     S
O824   Zn828   1.993   .     S
O825   Zn828   2.018   .     S
O826   Zn827   2.018   .     S
