data_str_m3_o1_o17_pcu_sym.39
_audit_creation_date              2020-01-03
_audit_creation_method            'Materials Studio'
_symmetry_space_group_name_H-M    'P1'
_symmetry_Int_Tables_number       1
_symmetry_cell_setting            triclinic
loop_
_symmetry_equiv_pos_as_xyz
  x,y,z
_cell_length_a                    32.0948
_cell_length_b                    29.5137
_cell_length_c                    29.9958
_cell_angle_alpha                 90.6191
_cell_angle_beta                  88.9064
_cell_angle_gamma                 88.7436
loop_
_atom_site_label
_atom_site_type_symbol
_atom_site_fract_x
_atom_site_fract_y
_atom_site_fract_z
_atom_site_U_iso_or_equiv
_atom_site_adp_type
_atom_site_occupancy
C1     C     0.08674   0.16728   0.25031   0.00000  Uiso   1.00
C2     C     0.04251   0.16890   0.24877   0.00000  Uiso   1.00
C3     C     0.19718   0.02348   0.27102   0.00000  Uiso   1.00
C4     C     0.13619   0.30985   0.22890   0.00000  Uiso   1.00
C5     C     0.13622   0.02447   0.22886   0.00000  Uiso   1.00
C6     C     0.19713   0.30886   0.27111   0.00000  Uiso   1.00
C7     C     0.16570   0.16650   0.16335   0.00000  Uiso   1.00
C8     C     0.16814   0.16690   0.33656   0.00000  Uiso   1.00
C9     C     0.20321   0.14276   0.40568   0.00000  Uiso   1.00
C10    C     0.14065   0.19782   0.09262   0.00000  Uiso   1.00
C11    C     0.17198   0.16838   0.38439   0.00000  Uiso   1.00
C12    C     0.24655   0.16611   0.24946   0.00000  Uiso   1.00
C13    C     0.16621   0.16667   0.11523   0.00000  Uiso   1.00
C14    C     0.14584   0.19903   0.40805   0.00000  Uiso   1.00
C15    C     0.19354   0.13646   0.09228   0.00000  Uiso   1.00
C16    C     0.15143   0.20563   0.45379   0.00000  Uiso   1.00
C17    C     0.20051   0.14160   0.04622   0.00000  Uiso   1.00
C18    C     0.17754   0.17477   0.47649   0.00000  Uiso   1.00
C19    C     0.17548   0.17342   0.02326   0.00000  Uiso   1.00
C20    C     0.20442   0.14421   0.45250   0.00000  Uiso   1.00
C21    C     0.14701   0.20277   0.04666   0.00000  Uiso   1.00
C22    C     0.13055   0.24104   0.47799   0.00000  Uiso   1.00
C23    C     0.12717   0.23816   0.02385   0.00000  Uiso   1.00
C24    C     0.23158   0.11598   0.02217   0.00000  Uiso   1.00
C25    C     0.23440   0.11544   0.37887   0.00000  Uiso   1.00
C26    C     0.10430   0.22074   0.11613   0.00000  Uiso   1.00
C27    C     0.04853   0.12436   0.17660   0.00000  Uiso   1.00
C28    C     0.28463   0.21165   0.32147   0.00000  Uiso   1.00
C29    C     0.29135   0.12069   0.17809   0.00000  Uiso   1.00
C30    C     0.04139   0.21441   0.32056   0.00000  Uiso   1.00
C31    C     0.23159   0.11570   0.47599   0.00000  Uiso   1.00
C32    C     0.02308   0.14535   0.21409   0.00000  Uiso   1.00
C33    C     0.31011   0.18919   0.28474   0.00000  Uiso   1.00
C34    C     0.31313   0.14288   0.21538   0.00000  Uiso   1.00
C35    C     0.02001   0.19149   0.28352   0.00000  Uiso   1.00
C36    C     0.29073   0.16489   0.25056   0.00000  Uiso   1.00
H37    H     0.11000   0.26497   0.04154   0.00000  Uiso   1.00
H38    H     0.20992   0.07337   0.09650   0.00000  Uiso   1.00
H39    H     0.13076   0.28534   0.43094   0.00000  Uiso   1.00
H40    H     0.27182   0.10965   0.06864   0.00000  Uiso   1.00
H41    H     0.07787   0.13904   0.16659   0.00000  Uiso   1.00
H42    H     0.25520   0.19754   0.33196   0.00000  Uiso   1.00
H43    H     0.29484   0.13366   0.14456   0.00000  Uiso   1.00
H44    H     0.03631   0.20296   0.35442   0.00000  Uiso   1.00
H45    H     0.25359   0.09293   0.45899   0.00000  Uiso   1.00
H46    H     0.22166   0.04120   0.28770   0.00000  Uiso   1.00
H47    H     0.11180   0.29210   0.21209   0.00000  Uiso   1.00
H48    H     0.11191   0.04300   0.21187   0.00000  Uiso   1.00
H49    H     0.22145   0.29033   0.28807   0.00000  Uiso   1.00
H50    H     0.22452   0.09185   0.35353   0.00000  Uiso   1.00
H51    H     0.10666   0.23448   0.14950   0.00000  Uiso   1.00
H52    H     0.08921   0.22289   0.40673   0.00000  Uiso   1.00
N53    N     0.16667   0.28573   0.25000   0.00000  Uiso   1.00
N54    N     0.16667   0.04760   0.25000   0.00000  Uiso   1.00
O55    O     0.10559   0.20487   0.25000   0.00000  Uiso   1.00
O56    O     0.07026   0.22278   0.09865   0.00000  Uiso   1.00
O57    O     0.11341   0.21967   0.38584   0.00000  Uiso   1.00
O58    O     0.21119   0.10100   0.11547   0.00000  Uiso   1.00
O59    O     0.11426   0.27950   0.45847   0.00000  Uiso   1.00
O60    O     0.26333   0.09201   0.04217   0.00000  Uiso   1.00
O61    O     0.03778   0.08991   0.15751   0.00000  Uiso   1.00
O62    O     0.29535   0.24685   0.33919   0.00000  Uiso   1.00
O63    O     0.27148   0.08647   0.18433   0.00000  Uiso   1.00
O64    O     0.06210   0.24794   0.31380   0.00000  Uiso   1.00
O65    O     0.22774   0.12846   0.25001   0.00000  Uiso   1.00
O66    O     0.22774   0.20487   0.25001   0.00000  Uiso   1.00
O67    O     0.10559   0.12846   0.25000   0.00000  Uiso   1.00
O68    O     0.16666   0.20489   0.18393   0.00000  Uiso   1.00
O69    O     0.16667   0.12844   0.31608   0.00000  Uiso   1.00
O70    O     0.16667   0.20489   0.31608   0.00000  Uiso   1.00
O71    O     0.16666   0.12844   0.18393   0.00000  Uiso   1.00
O72    O     0.27167   0.12008   0.38433   0.00000  Uiso   1.00
Zn73   Zn    0.16667   0.21771   0.25000   0.00000  Uiso   1.00
Zn74   Zn    0.16667   0.11563   0.25000   0.00000  Uiso   1.00
C75    C     0.42008   0.16728   0.25031   0.00000  Uiso   1.00
C76    C     0.37584   0.16890   0.24877   0.00000  Uiso   1.00
C77    C     0.53052   0.02348   0.27102   0.00000  Uiso   1.00
C78    C     0.46953   0.30985   0.22890   0.00000  Uiso   1.00
C79    C     0.46955   0.02447   0.22886   0.00000  Uiso   1.00
C80    C     0.53046   0.30886   0.27111   0.00000  Uiso   1.00
C81    C     0.49904   0.16650   0.16335   0.00000  Uiso   1.00
C82    C     0.50148   0.16690   0.33656   0.00000  Uiso   1.00
C83    C     0.53654   0.14276   0.40568   0.00000  Uiso   1.00
C84    C     0.47398   0.19782   0.09262   0.00000  Uiso   1.00
C85    C     0.50532   0.16838   0.38439   0.00000  Uiso   1.00
C86    C     0.57988   0.16611   0.24946   0.00000  Uiso   1.00
C87    C     0.49954   0.16667   0.11523   0.00000  Uiso   1.00
C88    C     0.47918   0.19903   0.40805   0.00000  Uiso   1.00
C89    C     0.52688   0.13646   0.09228   0.00000  Uiso   1.00
C90    C     0.48476   0.20563   0.45379   0.00000  Uiso   1.00
C91    C     0.53385   0.14160   0.04622   0.00000  Uiso   1.00
C92    C     0.51087   0.17477   0.47649   0.00000  Uiso   1.00
C93    C     0.50881   0.17342   0.02326   0.00000  Uiso   1.00
C94    C     0.53775   0.14421   0.45250   0.00000  Uiso   1.00
C95    C     0.48034   0.20277   0.04666   0.00000  Uiso   1.00
C96    C     0.46388   0.24104   0.47799   0.00000  Uiso   1.00
C97    C     0.46051   0.23816   0.02385   0.00000  Uiso   1.00
C98    C     0.56491   0.11598   0.02217   0.00000  Uiso   1.00
C99    C     0.56773   0.11544   0.37887   0.00000  Uiso   1.00
C100   C     0.43763   0.22074   0.11613   0.00000  Uiso   1.00
C101   C     0.38186   0.12436   0.17660   0.00000  Uiso   1.00
C102   C     0.61797   0.21165   0.32147   0.00000  Uiso   1.00
C103   C     0.62468   0.12069   0.17809   0.00000  Uiso   1.00
C104   C     0.37472   0.21441   0.32056   0.00000  Uiso   1.00
C105   C     0.56493   0.11570   0.47599   0.00000  Uiso   1.00
C106   C     0.35641   0.14535   0.21409   0.00000  Uiso   1.00
C107   C     0.64344   0.18919   0.28474   0.00000  Uiso   1.00
C108   C     0.64646   0.14288   0.21538   0.00000  Uiso   1.00
C109   C     0.35334   0.19149   0.28352   0.00000  Uiso   1.00
C110   C     0.62406   0.16489   0.25056   0.00000  Uiso   1.00
H111   H     0.44333   0.26497   0.04154   0.00000  Uiso   1.00
H112   H     0.54325   0.07337   0.09650   0.00000  Uiso   1.00
H113   H     0.46409   0.28534   0.43094   0.00000  Uiso   1.00
H114   H     0.60515   0.10965   0.06864   0.00000  Uiso   1.00
H115   H     0.41121   0.13904   0.16659   0.00000  Uiso   1.00
H116   H     0.58854   0.19754   0.33196   0.00000  Uiso   1.00
H117   H     0.62817   0.13366   0.14456   0.00000  Uiso   1.00
H118   H     0.36964   0.20296   0.35442   0.00000  Uiso   1.00
H119   H     0.58692   0.09293   0.45899   0.00000  Uiso   1.00
H120   H     0.55499   0.04120   0.28770   0.00000  Uiso   1.00
H121   H     0.44513   0.29210   0.21209   0.00000  Uiso   1.00
H122   H     0.44524   0.04300   0.21187   0.00000  Uiso   1.00
H123   H     0.55479   0.29033   0.28807   0.00000  Uiso   1.00
H124   H     0.55786   0.09185   0.35353   0.00000  Uiso   1.00
H125   H     0.44000   0.23448   0.14950   0.00000  Uiso   1.00
H126   H     0.42255   0.22289   0.40673   0.00000  Uiso   1.00
N127   N     0.50000   0.28573   0.25000   0.00000  Uiso   1.00
N128   N     0.50000   0.04760   0.25000   0.00000  Uiso   1.00
O129   O     0.43892   0.20487   0.25000   0.00000  Uiso   1.00
O130   O     0.40359   0.22278   0.09865   0.00000  Uiso   1.00
O131   O     0.44675   0.21967   0.38584   0.00000  Uiso   1.00
O132   O     0.54452   0.10100   0.11547   0.00000  Uiso   1.00
O133   O     0.44760   0.27950   0.45847   0.00000  Uiso   1.00
O134   O     0.59667   0.09201   0.04217   0.00000  Uiso   1.00
O135   O     0.37111   0.08991   0.15751   0.00000  Uiso   1.00
O136   O     0.62868   0.24685   0.33919   0.00000  Uiso   1.00
O137   O     0.60481   0.08647   0.18433   0.00000  Uiso   1.00
O138   O     0.39543   0.24794   0.31380   0.00000  Uiso   1.00
O139   O     0.56108   0.12846   0.25001   0.00000  Uiso   1.00
O140   O     0.56108   0.20487   0.25001   0.00000  Uiso   1.00
O141   O     0.43892   0.12846   0.25000   0.00000  Uiso   1.00
O142   O     0.49999   0.20489   0.18393   0.00000  Uiso   1.00
O143   O     0.50001   0.12844   0.31608   0.00000  Uiso   1.00
O144   O     0.50001   0.20489   0.31608   0.00000  Uiso   1.00
O145   O     0.49999   0.12844   0.18393   0.00000  Uiso   1.00
O146   O     0.60501   0.12008   0.38433   0.00000  Uiso   1.00
Zn147  Zn    0.50000   0.21771   0.25000   0.00000  Uiso   1.00
Zn148  Zn    0.50000   0.11563   0.25000   0.00000  Uiso   1.00
C149   C     0.75341   0.16728   0.25031   0.00000  Uiso   1.00
C150   C     0.70918   0.16890   0.24877   0.00000  Uiso   1.00
C151   C     0.86385   0.02348   0.27102   0.00000  Uiso   1.00
C152   C     0.80286   0.30985   0.22890   0.00000  Uiso   1.00
C153   C     0.80289   0.02447   0.22886   0.00000  Uiso   1.00
C154   C     0.86380   0.30886   0.27111   0.00000  Uiso   1.00
C155   C     0.83237   0.16650   0.16335   0.00000  Uiso   1.00
C156   C     0.83481   0.16690   0.33656   0.00000  Uiso   1.00
C157   C     0.86987   0.14276   0.40568   0.00000  Uiso   1.00
C158   C     0.80732   0.19782   0.09262   0.00000  Uiso   1.00
C159   C     0.83865   0.16838   0.38439   0.00000  Uiso   1.00
C160   C     0.91322   0.16611   0.24946   0.00000  Uiso   1.00
C161   C     0.83287   0.16667   0.11523   0.00000  Uiso   1.00
C162   C     0.81251   0.19903   0.40805   0.00000  Uiso   1.00
C163   C     0.86021   0.13646   0.09228   0.00000  Uiso   1.00
C164   C     0.81809   0.20563   0.45379   0.00000  Uiso   1.00
C165   C     0.86718   0.14160   0.04622   0.00000  Uiso   1.00
C166   C     0.84420   0.17477   0.47649   0.00000  Uiso   1.00
C167   C     0.84215   0.17342   0.02326   0.00000  Uiso   1.00
C168   C     0.87109   0.14421   0.45250   0.00000  Uiso   1.00
C169   C     0.81368   0.20277   0.04666   0.00000  Uiso   1.00
C170   C     0.79722   0.24104   0.47799   0.00000  Uiso   1.00
C171   C     0.79384   0.23816   0.02385   0.00000  Uiso   1.00
C172   C     0.89825   0.11598   0.02217   0.00000  Uiso   1.00
C173   C     0.90106   0.11544   0.37887   0.00000  Uiso   1.00
C174   C     0.77096   0.22074   0.11613   0.00000  Uiso   1.00
C175   C     0.71519   0.12436   0.17660   0.00000  Uiso   1.00
C176   C     0.95130   0.21165   0.32147   0.00000  Uiso   1.00
C177   C     0.95802   0.12069   0.17809   0.00000  Uiso   1.00
C178   C     0.70806   0.21441   0.32056   0.00000  Uiso   1.00
C179   C     0.89826   0.11570   0.47599   0.00000  Uiso   1.00
C180   C     0.68974   0.14535   0.21409   0.00000  Uiso   1.00
C181   C     0.97677   0.18919   0.28474   0.00000  Uiso   1.00
C182   C     0.97979   0.14288   0.21538   0.00000  Uiso   1.00
C183   C     0.68667   0.19149   0.28352   0.00000  Uiso   1.00
C184   C     0.95739   0.16489   0.25056   0.00000  Uiso   1.00
H185   H     0.77666   0.26497   0.04154   0.00000  Uiso   1.00
H186   H     0.87659   0.07337   0.09650   0.00000  Uiso   1.00
H187   H     0.79742   0.28534   0.43094   0.00000  Uiso   1.00
H188   H     0.93849   0.10965   0.06864   0.00000  Uiso   1.00
H189   H     0.74454   0.13904   0.16659   0.00000  Uiso   1.00
H190   H     0.92187   0.19754   0.33196   0.00000  Uiso   1.00
H191   H     0.96151   0.13366   0.14456   0.00000  Uiso   1.00
H192   H     0.70298   0.20296   0.35442   0.00000  Uiso   1.00
H193   H     0.92026   0.09293   0.45899   0.00000  Uiso   1.00
H194   H     0.88833   0.04120   0.28770   0.00000  Uiso   1.00
H195   H     0.77846   0.29210   0.21209   0.00000  Uiso   1.00
H196   H     0.77857   0.04300   0.21187   0.00000  Uiso   1.00
H197   H     0.88812   0.29033   0.28807   0.00000  Uiso   1.00
H198   H     0.89119   0.09185   0.35353   0.00000  Uiso   1.00
H199   H     0.77333   0.23448   0.14950   0.00000  Uiso   1.00
H200   H     0.75588   0.22289   0.40673   0.00000  Uiso   1.00
N201   N     0.83333   0.28573   0.25000   0.00000  Uiso   1.00
N202   N     0.83333   0.04760   0.25000   0.00000  Uiso   1.00
O203   O     0.77226   0.20487   0.25000   0.00000  Uiso   1.00
O204   O     0.73692   0.22278   0.09865   0.00000  Uiso   1.00
O205   O     0.78008   0.21967   0.38584   0.00000  Uiso   1.00
O206   O     0.87786   0.10100   0.11547   0.00000  Uiso   1.00
O207   O     0.78093   0.27950   0.45847   0.00000  Uiso   1.00
O208   O     0.93000   0.09201   0.04217   0.00000  Uiso   1.00
O209   O     0.70445   0.08991   0.15751   0.00000  Uiso   1.00
O210   O     0.96201   0.24685   0.33919   0.00000  Uiso   1.00
O211   O     0.93814   0.08647   0.18433   0.00000  Uiso   1.00
O212   O     0.72876   0.24794   0.31380   0.00000  Uiso   1.00
O213   O     0.89441   0.12846   0.25001   0.00000  Uiso   1.00
O214   O     0.89441   0.20487   0.25001   0.00000  Uiso   1.00
O215   O     0.77226   0.12846   0.25000   0.00000  Uiso   1.00
O216   O     0.83333   0.20489   0.18393   0.00000  Uiso   1.00
O217   O     0.83334   0.12844   0.31608   0.00000  Uiso   1.00
O218   O     0.83334   0.20489   0.31608   0.00000  Uiso   1.00
O219   O     0.83333   0.12844   0.18393   0.00000  Uiso   1.00
O220   O     0.93834   0.12008   0.38433   0.00000  Uiso   1.00
Zn221  Zn    0.83333   0.21771   0.25000   0.00000  Uiso   1.00
Zn222  Zn    0.83333   0.11563   0.25000   0.00000  Uiso   1.00
C223   C     0.08674   0.50061   0.25031   0.00000  Uiso   1.00
C224   C     0.04251   0.50224   0.24877   0.00000  Uiso   1.00
C225   C     0.19718   0.35681   0.27102   0.00000  Uiso   1.00
C226   C     0.13619   0.64318   0.22890   0.00000  Uiso   1.00
C227   C     0.13622   0.35780   0.22886   0.00000  Uiso   1.00
C228   C     0.19713   0.64219   0.27111   0.00000  Uiso   1.00
C229   C     0.16570   0.49983   0.16335   0.00000  Uiso   1.00
C230   C     0.16814   0.50023   0.33656   0.00000  Uiso   1.00
C231   C     0.20321   0.47609   0.40568   0.00000  Uiso   1.00
C232   C     0.14065   0.53116   0.09262   0.00000  Uiso   1.00
C233   C     0.17198   0.50171   0.38439   0.00000  Uiso   1.00
C234   C     0.24655   0.49945   0.24946   0.00000  Uiso   1.00
C235   C     0.16621   0.50000   0.11523   0.00000  Uiso   1.00
C236   C     0.14584   0.53236   0.40805   0.00000  Uiso   1.00
C237   C     0.19354   0.46979   0.09228   0.00000  Uiso   1.00
C238   C     0.15143   0.53896   0.45379   0.00000  Uiso   1.00
C239   C     0.20051   0.47494   0.04622   0.00000  Uiso   1.00
C240   C     0.17754   0.50810   0.47649   0.00000  Uiso   1.00
C241   C     0.17548   0.50675   0.02326   0.00000  Uiso   1.00
C242   C     0.20442   0.47754   0.45250   0.00000  Uiso   1.00
C243   C     0.14701   0.53611   0.04666   0.00000  Uiso   1.00
C244   C     0.13055   0.57437   0.47799   0.00000  Uiso   1.00
C245   C     0.12717   0.57150   0.02385   0.00000  Uiso   1.00
C246   C     0.23158   0.44931   0.02217   0.00000  Uiso   1.00
C247   C     0.23440   0.44878   0.37887   0.00000  Uiso   1.00
C248   C     0.10430   0.55408   0.11613   0.00000  Uiso   1.00
C249   C     0.04853   0.45769   0.17660   0.00000  Uiso   1.00
C250   C     0.28463   0.54498   0.32147   0.00000  Uiso   1.00
C251   C     0.29135   0.45402   0.17809   0.00000  Uiso   1.00
C252   C     0.04139   0.54775   0.32056   0.00000  Uiso   1.00
C253   C     0.23159   0.44904   0.47599   0.00000  Uiso   1.00
C254   C     0.02308   0.47868   0.21409   0.00000  Uiso   1.00
C255   C     0.31011   0.52253   0.28474   0.00000  Uiso   1.00
C256   C     0.31313   0.47621   0.21538   0.00000  Uiso   1.00
C257   C     0.02001   0.52482   0.28352   0.00000  Uiso   1.00
C258   C     0.29073   0.49822   0.25056   0.00000  Uiso   1.00
H259   H     0.11000   0.59830   0.04154   0.00000  Uiso   1.00
H260   H     0.20992   0.40671   0.09650   0.00000  Uiso   1.00
H261   H     0.13076   0.61867   0.43094   0.00000  Uiso   1.00
H262   H     0.27182   0.44298   0.06864   0.00000  Uiso   1.00
H263   H     0.07787   0.47237   0.16659   0.00000  Uiso   1.00
H264   H     0.25520   0.53087   0.33196   0.00000  Uiso   1.00
H265   H     0.29484   0.46699   0.14456   0.00000  Uiso   1.00
H266   H     0.03631   0.53629   0.35442   0.00000  Uiso   1.00
H267   H     0.25359   0.42626   0.45899   0.00000  Uiso   1.00
H268   H     0.22166   0.37454   0.28770   0.00000  Uiso   1.00
H269   H     0.11180   0.62544   0.21209   0.00000  Uiso   1.00
H270   H     0.11191   0.37633   0.21187   0.00000  Uiso   1.00
H271   H     0.22145   0.62367   0.28807   0.00000  Uiso   1.00
H272   H     0.22452   0.42518   0.35353   0.00000  Uiso   1.00
H273   H     0.10666   0.56781   0.14950   0.00000  Uiso   1.00
H274   H     0.08921   0.55622   0.40673   0.00000  Uiso   1.00
N275   N     0.16667   0.61907   0.25000   0.00000  Uiso   1.00
N276   N     0.16667   0.38093   0.25000   0.00000  Uiso   1.00
O277   O     0.10559   0.53821   0.25000   0.00000  Uiso   1.00
O278   O     0.07026   0.55611   0.09865   0.00000  Uiso   1.00
O279   O     0.11341   0.55300   0.38584   0.00000  Uiso   1.00
O280   O     0.21119   0.43433   0.11547   0.00000  Uiso   1.00
O281   O     0.11426   0.61283   0.45847   0.00000  Uiso   1.00
O282   O     0.26333   0.42534   0.04217   0.00000  Uiso   1.00
O283   O     0.03778   0.42324   0.15751   0.00000  Uiso   1.00
O284   O     0.29535   0.58019   0.33919   0.00000  Uiso   1.00
O285   O     0.27148   0.41981   0.18433   0.00000  Uiso   1.00
O286   O     0.06210   0.58127   0.31380   0.00000  Uiso   1.00
O287   O     0.22774   0.46179   0.25001   0.00000  Uiso   1.00
O288   O     0.22774   0.53821   0.25001   0.00000  Uiso   1.00
O289   O     0.10559   0.46179   0.25000   0.00000  Uiso   1.00
O290   O     0.16666   0.53823   0.18393   0.00000  Uiso   1.00
O291   O     0.16667   0.46177   0.31608   0.00000  Uiso   1.00
O292   O     0.16667   0.53823   0.31608   0.00000  Uiso   1.00
O293   O     0.16666   0.46177   0.18393   0.00000  Uiso   1.00
O294   O     0.27167   0.45341   0.38433   0.00000  Uiso   1.00
Zn295  Zn    0.16667   0.55104   0.25000   0.00000  Uiso   1.00
Zn296  Zn    0.16667   0.44896   0.25000   0.00000  Uiso   1.00
C297   C     0.42008   0.50061   0.25031   0.00000  Uiso   1.00
C298   C     0.37584   0.50224   0.24877   0.00000  Uiso   1.00
C299   C     0.53052   0.35681   0.27102   0.00000  Uiso   1.00
C300   C     0.46953   0.64318   0.22890   0.00000  Uiso   1.00
C301   C     0.46955   0.35780   0.22886   0.00000  Uiso   1.00
C302   C     0.53046   0.64219   0.27111   0.00000  Uiso   1.00
C303   C     0.49904   0.49983   0.16335   0.00000  Uiso   1.00
C304   C     0.50148   0.50023   0.33656   0.00000  Uiso   1.00
C305   C     0.53654   0.47609   0.40568   0.00000  Uiso   1.00
C306   C     0.47398   0.53116   0.09262   0.00000  Uiso   1.00
C307   C     0.50532   0.50171   0.38439   0.00000  Uiso   1.00
C308   C     0.57988   0.49945   0.24946   0.00000  Uiso   1.00
C309   C     0.49954   0.50000   0.11523   0.00000  Uiso   1.00
C310   C     0.47918   0.53236   0.40805   0.00000  Uiso   1.00
C311   C     0.52688   0.46979   0.09228   0.00000  Uiso   1.00
C312   C     0.48476   0.53896   0.45379   0.00000  Uiso   1.00
C313   C     0.53385   0.47494   0.04622   0.00000  Uiso   1.00
C314   C     0.51087   0.50810   0.47649   0.00000  Uiso   1.00
C315   C     0.50881   0.50675   0.02326   0.00000  Uiso   1.00
C316   C     0.53775   0.47754   0.45250   0.00000  Uiso   1.00
C317   C     0.48034   0.53611   0.04666   0.00000  Uiso   1.00
C318   C     0.46388   0.57437   0.47799   0.00000  Uiso   1.00
C319   C     0.46051   0.57150   0.02385   0.00000  Uiso   1.00
C320   C     0.56491   0.44931   0.02217   0.00000  Uiso   1.00
C321   C     0.56773   0.44878   0.37887   0.00000  Uiso   1.00
C322   C     0.43763   0.55408   0.11613   0.00000  Uiso   1.00
C323   C     0.38186   0.45769   0.17660   0.00000  Uiso   1.00
C324   C     0.61797   0.54498   0.32147   0.00000  Uiso   1.00
C325   C     0.62468   0.45402   0.17809   0.00000  Uiso   1.00
C326   C     0.37472   0.54775   0.32056   0.00000  Uiso   1.00
C327   C     0.56493   0.44904   0.47599   0.00000  Uiso   1.00
C328   C     0.35641   0.47868   0.21409   0.00000  Uiso   1.00
C329   C     0.64344   0.52253   0.28474   0.00000  Uiso   1.00
C330   C     0.64646   0.47621   0.21538   0.00000  Uiso   1.00
C331   C     0.35334   0.52482   0.28352   0.00000  Uiso   1.00
C332   C     0.62406   0.49822   0.25056   0.00000  Uiso   1.00
H333   H     0.44333   0.59830   0.04154   0.00000  Uiso   1.00
H334   H     0.54325   0.40671   0.09650   0.00000  Uiso   1.00
H335   H     0.46409   0.61867   0.43094   0.00000  Uiso   1.00
H336   H     0.60515   0.44298   0.06864   0.00000  Uiso   1.00
H337   H     0.41121   0.47237   0.16659   0.00000  Uiso   1.00
H338   H     0.58854   0.53087   0.33196   0.00000  Uiso   1.00
H339   H     0.62817   0.46699   0.14456   0.00000  Uiso   1.00
H340   H     0.36964   0.53629   0.35442   0.00000  Uiso   1.00
H341   H     0.58692   0.42626   0.45899   0.00000  Uiso   1.00
H342   H     0.55499   0.37454   0.28770   0.00000  Uiso   1.00
H343   H     0.44513   0.62544   0.21209   0.00000  Uiso   1.00
H344   H     0.44524   0.37633   0.21187   0.00000  Uiso   1.00
H345   H     0.55479   0.62367   0.28807   0.00000  Uiso   1.00
H346   H     0.55786   0.42518   0.35353   0.00000  Uiso   1.00
H347   H     0.44000   0.56781   0.14950   0.00000  Uiso   1.00
H348   H     0.42255   0.55622   0.40673   0.00000  Uiso   1.00
N349   N     0.50000   0.61907   0.25000   0.00000  Uiso   1.00
N350   N     0.50000   0.38093   0.25000   0.00000  Uiso   1.00
O351   O     0.43892   0.53821   0.25000   0.00000  Uiso   1.00
O352   O     0.40359   0.55611   0.09865   0.00000  Uiso   1.00
O353   O     0.44675   0.55300   0.38584   0.00000  Uiso   1.00
O354   O     0.54452   0.43433   0.11547   0.00000  Uiso   1.00
O355   O     0.44760   0.61283   0.45847   0.00000  Uiso   1.00
O356   O     0.59667   0.42534   0.04217   0.00000  Uiso   1.00
O357   O     0.37111   0.42324   0.15751   0.00000  Uiso   1.00
O358   O     0.62868   0.58019   0.33919   0.00000  Uiso   1.00
O359   O     0.60481   0.41981   0.18433   0.00000  Uiso   1.00
O360   O     0.39543   0.58127   0.31380   0.00000  Uiso   1.00
O361   O     0.56108   0.46179   0.25001   0.00000  Uiso   1.00
O362   O     0.56108   0.53821   0.25001   0.00000  Uiso   1.00
O363   O     0.43892   0.46179   0.25000   0.00000  Uiso   1.00
O364   O     0.49999   0.53823   0.18393   0.00000  Uiso   1.00
O365   O     0.50001   0.46177   0.31608   0.00000  Uiso   1.00
O366   O     0.50001   0.53823   0.31608   0.00000  Uiso   1.00
O367   O     0.49999   0.46177   0.18393   0.00000  Uiso   1.00
O368   O     0.60501   0.45341   0.38433   0.00000  Uiso   1.00
Zn369  Zn    0.50000   0.55104   0.25000   0.00000  Uiso   1.00
Zn370  Zn    0.50000   0.44896   0.25000   0.00000  Uiso   1.00
C371   C     0.75341   0.50061   0.25031   0.00000  Uiso   1.00
C372   C     0.70918   0.50224   0.24877   0.00000  Uiso   1.00
C373   C     0.86385   0.35681   0.27102   0.00000  Uiso   1.00
C374   C     0.80286   0.64318   0.22890   0.00000  Uiso   1.00
C375   C     0.80289   0.35780   0.22886   0.00000  Uiso   1.00
C376   C     0.86380   0.64219   0.27111   0.00000  Uiso   1.00
C377   C     0.83237   0.49983   0.16335   0.00000  Uiso   1.00
C378   C     0.83481   0.50023   0.33656   0.00000  Uiso   1.00
C379   C     0.86987   0.47609   0.40568   0.00000  Uiso   1.00
C380   C     0.80732   0.53116   0.09262   0.00000  Uiso   1.00
C381   C     0.83865   0.50171   0.38439   0.00000  Uiso   1.00
C382   C     0.91322   0.49945   0.24946   0.00000  Uiso   1.00
C383   C     0.83287   0.50000   0.11523   0.00000  Uiso   1.00
C384   C     0.81251   0.53236   0.40805   0.00000  Uiso   1.00
C385   C     0.86021   0.46979   0.09228   0.00000  Uiso   1.00
C386   C     0.81809   0.53896   0.45379   0.00000  Uiso   1.00
C387   C     0.86718   0.47494   0.04622   0.00000  Uiso   1.00
C388   C     0.84420   0.50810   0.47649   0.00000  Uiso   1.00
C389   C     0.84215   0.50675   0.02326   0.00000  Uiso   1.00
C390   C     0.87109   0.47754   0.45250   0.00000  Uiso   1.00
C391   C     0.81368   0.53611   0.04666   0.00000  Uiso   1.00
C392   C     0.79722   0.57437   0.47799   0.00000  Uiso   1.00
C393   C     0.79384   0.57150   0.02385   0.00000  Uiso   1.00
C394   C     0.89825   0.44931   0.02217   0.00000  Uiso   1.00
C395   C     0.90106   0.44878   0.37887   0.00000  Uiso   1.00
C396   C     0.77096   0.55408   0.11613   0.00000  Uiso   1.00
C397   C     0.71519   0.45769   0.17660   0.00000  Uiso   1.00
C398   C     0.95130   0.54498   0.32147   0.00000  Uiso   1.00
C399   C     0.95802   0.45402   0.17809   0.00000  Uiso   1.00
C400   C     0.70806   0.54775   0.32056   0.00000  Uiso   1.00
C401   C     0.89826   0.44904   0.47599   0.00000  Uiso   1.00
C402   C     0.68974   0.47868   0.21409   0.00000  Uiso   1.00
C403   C     0.97677   0.52253   0.28474   0.00000  Uiso   1.00
C404   C     0.97979   0.47621   0.21538   0.00000  Uiso   1.00
C405   C     0.68667   0.52482   0.28352   0.00000  Uiso   1.00
C406   C     0.95739   0.49822   0.25056   0.00000  Uiso   1.00
H407   H     0.77666   0.59830   0.04154   0.00000  Uiso   1.00
H408   H     0.87659   0.40671   0.09650   0.00000  Uiso   1.00
H409   H     0.79742   0.61867   0.43094   0.00000  Uiso   1.00
H410   H     0.93849   0.44298   0.06864   0.00000  Uiso   1.00
H411   H     0.74454   0.47237   0.16659   0.00000  Uiso   1.00
H412   H     0.92187   0.53087   0.33196   0.00000  Uiso   1.00
H413   H     0.96151   0.46699   0.14456   0.00000  Uiso   1.00
H414   H     0.70298   0.53629   0.35442   0.00000  Uiso   1.00
H415   H     0.92026   0.42626   0.45899   0.00000  Uiso   1.00
H416   H     0.88833   0.37454   0.28770   0.00000  Uiso   1.00
H417   H     0.77846   0.62544   0.21209   0.00000  Uiso   1.00
H418   H     0.77857   0.37633   0.21187   0.00000  Uiso   1.00
H419   H     0.88812   0.62367   0.28807   0.00000  Uiso   1.00
H420   H     0.89119   0.42518   0.35353   0.00000  Uiso   1.00
H421   H     0.77333   0.56781   0.14950   0.00000  Uiso   1.00
H422   H     0.75588   0.55622   0.40673   0.00000  Uiso   1.00
N423   N     0.83333   0.61907   0.25000   0.00000  Uiso   1.00
N424   N     0.83333   0.38093   0.25000   0.00000  Uiso   1.00
O425   O     0.77226   0.53821   0.25000   0.00000  Uiso   1.00
O426   O     0.73692   0.55611   0.09865   0.00000  Uiso   1.00
O427   O     0.78008   0.55300   0.38584   0.00000  Uiso   1.00
O428   O     0.87786   0.43433   0.11547   0.00000  Uiso   1.00
O429   O     0.78093   0.61283   0.45847   0.00000  Uiso   1.00
O430   O     0.93000   0.42534   0.04217   0.00000  Uiso   1.00
O431   O     0.70445   0.42324   0.15751   0.00000  Uiso   1.00
O432   O     0.96201   0.58019   0.33919   0.00000  Uiso   1.00
O433   O     0.93814   0.41981   0.18433   0.00000  Uiso   1.00
O434   O     0.72876   0.58127   0.31380   0.00000  Uiso   1.00
O435   O     0.89441   0.46179   0.25001   0.00000  Uiso   1.00
O436   O     0.89441   0.53821   0.25001   0.00000  Uiso   1.00
O437   O     0.77226   0.46179   0.25000   0.00000  Uiso   1.00
O438   O     0.83333   0.53823   0.18393   0.00000  Uiso   1.00
O439   O     0.83334   0.46177   0.31608   0.00000  Uiso   1.00
O440   O     0.83334   0.53823   0.31608   0.00000  Uiso   1.00
O441   O     0.83333   0.46177   0.18393   0.00000  Uiso   1.00
O442   O     0.93834   0.45341   0.38433   0.00000  Uiso   1.00
Zn443  Zn    0.83333   0.55104   0.25000   0.00000  Uiso   1.00
Zn444  Zn    0.83333   0.44896   0.25000   0.00000  Uiso   1.00
C445   C     0.08674   0.83394   0.25031   0.00000  Uiso   1.00
C446   C     0.04251   0.83557   0.24877   0.00000  Uiso   1.00
C447   C     0.19718   0.69015   0.27102   0.00000  Uiso   1.00
C448   C     0.13619   0.97651   0.22890   0.00000  Uiso   1.00
C449   C     0.13622   0.69114   0.22886   0.00000  Uiso   1.00
C450   C     0.19713   0.97553   0.27111   0.00000  Uiso   1.00
C451   C     0.16570   0.83316   0.16335   0.00000  Uiso   1.00
C452   C     0.16814   0.83357   0.33656   0.00000  Uiso   1.00
C453   C     0.20321   0.80942   0.40568   0.00000  Uiso   1.00
C454   C     0.14065   0.86449   0.09262   0.00000  Uiso   1.00
C455   C     0.17198   0.83504   0.38439   0.00000  Uiso   1.00
C456   C     0.24655   0.83278   0.24946   0.00000  Uiso   1.00
C457   C     0.16621   0.83333   0.11523   0.00000  Uiso   1.00
C458   C     0.14584   0.86570   0.40805   0.00000  Uiso   1.00
C459   C     0.19354   0.80312   0.09228   0.00000  Uiso   1.00
C460   C     0.15143   0.87229   0.45379   0.00000  Uiso   1.00
C461   C     0.20051   0.80827   0.04622   0.00000  Uiso   1.00
C462   C     0.17754   0.84143   0.47649   0.00000  Uiso   1.00
C463   C     0.17548   0.84008   0.02326   0.00000  Uiso   1.00
C464   C     0.20442   0.81087   0.45250   0.00000  Uiso   1.00
C465   C     0.14701   0.86944   0.04666   0.00000  Uiso   1.00
C466   C     0.13055   0.90770   0.47799   0.00000  Uiso   1.00
C467   C     0.12717   0.90483   0.02385   0.00000  Uiso   1.00
C468   C     0.23158   0.78265   0.02217   0.00000  Uiso   1.00
C469   C     0.23440   0.78211   0.37887   0.00000  Uiso   1.00
C470   C     0.10430   0.88741   0.11613   0.00000  Uiso   1.00
C471   C     0.04853   0.79102   0.17660   0.00000  Uiso   1.00
C472   C     0.28463   0.87832   0.32147   0.00000  Uiso   1.00
C473   C     0.29135   0.78735   0.17809   0.00000  Uiso   1.00
C474   C     0.04139   0.88108   0.32056   0.00000  Uiso   1.00
C475   C     0.23159   0.78237   0.47599   0.00000  Uiso   1.00
C476   C     0.02308   0.81201   0.21409   0.00000  Uiso   1.00
C477   C     0.31011   0.85586   0.28474   0.00000  Uiso   1.00
C478   C     0.31313   0.80954   0.21538   0.00000  Uiso   1.00
C479   C     0.02001   0.85816   0.28352   0.00000  Uiso   1.00
C480   C     0.29073   0.83155   0.25056   0.00000  Uiso   1.00
H481   H     0.11000   0.93164   0.04154   0.00000  Uiso   1.00
H482   H     0.20992   0.74004   0.09650   0.00000  Uiso   1.00
H483   H     0.13076   0.95200   0.43094   0.00000  Uiso   1.00
H484   H     0.27182   0.77632   0.06864   0.00000  Uiso   1.00
H485   H     0.07787   0.80570   0.16659   0.00000  Uiso   1.00
H486   H     0.25520   0.86421   0.33196   0.00000  Uiso   1.00
H487   H     0.29484   0.80032   0.14456   0.00000  Uiso   1.00
H488   H     0.03631   0.86963   0.35442   0.00000  Uiso   1.00
H489   H     0.25359   0.75959   0.45899   0.00000  Uiso   1.00
H490   H     0.22166   0.70787   0.28770   0.00000  Uiso   1.00
H491   H     0.11180   0.95877   0.21209   0.00000  Uiso   1.00
H492   H     0.11191   0.70967   0.21187   0.00000  Uiso   1.00
H493   H     0.22145   0.95700   0.28807   0.00000  Uiso   1.00
H494   H     0.22452   0.75852   0.35353   0.00000  Uiso   1.00
H495   H     0.10666   0.90115   0.14950   0.00000  Uiso   1.00
H496   H     0.08921   0.88956   0.40673   0.00000  Uiso   1.00
N497   N     0.16667   0.95240   0.25000   0.00000  Uiso   1.00
N498   N     0.16667   0.71427   0.25000   0.00000  Uiso   1.00
O499   O     0.10559   0.87154   0.25000   0.00000  Uiso   1.00
O500   O     0.07026   0.88945   0.09865   0.00000  Uiso   1.00
O501   O     0.11341   0.88633   0.38584   0.00000  Uiso   1.00
O502   O     0.21119   0.76767   0.11547   0.00000  Uiso   1.00
O503   O     0.11426   0.94616   0.45847   0.00000  Uiso   1.00
O504   O     0.26333   0.75868   0.04217   0.00000  Uiso   1.00
O505   O     0.03778   0.75658   0.15751   0.00000  Uiso   1.00
O506   O     0.29535   0.91352   0.33919   0.00000  Uiso   1.00
O507   O     0.27148   0.75314   0.18433   0.00000  Uiso   1.00
O508   O     0.06210   0.91460   0.31380   0.00000  Uiso   1.00
O509   O     0.22774   0.79513   0.25001   0.00000  Uiso   1.00
O510   O     0.22774   0.87154   0.25001   0.00000  Uiso   1.00
O511   O     0.10559   0.79513   0.25000   0.00000  Uiso   1.00
O512   O     0.16666   0.87156   0.18393   0.00000  Uiso   1.00
O513   O     0.16667   0.79511   0.31608   0.00000  Uiso   1.00
O514   O     0.16667   0.87156   0.31608   0.00000  Uiso   1.00
O515   O     0.16666   0.79511   0.18393   0.00000  Uiso   1.00
O516   O     0.27167   0.78674   0.38433   0.00000  Uiso   1.00
Zn517  Zn    0.16667   0.88437   0.25000   0.00000  Uiso   1.00
Zn518  Zn    0.16667   0.78229   0.25000   0.00000  Uiso   1.00
C519   C     0.42008   0.83394   0.25031   0.00000  Uiso   1.00
C520   C     0.37584   0.83557   0.24877   0.00000  Uiso   1.00
C521   C     0.53052   0.69015   0.27102   0.00000  Uiso   1.00
C522   C     0.46953   0.97651   0.22890   0.00000  Uiso   1.00
C523   C     0.46955   0.69114   0.22886   0.00000  Uiso   1.00
C524   C     0.53046   0.97553   0.27111   0.00000  Uiso   1.00
C525   C     0.49904   0.83316   0.16335   0.00000  Uiso   1.00
C526   C     0.50148   0.83357   0.33656   0.00000  Uiso   1.00
C527   C     0.53654   0.80942   0.40568   0.00000  Uiso   1.00
C528   C     0.47398   0.86449   0.09262   0.00000  Uiso   1.00
C529   C     0.50532   0.83504   0.38439   0.00000  Uiso   1.00
C530   C     0.57988   0.83278   0.24946   0.00000  Uiso   1.00
C531   C     0.49954   0.83333   0.11523   0.00000  Uiso   1.00
C532   C     0.47918   0.86570   0.40805   0.00000  Uiso   1.00
C533   C     0.52688   0.80312   0.09228   0.00000  Uiso   1.00
C534   C     0.48476   0.87229   0.45379   0.00000  Uiso   1.00
C535   C     0.53385   0.80827   0.04622   0.00000  Uiso   1.00
C536   C     0.51087   0.84143   0.47649   0.00000  Uiso   1.00
C537   C     0.50881   0.84008   0.02326   0.00000  Uiso   1.00
C538   C     0.53775   0.81087   0.45250   0.00000  Uiso   1.00
C539   C     0.48034   0.86944   0.04666   0.00000  Uiso   1.00
C540   C     0.46388   0.90770   0.47799   0.00000  Uiso   1.00
C541   C     0.46051   0.90483   0.02385   0.00000  Uiso   1.00
C542   C     0.56491   0.78265   0.02217   0.00000  Uiso   1.00
C543   C     0.56773   0.78211   0.37887   0.00000  Uiso   1.00
C544   C     0.43763   0.88741   0.11613   0.00000  Uiso   1.00
C545   C     0.38186   0.79102   0.17660   0.00000  Uiso   1.00
C546   C     0.61797   0.87832   0.32147   0.00000  Uiso   1.00
C547   C     0.62468   0.78735   0.17809   0.00000  Uiso   1.00
C548   C     0.37472   0.88108   0.32056   0.00000  Uiso   1.00
C549   C     0.56493   0.78237   0.47599   0.00000  Uiso   1.00
C550   C     0.35641   0.81201   0.21409   0.00000  Uiso   1.00
C551   C     0.64344   0.85586   0.28474   0.00000  Uiso   1.00
C552   C     0.64646   0.80954   0.21538   0.00000  Uiso   1.00
C553   C     0.35334   0.85816   0.28352   0.00000  Uiso   1.00
C554   C     0.62406   0.83155   0.25056   0.00000  Uiso   1.00
H555   H     0.44333   0.93164   0.04154   0.00000  Uiso   1.00
H556   H     0.54325   0.74004   0.09650   0.00000  Uiso   1.00
H557   H     0.46409   0.95200   0.43094   0.00000  Uiso   1.00
H558   H     0.60515   0.77632   0.06864   0.00000  Uiso   1.00
H559   H     0.41121   0.80570   0.16659   0.00000  Uiso   1.00
H560   H     0.58854   0.86421   0.33196   0.00000  Uiso   1.00
H561   H     0.62817   0.80032   0.14456   0.00000  Uiso   1.00
H562   H     0.36964   0.86963   0.35442   0.00000  Uiso   1.00
H563   H     0.58692   0.75959   0.45899   0.00000  Uiso   1.00
H564   H     0.55499   0.70787   0.28770   0.00000  Uiso   1.00
H565   H     0.44513   0.95877   0.21209   0.00000  Uiso   1.00
H566   H     0.44524   0.70967   0.21187   0.00000  Uiso   1.00
H567   H     0.55479   0.95700   0.28807   0.00000  Uiso   1.00
H568   H     0.55786   0.75852   0.35353   0.00000  Uiso   1.00
H569   H     0.44000   0.90115   0.14950   0.00000  Uiso   1.00
H570   H     0.42255   0.88956   0.40673   0.00000  Uiso   1.00
N571   N     0.50000   0.95240   0.25000   0.00000  Uiso   1.00
N572   N     0.50000   0.71427   0.25000   0.00000  Uiso   1.00
O573   O     0.43892   0.87154   0.25000   0.00000  Uiso   1.00
O574   O     0.40359   0.88945   0.09865   0.00000  Uiso   1.00
O575   O     0.44675   0.88633   0.38584   0.00000  Uiso   1.00
O576   O     0.54452   0.76767   0.11547   0.00000  Uiso   1.00
O577   O     0.44760   0.94616   0.45847   0.00000  Uiso   1.00
O578   O     0.59667   0.75868   0.04217   0.00000  Uiso   1.00
O579   O     0.37111   0.75658   0.15751   0.00000  Uiso   1.00
O580   O     0.62868   0.91352   0.33919   0.00000  Uiso   1.00
O581   O     0.60481   0.75314   0.18433   0.00000  Uiso   1.00
O582   O     0.39543   0.91460   0.31380   0.00000  Uiso   1.00
O583   O     0.56108   0.79513   0.25001   0.00000  Uiso   1.00
O584   O     0.56108   0.87154   0.25001   0.00000  Uiso   1.00
O585   O     0.43892   0.79513   0.25000   0.00000  Uiso   1.00
O586   O     0.49999   0.87156   0.18393   0.00000  Uiso   1.00
O587   O     0.50001   0.79511   0.31608   0.00000  Uiso   1.00
O588   O     0.50001   0.87156   0.31608   0.00000  Uiso   1.00
O589   O     0.49999   0.79511   0.18393   0.00000  Uiso   1.00
O590   O     0.60501   0.78674   0.38433   0.00000  Uiso   1.00
Zn591  Zn    0.50000   0.88437   0.25000   0.00000  Uiso   1.00
Zn592  Zn    0.50000   0.78229   0.25000   0.00000  Uiso   1.00
C593   C     0.75341   0.83394   0.25031   0.00000  Uiso   1.00
C594   C     0.70918   0.83557   0.24877   0.00000  Uiso   1.00
C595   C     0.86385   0.69015   0.27102   0.00000  Uiso   1.00
C596   C     0.80286   0.97651   0.22890   0.00000  Uiso   1.00
C597   C     0.80289   0.69114   0.22886   0.00000  Uiso   1.00
C598   C     0.86380   0.97553   0.27111   0.00000  Uiso   1.00
C599   C     0.83237   0.83316   0.16335   0.00000  Uiso   1.00
C600   C     0.83481   0.83357   0.33656   0.00000  Uiso   1.00
C601   C     0.86987   0.80942   0.40568   0.00000  Uiso   1.00
C602   C     0.80732   0.86449   0.09262   0.00000  Uiso   1.00
C603   C     0.83865   0.83504   0.38439   0.00000  Uiso   1.00
C604   C     0.91322   0.83278   0.24946   0.00000  Uiso   1.00
C605   C     0.83287   0.83333   0.11523   0.00000  Uiso   1.00
C606   C     0.81251   0.86570   0.40805   0.00000  Uiso   1.00
C607   C     0.86021   0.80312   0.09228   0.00000  Uiso   1.00
C608   C     0.81809   0.87229   0.45379   0.00000  Uiso   1.00
C609   C     0.86718   0.80827   0.04622   0.00000  Uiso   1.00
C610   C     0.84420   0.84143   0.47649   0.00000  Uiso   1.00
C611   C     0.84215   0.84008   0.02326   0.00000  Uiso   1.00
C612   C     0.87109   0.81087   0.45250   0.00000  Uiso   1.00
C613   C     0.81368   0.86944   0.04666   0.00000  Uiso   1.00
C614   C     0.79722   0.90770   0.47799   0.00000  Uiso   1.00
C615   C     0.79384   0.90483   0.02385   0.00000  Uiso   1.00
C616   C     0.89825   0.78265   0.02217   0.00000  Uiso   1.00
C617   C     0.90106   0.78211   0.37887   0.00000  Uiso   1.00
C618   C     0.77096   0.88741   0.11613   0.00000  Uiso   1.00
C619   C     0.71519   0.79102   0.17660   0.00000  Uiso   1.00
C620   C     0.95130   0.87832   0.32147   0.00000  Uiso   1.00
C621   C     0.95802   0.78735   0.17809   0.00000  Uiso   1.00
C622   C     0.70806   0.88108   0.32056   0.00000  Uiso   1.00
C623   C     0.89826   0.78237   0.47599   0.00000  Uiso   1.00
C624   C     0.68974   0.81201   0.21409   0.00000  Uiso   1.00
C625   C     0.97677   0.85586   0.28474   0.00000  Uiso   1.00
C626   C     0.97979   0.80954   0.21538   0.00000  Uiso   1.00
C627   C     0.68667   0.85816   0.28352   0.00000  Uiso   1.00
C628   C     0.95739   0.83155   0.25056   0.00000  Uiso   1.00
H629   H     0.77666   0.93164   0.04154   0.00000  Uiso   1.00
H630   H     0.87659   0.74004   0.09650   0.00000  Uiso   1.00
H631   H     0.79742   0.95200   0.43094   0.00000  Uiso   1.00
H632   H     0.93849   0.77632   0.06864   0.00000  Uiso   1.00
H633   H     0.74454   0.80570   0.16659   0.00000  Uiso   1.00
H634   H     0.92187   0.86421   0.33196   0.00000  Uiso   1.00
H635   H     0.96151   0.80032   0.14456   0.00000  Uiso   1.00
H636   H     0.70298   0.86963   0.35442   0.00000  Uiso   1.00
H637   H     0.92026   0.75959   0.45899   0.00000  Uiso   1.00
H638   H     0.88833   0.70787   0.28770   0.00000  Uiso   1.00
H639   H     0.77846   0.95877   0.21209   0.00000  Uiso   1.00
H640   H     0.77857   0.70967   0.21187   0.00000  Uiso   1.00
H641   H     0.88812   0.95700   0.28807   0.00000  Uiso   1.00
H642   H     0.89119   0.75852   0.35353   0.00000  Uiso   1.00
H643   H     0.77333   0.90115   0.14950   0.00000  Uiso   1.00
H644   H     0.75588   0.88956   0.40673   0.00000  Uiso   1.00
N645   N     0.83333   0.95240   0.25000   0.00000  Uiso   1.00
N646   N     0.83333   0.71427   0.25000   0.00000  Uiso   1.00
O647   O     0.77226   0.87154   0.25000   0.00000  Uiso   1.00
O648   O     0.73692   0.88945   0.09865   0.00000  Uiso   1.00
O649   O     0.78008   0.88633   0.38584   0.00000  Uiso   1.00
O650   O     0.87786   0.76767   0.11547   0.00000  Uiso   1.00
O651   O     0.78093   0.94616   0.45847   0.00000  Uiso   1.00
O652   O     0.93000   0.75868   0.04217   0.00000  Uiso   1.00
O653   O     0.70445   0.75658   0.15751   0.00000  Uiso   1.00
O654   O     0.96201   0.91352   0.33919   0.00000  Uiso   1.00
O655   O     0.93814   0.75314   0.18433   0.00000  Uiso   1.00
O656   O     0.72876   0.91460   0.31380   0.00000  Uiso   1.00
O657   O     0.89441   0.79513   0.25001   0.00000  Uiso   1.00
O658   O     0.89441   0.87154   0.25001   0.00000  Uiso   1.00
O659   O     0.77226   0.79513   0.25000   0.00000  Uiso   1.00
O660   O     0.83333   0.87156   0.18393   0.00000  Uiso   1.00
O661   O     0.83334   0.79511   0.31608   0.00000  Uiso   1.00
O662   O     0.83334   0.87156   0.31608   0.00000  Uiso   1.00
O663   O     0.83333   0.79511   0.18393   0.00000  Uiso   1.00
O664   O     0.93834   0.78674   0.38433   0.00000  Uiso   1.00
Zn665  Zn    0.83333   0.88437   0.25000   0.00000  Uiso   1.00
Zn666  Zn    0.83333   0.78229   0.25000   0.00000  Uiso   1.00
C667   C     0.08674   0.16728   0.75031   0.00000  Uiso   1.00
C668   C     0.04251   0.16890   0.74877   0.00000  Uiso   1.00
C669   C     0.19718   0.02348   0.77102   0.00000  Uiso   1.00
C670   C     0.13619   0.30985   0.72890   0.00000  Uiso   1.00
C671   C     0.13622   0.02447   0.72886   0.00000  Uiso   1.00
C672   C     0.19713   0.30886   0.77111   0.00000  Uiso   1.00
C673   C     0.16570   0.16650   0.66335   0.00000  Uiso   1.00
C674   C     0.16814   0.16690   0.83656   0.00000  Uiso   1.00
C675   C     0.20321   0.14276   0.90568   0.00000  Uiso   1.00
C676   C     0.14065   0.19782   0.59262   0.00000  Uiso   1.00
C677   C     0.17198   0.16838   0.88439   0.00000  Uiso   1.00
C678   C     0.24655   0.16611   0.74946   0.00000  Uiso   1.00
C679   C     0.16621   0.16667   0.61523   0.00000  Uiso   1.00
C680   C     0.14584   0.19903   0.90805   0.00000  Uiso   1.00
C681   C     0.19354   0.13646   0.59228   0.00000  Uiso   1.00
C682   C     0.15143   0.20563   0.95379   0.00000  Uiso   1.00
C683   C     0.20051   0.14160   0.54622   0.00000  Uiso   1.00
C684   C     0.17754   0.17477   0.97649   0.00000  Uiso   1.00
C685   C     0.17548   0.17342   0.52326   0.00000  Uiso   1.00
C686   C     0.20442   0.14421   0.95250   0.00000  Uiso   1.00
C687   C     0.14701   0.20277   0.54666   0.00000  Uiso   1.00
C688   C     0.13055   0.24104   0.97799   0.00000  Uiso   1.00
C689   C     0.12717   0.23816   0.52385   0.00000  Uiso   1.00
C690   C     0.23158   0.11598   0.52217   0.00000  Uiso   1.00
C691   C     0.23440   0.11544   0.87887   0.00000  Uiso   1.00
C692   C     0.10430   0.22074   0.61613   0.00000  Uiso   1.00
C693   C     0.04853   0.12436   0.67660   0.00000  Uiso   1.00
C694   C     0.28463   0.21165   0.82147   0.00000  Uiso   1.00
C695   C     0.29135   0.12069   0.67809   0.00000  Uiso   1.00
C696   C     0.04139   0.21441   0.82056   0.00000  Uiso   1.00
C697   C     0.23159   0.11570   0.97599   0.00000  Uiso   1.00
C698   C     0.02308   0.14535   0.71409   0.00000  Uiso   1.00
C699   C     0.31011   0.18919   0.78474   0.00000  Uiso   1.00
C700   C     0.31313   0.14288   0.71538   0.00000  Uiso   1.00
C701   C     0.02001   0.19149   0.78352   0.00000  Uiso   1.00
C702   C     0.29073   0.16489   0.75056   0.00000  Uiso   1.00
H703   H     0.11000   0.26497   0.54154   0.00000  Uiso   1.00
H704   H     0.20992   0.07337   0.59650   0.00000  Uiso   1.00
H705   H     0.13076   0.28534   0.93094   0.00000  Uiso   1.00
H706   H     0.27182   0.10965   0.56864   0.00000  Uiso   1.00
H707   H     0.07787   0.13904   0.66659   0.00000  Uiso   1.00
H708   H     0.25520   0.19754   0.83196   0.00000  Uiso   1.00
H709   H     0.29484   0.13366   0.64456   0.00000  Uiso   1.00
H710   H     0.03631   0.20296   0.85442   0.00000  Uiso   1.00
H711   H     0.25359   0.09293   0.95899   0.00000  Uiso   1.00
H712   H     0.22166   0.04120   0.78770   0.00000  Uiso   1.00
H713   H     0.11180   0.29210   0.71209   0.00000  Uiso   1.00
H714   H     0.11191   0.04300   0.71187   0.00000  Uiso   1.00
H715   H     0.22145   0.29033   0.78807   0.00000  Uiso   1.00
H716   H     0.22452   0.09185   0.85353   0.00000  Uiso   1.00
H717   H     0.10666   0.23448   0.64950   0.00000  Uiso   1.00
H718   H     0.08921   0.22289   0.90673   0.00000  Uiso   1.00
N719   N     0.16667   0.28573   0.75000   0.00000  Uiso   1.00
N720   N     0.16667   0.04760   0.75000   0.00000  Uiso   1.00
O721   O     0.10559   0.20487   0.75000   0.00000  Uiso   1.00
O722   O     0.07026   0.22278   0.59865   0.00000  Uiso   1.00
O723   O     0.11341   0.21967   0.88584   0.00000  Uiso   1.00
O724   O     0.21119   0.10100   0.61547   0.00000  Uiso   1.00
O725   O     0.11426   0.27950   0.95847   0.00000  Uiso   1.00
O726   O     0.26333   0.09201   0.54217   0.00000  Uiso   1.00
O727   O     0.03778   0.08991   0.65751   0.00000  Uiso   1.00
O728   O     0.29535   0.24685   0.83919   0.00000  Uiso   1.00
O729   O     0.27148   0.08647   0.68433   0.00000  Uiso   1.00
O730   O     0.06210   0.24794   0.81380   0.00000  Uiso   1.00
O731   O     0.22774   0.12846   0.75001   0.00000  Uiso   1.00
O732   O     0.22774   0.20487   0.75001   0.00000  Uiso   1.00
O733   O     0.10559   0.12846   0.75000   0.00000  Uiso   1.00
O734   O     0.16666   0.20489   0.68393   0.00000  Uiso   1.00
O735   O     0.16667   0.12844   0.81608   0.00000  Uiso   1.00
O736   O     0.16667   0.20489   0.81608   0.00000  Uiso   1.00
O737   O     0.16666   0.12844   0.68393   0.00000  Uiso   1.00
O738   O     0.27167   0.12008   0.88433   0.00000  Uiso   1.00
Zn739  Zn    0.16667   0.21771   0.75000   0.00000  Uiso   1.00
Zn740  Zn    0.16667   0.11563   0.75000   0.00000  Uiso   1.00
C741   C     0.42008   0.16728   0.75031   0.00000  Uiso   1.00
C742   C     0.37584   0.16890   0.74877   0.00000  Uiso   1.00
C743   C     0.53052   0.02348   0.77102   0.00000  Uiso   1.00
C744   C     0.46953   0.30985   0.72890   0.00000  Uiso   1.00
C745   C     0.46955   0.02447   0.72886   0.00000  Uiso   1.00
C746   C     0.53046   0.30886   0.77111   0.00000  Uiso   1.00
C747   C     0.49904   0.16650   0.66335   0.00000  Uiso   1.00
C748   C     0.50148   0.16690   0.83656   0.00000  Uiso   1.00
C749   C     0.53654   0.14276   0.90568   0.00000  Uiso   1.00
C750   C     0.47398   0.19782   0.59262   0.00000  Uiso   1.00
C751   C     0.50532   0.16838   0.88439   0.00000  Uiso   1.00
C752   C     0.57988   0.16611   0.74946   0.00000  Uiso   1.00
C753   C     0.49954   0.16667   0.61523   0.00000  Uiso   1.00
C754   C     0.47918   0.19903   0.90805   0.00000  Uiso   1.00
C755   C     0.52688   0.13646   0.59228   0.00000  Uiso   1.00
C756   C     0.48476   0.20563   0.95379   0.00000  Uiso   1.00
C757   C     0.53385   0.14160   0.54622   0.00000  Uiso   1.00
C758   C     0.51087   0.17477   0.97649   0.00000  Uiso   1.00
C759   C     0.50881   0.17342   0.52326   0.00000  Uiso   1.00
C760   C     0.53775   0.14421   0.95250   0.00000  Uiso   1.00
C761   C     0.48034   0.20277   0.54666   0.00000  Uiso   1.00
C762   C     0.46388   0.24104   0.97799   0.00000  Uiso   1.00
C763   C     0.46051   0.23816   0.52385   0.00000  Uiso   1.00
C764   C     0.56491   0.11598   0.52217   0.00000  Uiso   1.00
C765   C     0.56773   0.11544   0.87887   0.00000  Uiso   1.00
C766   C     0.43763   0.22074   0.61613   0.00000  Uiso   1.00
C767   C     0.38186   0.12436   0.67660   0.00000  Uiso   1.00
C768   C     0.61797   0.21165   0.82147   0.00000  Uiso   1.00
C769   C     0.62468   0.12069   0.67809   0.00000  Uiso   1.00
C770   C     0.37472   0.21441   0.82056   0.00000  Uiso   1.00
C771   C     0.56493   0.11570   0.97599   0.00000  Uiso   1.00
C772   C     0.35641   0.14535   0.71409   0.00000  Uiso   1.00
C773   C     0.64344   0.18919   0.78474   0.00000  Uiso   1.00
C774   C     0.64646   0.14288   0.71538   0.00000  Uiso   1.00
C775   C     0.35334   0.19149   0.78352   0.00000  Uiso   1.00
C776   C     0.62406   0.16489   0.75056   0.00000  Uiso   1.00
H777   H     0.44333   0.26497   0.54154   0.00000  Uiso   1.00
H778   H     0.54325   0.07337   0.59650   0.00000  Uiso   1.00
H779   H     0.46409   0.28534   0.93094   0.00000  Uiso   1.00
H780   H     0.60515   0.10965   0.56864   0.00000  Uiso   1.00
H781   H     0.41121   0.13904   0.66659   0.00000  Uiso   1.00
H782   H     0.58854   0.19754   0.83196   0.00000  Uiso   1.00
H783   H     0.62817   0.13366   0.64456   0.00000  Uiso   1.00
H784   H     0.36964   0.20296   0.85442   0.00000  Uiso   1.00
H785   H     0.58692   0.09293   0.95899   0.00000  Uiso   1.00
H786   H     0.55499   0.04120   0.78770   0.00000  Uiso   1.00
H787   H     0.44513   0.29210   0.71209   0.00000  Uiso   1.00
H788   H     0.44524   0.04300   0.71187   0.00000  Uiso   1.00
H789   H     0.55479   0.29033   0.78807   0.00000  Uiso   1.00
H790   H     0.55786   0.09185   0.85353   0.00000  Uiso   1.00
H791   H     0.44000   0.23448   0.64950   0.00000  Uiso   1.00
H792   H     0.42255   0.22289   0.90673   0.00000  Uiso   1.00
N793   N     0.50000   0.28573   0.75000   0.00000  Uiso   1.00
N794   N     0.50000   0.04760   0.75000   0.00000  Uiso   1.00
O795   O     0.43892   0.20487   0.75000   0.00000  Uiso   1.00
O796   O     0.40359   0.22278   0.59865   0.00000  Uiso   1.00
O797   O     0.44675   0.21967   0.88584   0.00000  Uiso   1.00
O798   O     0.54452   0.10100   0.61547   0.00000  Uiso   1.00
O799   O     0.44760   0.27950   0.95847   0.00000  Uiso   1.00
O800   O     0.59667   0.09201   0.54217   0.00000  Uiso   1.00
O801   O     0.37111   0.08991   0.65751   0.00000  Uiso   1.00
O802   O     0.62868   0.24685   0.83919   0.00000  Uiso   1.00
O803   O     0.60481   0.08647   0.68433   0.00000  Uiso   1.00
O804   O     0.39543   0.24794   0.81380   0.00000  Uiso   1.00
O805   O     0.56108   0.12846   0.75001   0.00000  Uiso   1.00
O806   O     0.56108   0.20487   0.75001   0.00000  Uiso   1.00
O807   O     0.43892   0.12846   0.75000   0.00000  Uiso   1.00
O808   O     0.49999   0.20489   0.68393   0.00000  Uiso   1.00
O809   O     0.50001   0.12844   0.81608   0.00000  Uiso   1.00
O810   O     0.50001   0.20489   0.81608   0.00000  Uiso   1.00
O811   O     0.49999   0.12844   0.68393   0.00000  Uiso   1.00
O812   O     0.60501   0.12008   0.88433   0.00000  Uiso   1.00
Zn813  Zn    0.50000   0.21771   0.75000   0.00000  Uiso   1.00
Zn814  Zn    0.50000   0.11563   0.75000   0.00000  Uiso   1.00
C815   C     0.75341   0.16728   0.75031   0.00000  Uiso   1.00
C816   C     0.70918   0.16890   0.74877   0.00000  Uiso   1.00
C817   C     0.86385   0.02348   0.77102   0.00000  Uiso   1.00
C818   C     0.80286   0.30985   0.72890   0.00000  Uiso   1.00
C819   C     0.80289   0.02447   0.72886   0.00000  Uiso   1.00
C820   C     0.86380   0.30886   0.77111   0.00000  Uiso   1.00
C821   C     0.83237   0.16650   0.66335   0.00000  Uiso   1.00
C822   C     0.83481   0.16690   0.83656   0.00000  Uiso   1.00
C823   C     0.86987   0.14276   0.90568   0.00000  Uiso   1.00
C824   C     0.80732   0.19782   0.59262   0.00000  Uiso   1.00
C825   C     0.83865   0.16838   0.88439   0.00000  Uiso   1.00
C826   C     0.91322   0.16611   0.74946   0.00000  Uiso   1.00
C827   C     0.83287   0.16667   0.61523   0.00000  Uiso   1.00
C828   C     0.81251   0.19903   0.90805   0.00000  Uiso   1.00
C829   C     0.86021   0.13646   0.59228   0.00000  Uiso   1.00
C830   C     0.81809   0.20563   0.95379   0.00000  Uiso   1.00
C831   C     0.86718   0.14160   0.54622   0.00000  Uiso   1.00
C832   C     0.84420   0.17477   0.97649   0.00000  Uiso   1.00
C833   C     0.84215   0.17342   0.52326   0.00000  Uiso   1.00
C834   C     0.87109   0.14421   0.95250   0.00000  Uiso   1.00
C835   C     0.81368   0.20277   0.54666   0.00000  Uiso   1.00
C836   C     0.79722   0.24104   0.97799   0.00000  Uiso   1.00
C837   C     0.79384   0.23816   0.52385   0.00000  Uiso   1.00
C838   C     0.89825   0.11598   0.52217   0.00000  Uiso   1.00
C839   C     0.90106   0.11544   0.87887   0.00000  Uiso   1.00
C840   C     0.77096   0.22074   0.61613   0.00000  Uiso   1.00
C841   C     0.71519   0.12436   0.67660   0.00000  Uiso   1.00
C842   C     0.95130   0.21165   0.82147   0.00000  Uiso   1.00
C843   C     0.95802   0.12069   0.67809   0.00000  Uiso   1.00
C844   C     0.70806   0.21441   0.82056   0.00000  Uiso   1.00
C845   C     0.89826   0.11570   0.97599   0.00000  Uiso   1.00
C846   C     0.68974   0.14535   0.71409   0.00000  Uiso   1.00
C847   C     0.97677   0.18919   0.78474   0.00000  Uiso   1.00
C848   C     0.97979   0.14288   0.71538   0.00000  Uiso   1.00
C849   C     0.68667   0.19149   0.78352   0.00000  Uiso   1.00
C850   C     0.95739   0.16489   0.75056   0.00000  Uiso   1.00
H851   H     0.77666   0.26497   0.54154   0.00000  Uiso   1.00
H852   H     0.87659   0.07337   0.59650   0.00000  Uiso   1.00
H853   H     0.79742   0.28534   0.93094   0.00000  Uiso   1.00
H854   H     0.93849   0.10965   0.56864   0.00000  Uiso   1.00
H855   H     0.74454   0.13904   0.66659   0.00000  Uiso   1.00
H856   H     0.92187   0.19754   0.83196   0.00000  Uiso   1.00
H857   H     0.96151   0.13366   0.64456   0.00000  Uiso   1.00
H858   H     0.70298   0.20296   0.85442   0.00000  Uiso   1.00
H859   H     0.92026   0.09293   0.95899   0.00000  Uiso   1.00
H860   H     0.88833   0.04120   0.78770   0.00000  Uiso   1.00
H861   H     0.77846   0.29210   0.71209   0.00000  Uiso   1.00
H862   H     0.77857   0.04300   0.71187   0.00000  Uiso   1.00
H863   H     0.88812   0.29033   0.78807   0.00000  Uiso   1.00
H864   H     0.89119   0.09185   0.85353   0.00000  Uiso   1.00
H865   H     0.77333   0.23448   0.64950   0.00000  Uiso   1.00
H866   H     0.75588   0.22289   0.90673   0.00000  Uiso   1.00
N867   N     0.83333   0.28573   0.75000   0.00000  Uiso   1.00
N868   N     0.83333   0.04760   0.75000   0.00000  Uiso   1.00
O869   O     0.77226   0.20487   0.75000   0.00000  Uiso   1.00
O870   O     0.73692   0.22278   0.59865   0.00000  Uiso   1.00
O871   O     0.78008   0.21967   0.88584   0.00000  Uiso   1.00
O872   O     0.87786   0.10100   0.61547   0.00000  Uiso   1.00
O873   O     0.78093   0.27950   0.95847   0.00000  Uiso   1.00
O874   O     0.93000   0.09201   0.54217   0.00000  Uiso   1.00
O875   O     0.70445   0.08991   0.65751   0.00000  Uiso   1.00
O876   O     0.96201   0.24685   0.83919   0.00000  Uiso   1.00
O877   O     0.93814   0.08647   0.68433   0.00000  Uiso   1.00
O878   O     0.72876   0.24794   0.81380   0.00000  Uiso   1.00
O879   O     0.89441   0.12846   0.75001   0.00000  Uiso   1.00
O880   O     0.89441   0.20487   0.75001   0.00000  Uiso   1.00
O881   O     0.77226   0.12846   0.75000   0.00000  Uiso   1.00
O882   O     0.83333   0.20489   0.68393   0.00000  Uiso   1.00
O883   O     0.83334   0.12844   0.81608   0.00000  Uiso   1.00
O884   O     0.83334   0.20489   0.81608   0.00000  Uiso   1.00
O885   O     0.83333   0.12844   0.68393   0.00000  Uiso   1.00
O886   O     0.93834   0.12008   0.88433   0.00000  Uiso   1.00
Zn887  Zn    0.83333   0.21771   0.75000   0.00000  Uiso   1.00
Zn888  Zn    0.83333   0.11563   0.75000   0.00000  Uiso   1.00
C889   C     0.08674   0.50061   0.75031   0.00000  Uiso   1.00
C890   C     0.04251   0.50224   0.74877   0.00000  Uiso   1.00
C891   C     0.19718   0.35681   0.77102   0.00000  Uiso   1.00
C892   C     0.13619   0.64318   0.72890   0.00000  Uiso   1.00
C893   C     0.13622   0.35780   0.72886   0.00000  Uiso   1.00
C894   C     0.19713   0.64219   0.77111   0.00000  Uiso   1.00
C895   C     0.16570   0.49983   0.66335   0.00000  Uiso   1.00
C896   C     0.16814   0.50023   0.83656   0.00000  Uiso   1.00
C897   C     0.20321   0.47609   0.90568   0.00000  Uiso   1.00
C898   C     0.14065   0.53116   0.59262   0.00000  Uiso   1.00
C899   C     0.17198   0.50171   0.88439   0.00000  Uiso   1.00
C900   C     0.24655   0.49945   0.74946   0.00000  Uiso   1.00
C901   C     0.16621   0.50000   0.61523   0.00000  Uiso   1.00
C902   C     0.14584   0.53236   0.90805   0.00000  Uiso   1.00
C903   C     0.19354   0.46979   0.59228   0.00000  Uiso   1.00
C904   C     0.15143   0.53896   0.95379   0.00000  Uiso   1.00
C905   C     0.20051   0.47494   0.54622   0.00000  Uiso   1.00
C906   C     0.17754   0.50810   0.97649   0.00000  Uiso   1.00
C907   C     0.17548   0.50675   0.52326   0.00000  Uiso   1.00
C908   C     0.20442   0.47754   0.95250   0.00000  Uiso   1.00
C909   C     0.14701   0.53611   0.54666   0.00000  Uiso   1.00
C910   C     0.13055   0.57437   0.97799   0.00000  Uiso   1.00
C911   C     0.12717   0.57150   0.52385   0.00000  Uiso   1.00
C912   C     0.23158   0.44931   0.52217   0.00000  Uiso   1.00
C913   C     0.23440   0.44878   0.87887   0.00000  Uiso   1.00
C914   C     0.10430   0.55408   0.61613   0.00000  Uiso   1.00
C915   C     0.04853   0.45769   0.67660   0.00000  Uiso   1.00
C916   C     0.28463   0.54498   0.82147   0.00000  Uiso   1.00
C917   C     0.29135   0.45402   0.67809   0.00000  Uiso   1.00
C918   C     0.04139   0.54775   0.82056   0.00000  Uiso   1.00
C919   C     0.23159   0.44904   0.97599   0.00000  Uiso   1.00
C920   C     0.02308   0.47868   0.71409   0.00000  Uiso   1.00
C921   C     0.31011   0.52253   0.78474   0.00000  Uiso   1.00
C922   C     0.31313   0.47621   0.71538   0.00000  Uiso   1.00
C923   C     0.02001   0.52482   0.78352   0.00000  Uiso   1.00
C924   C     0.29073   0.49822   0.75056   0.00000  Uiso   1.00
H925   H     0.11000   0.59830   0.54154   0.00000  Uiso   1.00
H926   H     0.20992   0.40671   0.59650   0.00000  Uiso   1.00
H927   H     0.13076   0.61867   0.93094   0.00000  Uiso   1.00
H928   H     0.27182   0.44298   0.56864   0.00000  Uiso   1.00
H929   H     0.07787   0.47237   0.66659   0.00000  Uiso   1.00
H930   H     0.25520   0.53087   0.83196   0.00000  Uiso   1.00
H931   H     0.29484   0.46699   0.64456   0.00000  Uiso   1.00
H932   H     0.03631   0.53629   0.85442   0.00000  Uiso   1.00
H933   H     0.25359   0.42626   0.95899   0.00000  Uiso   1.00
H934   H     0.22166   0.37454   0.78770   0.00000  Uiso   1.00
H935   H     0.11180   0.62544   0.71209   0.00000  Uiso   1.00
H936   H     0.11191   0.37633   0.71187   0.00000  Uiso   1.00
H937   H     0.22145   0.62367   0.78807   0.00000  Uiso   1.00
H938   H     0.22452   0.42518   0.85353   0.00000  Uiso   1.00
H939   H     0.10666   0.56781   0.64950   0.00000  Uiso   1.00
H940   H     0.08921   0.55622   0.90673   0.00000  Uiso   1.00
N941   N     0.16667   0.61907   0.75000   0.00000  Uiso   1.00
N942   N     0.16667   0.38093   0.75000   0.00000  Uiso   1.00
O943   O     0.10559   0.53821   0.75000   0.00000  Uiso   1.00
O944   O     0.07026   0.55611   0.59865   0.00000  Uiso   1.00
O945   O     0.11341   0.55300   0.88584   0.00000  Uiso   1.00
O946   O     0.21119   0.43433   0.61547   0.00000  Uiso   1.00
O947   O     0.11426   0.61283   0.95847   0.00000  Uiso   1.00
O948   O     0.26333   0.42534   0.54217   0.00000  Uiso   1.00
O949   O     0.03778   0.42324   0.65751   0.00000  Uiso   1.00
O950   O     0.29535   0.58019   0.83919   0.00000  Uiso   1.00
O951   O     0.27148   0.41981   0.68433   0.00000  Uiso   1.00
O952   O     0.06210   0.58127   0.81380   0.00000  Uiso   1.00
O953   O     0.22774   0.46179   0.75001   0.00000  Uiso   1.00
O954   O     0.22774   0.53821   0.75001   0.00000  Uiso   1.00
O955   O     0.10559   0.46179   0.75000   0.00000  Uiso   1.00
O956   O     0.16666   0.53823   0.68393   0.00000  Uiso   1.00
O957   O     0.16667   0.46177   0.81608   0.00000  Uiso   1.00
O958   O     0.16667   0.53823   0.81608   0.00000  Uiso   1.00
O959   O     0.16666   0.46177   0.68393   0.00000  Uiso   1.00
O960   O     0.27167   0.45341   0.88433   0.00000  Uiso   1.00
Zn961  Zn    0.16667   0.55104   0.75000   0.00000  Uiso   1.00
Zn962  Zn    0.16667   0.44896   0.75000   0.00000  Uiso   1.00
C963   C     0.42008   0.50061   0.75031   0.00000  Uiso   1.00
C964   C     0.37584   0.50224   0.74877   0.00000  Uiso   1.00
C965   C     0.53052   0.35681   0.77102   0.00000  Uiso   1.00
C966   C     0.46953   0.64318   0.72890   0.00000  Uiso   1.00
C967   C     0.46955   0.35780   0.72886   0.00000  Uiso   1.00
C968   C     0.53046   0.64219   0.77111   0.00000  Uiso   1.00
C969   C     0.49904   0.49983   0.66335   0.00000  Uiso   1.00
C970   C     0.50148   0.50023   0.83656   0.00000  Uiso   1.00
C971   C     0.53654   0.47609   0.90568   0.00000  Uiso   1.00
C972   C     0.47398   0.53116   0.59262   0.00000  Uiso   1.00
C973   C     0.50532   0.50171   0.88439   0.00000  Uiso   1.00
C974   C     0.57988   0.49945   0.74946   0.00000  Uiso   1.00
C975   C     0.49954   0.50000   0.61523   0.00000  Uiso   1.00
C976   C     0.47918   0.53236   0.90805   0.00000  Uiso   1.00
C977   C     0.52688   0.46979   0.59228   0.00000  Uiso   1.00
C978   C     0.48476   0.53896   0.95379   0.00000  Uiso   1.00
C979   C     0.53385   0.47494   0.54622   0.00000  Uiso   1.00
C980   C     0.51087   0.50810   0.97649   0.00000  Uiso   1.00
C981   C     0.50881   0.50675   0.52326   0.00000  Uiso   1.00
C982   C     0.53775   0.47754   0.95250   0.00000  Uiso   1.00
C983   C     0.48034   0.53611   0.54666   0.00000  Uiso   1.00
C984   C     0.46388   0.57437   0.97799   0.00000  Uiso   1.00
C985   C     0.46051   0.57150   0.52385   0.00000  Uiso   1.00
C986   C     0.56491   0.44931   0.52217   0.00000  Uiso   1.00
C987   C     0.56773   0.44878   0.87887   0.00000  Uiso   1.00
C988   C     0.43763   0.55408   0.61613   0.00000  Uiso   1.00
C989   C     0.38186   0.45769   0.67660   0.00000  Uiso   1.00
C990   C     0.61797   0.54498   0.82147   0.00000  Uiso   1.00
C991   C     0.62468   0.45402   0.67809   0.00000  Uiso   1.00
C992   C     0.37472   0.54775   0.82056   0.00000  Uiso   1.00
C993   C     0.56493   0.44904   0.97599   0.00000  Uiso   1.00
C994   C     0.35641   0.47868   0.71409   0.00000  Uiso   1.00
C995   C     0.64344   0.52253   0.78474   0.00000  Uiso   1.00
C996   C     0.64646   0.47621   0.71538   0.00000  Uiso   1.00
C997   C     0.35334   0.52482   0.78352   0.00000  Uiso   1.00
C998   C     0.62406   0.49822   0.75056   0.00000  Uiso   1.00
H999   H     0.44333   0.59830   0.54154   0.00000  Uiso   1.00
H1000  H     0.54325   0.40671   0.59650   0.00000  Uiso   1.00
H1001  H     0.46409   0.61867   0.93094   0.00000  Uiso   1.00
H1002  H     0.60515   0.44298   0.56864   0.00000  Uiso   1.00
H1003  H     0.41121   0.47237   0.66659   0.00000  Uiso   1.00
H1004  H     0.58854   0.53087   0.83196   0.00000  Uiso   1.00
H1005  H     0.62817   0.46699   0.64456   0.00000  Uiso   1.00
H1006  H     0.36964   0.53629   0.85442   0.00000  Uiso   1.00
H1007  H     0.58692   0.42626   0.95899   0.00000  Uiso   1.00
H1008  H     0.55499   0.37454   0.78770   0.00000  Uiso   1.00
H1009  H     0.44513   0.62544   0.71209   0.00000  Uiso   1.00
H1010  H     0.44524   0.37633   0.71187   0.00000  Uiso   1.00
H1011  H     0.55479   0.62367   0.78807   0.00000  Uiso   1.00
H1012  H     0.55786   0.42518   0.85353   0.00000  Uiso   1.00
H1013  H     0.44000   0.56781   0.64950   0.00000  Uiso   1.00
H1014  H     0.42255   0.55622   0.90673   0.00000  Uiso   1.00
N1015  N     0.50000   0.61907   0.75000   0.00000  Uiso   1.00
N1016  N     0.50000   0.38093   0.75000   0.00000  Uiso   1.00
O1017  O     0.43892   0.53821   0.75000   0.00000  Uiso   1.00
O1018  O     0.40359   0.55611   0.59865   0.00000  Uiso   1.00
O1019  O     0.44675   0.55300   0.88584   0.00000  Uiso   1.00
O1020  O     0.54452   0.43433   0.61547   0.00000  Uiso   1.00
O1021  O     0.44760   0.61283   0.95847   0.00000  Uiso   1.00
O1022  O     0.59667   0.42534   0.54217   0.00000  Uiso   1.00
O1023  O     0.37111   0.42324   0.65751   0.00000  Uiso   1.00
O1024  O     0.62868   0.58019   0.83919   0.00000  Uiso   1.00
O1025  O     0.60481   0.41981   0.68433   0.00000  Uiso   1.00
O1026  O     0.39543   0.58127   0.81380   0.00000  Uiso   1.00
O1027  O     0.56108   0.46179   0.75001   0.00000  Uiso   1.00
O1028  O     0.56108   0.53821   0.75001   0.00000  Uiso   1.00
O1029  O     0.43892   0.46179   0.75000   0.00000  Uiso   1.00
O1030  O     0.49999   0.53823   0.68393   0.00000  Uiso   1.00
O1031  O     0.50001   0.46177   0.81608   0.00000  Uiso   1.00
O1032  O     0.50001   0.53823   0.81608   0.00000  Uiso   1.00
O1033  O     0.49999   0.46177   0.68393   0.00000  Uiso   1.00
O1034  O     0.60501   0.45341   0.88433   0.00000  Uiso   1.00
Zn1035 Zn    0.50000   0.55104   0.75000   0.00000  Uiso   1.00
Zn1036 Zn    0.50000   0.44896   0.75000   0.00000  Uiso   1.00
C1037  C     0.75341   0.50061   0.75031   0.00000  Uiso   1.00
C1038  C     0.70918   0.50224   0.74877   0.00000  Uiso   1.00
C1039  C     0.86385   0.35681   0.77102   0.00000  Uiso   1.00
C1040  C     0.80286   0.64318   0.72890   0.00000  Uiso   1.00
C1041  C     0.80289   0.35780   0.72886   0.00000  Uiso   1.00
C1042  C     0.86380   0.64219   0.77111   0.00000  Uiso   1.00
C1043  C     0.83237   0.49983   0.66335   0.00000  Uiso   1.00
C1044  C     0.83481   0.50023   0.83656   0.00000  Uiso   1.00
C1045  C     0.86987   0.47609   0.90568   0.00000  Uiso   1.00
C1046  C     0.80732   0.53116   0.59262   0.00000  Uiso   1.00
C1047  C     0.83865   0.50171   0.88439   0.00000  Uiso   1.00
C1048  C     0.91322   0.49945   0.74946   0.00000  Uiso   1.00
C1049  C     0.83287   0.50000   0.61523   0.00000  Uiso   1.00
C1050  C     0.81251   0.53236   0.90805   0.00000  Uiso   1.00
C1051  C     0.86021   0.46979   0.59228   0.00000  Uiso   1.00
C1052  C     0.81809   0.53896   0.95379   0.00000  Uiso   1.00
C1053  C     0.86718   0.47494   0.54622   0.00000  Uiso   1.00
C1054  C     0.84420   0.50810   0.97649   0.00000  Uiso   1.00
C1055  C     0.84215   0.50675   0.52326   0.00000  Uiso   1.00
C1056  C     0.87109   0.47754   0.95250   0.00000  Uiso   1.00
C1057  C     0.81368   0.53611   0.54666   0.00000  Uiso   1.00
C1058  C     0.79722   0.57437   0.97799   0.00000  Uiso   1.00
C1059  C     0.79384   0.57150   0.52385   0.00000  Uiso   1.00
C1060  C     0.89825   0.44931   0.52217   0.00000  Uiso   1.00
C1061  C     0.90106   0.44878   0.87887   0.00000  Uiso   1.00
C1062  C     0.77096   0.55408   0.61613   0.00000  Uiso   1.00
C1063  C     0.71519   0.45769   0.67660   0.00000  Uiso   1.00
C1064  C     0.95130   0.54498   0.82147   0.00000  Uiso   1.00
C1065  C     0.95802   0.45402   0.67809   0.00000  Uiso   1.00
C1066  C     0.70806   0.54775   0.82056   0.00000  Uiso   1.00
C1067  C     0.89826   0.44904   0.97599   0.00000  Uiso   1.00
C1068  C     0.68974   0.47868   0.71409   0.00000  Uiso   1.00
C1069  C     0.97677   0.52253   0.78474   0.00000  Uiso   1.00
C1070  C     0.97979   0.47621   0.71538   0.00000  Uiso   1.00
C1071  C     0.68667   0.52482   0.78352   0.00000  Uiso   1.00
C1072  C     0.95739   0.49822   0.75056   0.00000  Uiso   1.00
H1073  H     0.77666   0.59830   0.54154   0.00000  Uiso   1.00
H1074  H     0.87659   0.40671   0.59650   0.00000  Uiso   1.00
H1075  H     0.79742   0.61867   0.93094   0.00000  Uiso   1.00
H1076  H     0.93849   0.44298   0.56864   0.00000  Uiso   1.00
H1077  H     0.74454   0.47237   0.66659   0.00000  Uiso   1.00
H1078  H     0.92187   0.53087   0.83196   0.00000  Uiso   1.00
H1079  H     0.96151   0.46699   0.64456   0.00000  Uiso   1.00
H1080  H     0.70298   0.53629   0.85442   0.00000  Uiso   1.00
H1081  H     0.92026   0.42626   0.95899   0.00000  Uiso   1.00
H1082  H     0.88833   0.37454   0.78770   0.00000  Uiso   1.00
H1083  H     0.77846   0.62544   0.71209   0.00000  Uiso   1.00
H1084  H     0.77857   0.37633   0.71187   0.00000  Uiso   1.00
H1085  H     0.88812   0.62367   0.78807   0.00000  Uiso   1.00
H1086  H     0.89119   0.42518   0.85353   0.00000  Uiso   1.00
H1087  H     0.77333   0.56781   0.64950   0.00000  Uiso   1.00
H1088  H     0.75588   0.55622   0.90673   0.00000  Uiso   1.00
N1089  N     0.83333   0.61907   0.75000   0.00000  Uiso   1.00
N1090  N     0.83333   0.38093   0.75000   0.00000  Uiso   1.00
O1091  O     0.77226   0.53821   0.75000   0.00000  Uiso   1.00
O1092  O     0.73692   0.55611   0.59865   0.00000  Uiso   1.00
O1093  O     0.78008   0.55300   0.88584   0.00000  Uiso   1.00
O1094  O     0.87786   0.43433   0.61547   0.00000  Uiso   1.00
O1095  O     0.78093   0.61283   0.95847   0.00000  Uiso   1.00
O1096  O     0.93000   0.42534   0.54217   0.00000  Uiso   1.00
O1097  O     0.70445   0.42324   0.65751   0.00000  Uiso   1.00
O1098  O     0.96201   0.58019   0.83919   0.00000  Uiso   1.00
O1099  O     0.93814   0.41981   0.68433   0.00000  Uiso   1.00
O1100  O     0.72876   0.58127   0.81380   0.00000  Uiso   1.00
O1101  O     0.89441   0.46179   0.75001   0.00000  Uiso   1.00
O1102  O     0.89441   0.53821   0.75001   0.00000  Uiso   1.00
O1103  O     0.77226   0.46179   0.75000   0.00000  Uiso   1.00
O1104  O     0.83333   0.53823   0.68393   0.00000  Uiso   1.00
O1105  O     0.83334   0.46177   0.81608   0.00000  Uiso   1.00
O1106  O     0.83334   0.53823   0.81608   0.00000  Uiso   1.00
O1107  O     0.83333   0.46177   0.68393   0.00000  Uiso   1.00
O1108  O     0.93834   0.45341   0.88433   0.00000  Uiso   1.00
Zn1109 Zn    0.83333   0.55104   0.75000   0.00000  Uiso   1.00
Zn1110 Zn    0.83333   0.44896   0.75000   0.00000  Uiso   1.00
C1111  C     0.08674   0.83394   0.75031   0.00000  Uiso   1.00
C1112  C     0.04251   0.83557   0.74877   0.00000  Uiso   1.00
C1113  C     0.19718   0.69015   0.77102   0.00000  Uiso   1.00
C1114  C     0.13619   0.97651   0.72890   0.00000  Uiso   1.00
C1115  C     0.13622   0.69114   0.72886   0.00000  Uiso   1.00
C1116  C     0.19713   0.97553   0.77111   0.00000  Uiso   1.00
C1117  C     0.16570   0.83316   0.66335   0.00000  Uiso   1.00
C1118  C     0.16814   0.83357   0.83656   0.00000  Uiso   1.00
C1119  C     0.20321   0.80942   0.90568   0.00000  Uiso   1.00
C1120  C     0.14065   0.86449   0.59262   0.00000  Uiso   1.00
C1121  C     0.17198   0.83504   0.88439   0.00000  Uiso   1.00
C1122  C     0.24655   0.83278   0.74946   0.00000  Uiso   1.00
C1123  C     0.16621   0.83333   0.61523   0.00000  Uiso   1.00
C1124  C     0.14584   0.86570   0.90805   0.00000  Uiso   1.00
C1125  C     0.19354   0.80312   0.59228   0.00000  Uiso   1.00
C1126  C     0.15143   0.87229   0.95379   0.00000  Uiso   1.00
C1127  C     0.20051   0.80827   0.54622   0.00000  Uiso   1.00
C1128  C     0.17754   0.84143   0.97649   0.00000  Uiso   1.00
C1129  C     0.17548   0.84008   0.52326   0.00000  Uiso   1.00
C1130  C     0.20442   0.81087   0.95250   0.00000  Uiso   1.00
C1131  C     0.14701   0.86944   0.54666   0.00000  Uiso   1.00
C1132  C     0.13055   0.90770   0.97799   0.00000  Uiso   1.00
C1133  C     0.12717   0.90483   0.52385   0.00000  Uiso   1.00
C1134  C     0.23158   0.78265   0.52217   0.00000  Uiso   1.00
C1135  C     0.23440   0.78211   0.87887   0.00000  Uiso   1.00
C1136  C     0.10430   0.88741   0.61613   0.00000  Uiso   1.00
C1137  C     0.04853   0.79102   0.67660   0.00000  Uiso   1.00
C1138  C     0.28463   0.87832   0.82147   0.00000  Uiso   1.00
C1139  C     0.29135   0.78735   0.67809   0.00000  Uiso   1.00
C1140  C     0.04139   0.88108   0.82056   0.00000  Uiso   1.00
C1141  C     0.23159   0.78237   0.97599   0.00000  Uiso   1.00
C1142  C     0.02308   0.81201   0.71409   0.00000  Uiso   1.00
C1143  C     0.31011   0.85586   0.78474   0.00000  Uiso   1.00
C1144  C     0.31313   0.80954   0.71538   0.00000  Uiso   1.00
C1145  C     0.02001   0.85816   0.78352   0.00000  Uiso   1.00
C1146  C     0.29073   0.83155   0.75056   0.00000  Uiso   1.00
H1147  H     0.11000   0.93164   0.54154   0.00000  Uiso   1.00
H1148  H     0.20992   0.74004   0.59650   0.00000  Uiso   1.00
H1149  H     0.13076   0.95200   0.93094   0.00000  Uiso   1.00
H1150  H     0.27182   0.77632   0.56864   0.00000  Uiso   1.00
H1151  H     0.07787   0.80570   0.66659   0.00000  Uiso   1.00
H1152  H     0.25520   0.86421   0.83196   0.00000  Uiso   1.00
H1153  H     0.29484   0.80032   0.64456   0.00000  Uiso   1.00
H1154  H     0.03631   0.86963   0.85442   0.00000  Uiso   1.00
H1155  H     0.25359   0.75959   0.95899   0.00000  Uiso   1.00
H1156  H     0.22166   0.70787   0.78770   0.00000  Uiso   1.00
H1157  H     0.11180   0.95877   0.71209   0.00000  Uiso   1.00
H1158  H     0.11191   0.70967   0.71187   0.00000  Uiso   1.00
H1159  H     0.22145   0.95700   0.78807   0.00000  Uiso   1.00
H1160  H     0.22452   0.75852   0.85353   0.00000  Uiso   1.00
H1161  H     0.10666   0.90115   0.64950   0.00000  Uiso   1.00
H1162  H     0.08921   0.88956   0.90673   0.00000  Uiso   1.00
N1163  N     0.16667   0.95240   0.75000   0.00000  Uiso   1.00
N1164  N     0.16667   0.71427   0.75000   0.00000  Uiso   1.00
O1165  O     0.10559   0.87154   0.75000   0.00000  Uiso   1.00
O1166  O     0.07026   0.88945   0.59865   0.00000  Uiso   1.00
O1167  O     0.11341   0.88633   0.88584   0.00000  Uiso   1.00
O1168  O     0.21119   0.76767   0.61547   0.00000  Uiso   1.00
O1169  O     0.11426   0.94616   0.95847   0.00000  Uiso   1.00
O1170  O     0.26333   0.75868   0.54217   0.00000  Uiso   1.00
O1171  O     0.03778   0.75658   0.65751   0.00000  Uiso   1.00
O1172  O     0.29535   0.91352   0.83919   0.00000  Uiso   1.00
O1173  O     0.27148   0.75314   0.68433   0.00000  Uiso   1.00
O1174  O     0.06210   0.91460   0.81380   0.00000  Uiso   1.00
O1175  O     0.22774   0.79513   0.75001   0.00000  Uiso   1.00
O1176  O     0.22774   0.87154   0.75001   0.00000  Uiso   1.00
O1177  O     0.10559   0.79513   0.75000   0.00000  Uiso   1.00
O1178  O     0.16666   0.87156   0.68393   0.00000  Uiso   1.00
O1179  O     0.16667   0.79511   0.81608   0.00000  Uiso   1.00
O1180  O     0.16667   0.87156   0.81608   0.00000  Uiso   1.00
O1181  O     0.16666   0.79511   0.68393   0.00000  Uiso   1.00
O1182  O     0.27167   0.78674   0.88433   0.00000  Uiso   1.00
Zn1183 Zn    0.16667   0.88437   0.75000   0.00000  Uiso   1.00
Zn1184 Zn    0.16667   0.78229   0.75000   0.00000  Uiso   1.00
C1185  C     0.42008   0.83394   0.75031   0.00000  Uiso   1.00
C1186  C     0.37584   0.83557   0.74877   0.00000  Uiso   1.00
C1187  C     0.53052   0.69015   0.77102   0.00000  Uiso   1.00
C1188  C     0.46953   0.97651   0.72890   0.00000  Uiso   1.00
C1189  C     0.46955   0.69114   0.72886   0.00000  Uiso   1.00
C1190  C     0.53046   0.97553   0.77111   0.00000  Uiso   1.00
C1191  C     0.49904   0.83316   0.66335   0.00000  Uiso   1.00
C1192  C     0.50148   0.83357   0.83656   0.00000  Uiso   1.00
C1193  C     0.53654   0.80942   0.90568   0.00000  Uiso   1.00
C1194  C     0.47398   0.86449   0.59262   0.00000  Uiso   1.00
C1195  C     0.50532   0.83504   0.88439   0.00000  Uiso   1.00
C1196  C     0.57988   0.83278   0.74946   0.00000  Uiso   1.00
C1197  C     0.49954   0.83333   0.61523   0.00000  Uiso   1.00
C1198  C     0.47918   0.86570   0.90805   0.00000  Uiso   1.00
C1199  C     0.52688   0.80312   0.59228   0.00000  Uiso   1.00
C1200  C     0.48476   0.87229   0.95379   0.00000  Uiso   1.00
C1201  C     0.53385   0.80827   0.54622   0.00000  Uiso   1.00
C1202  C     0.51087   0.84143   0.97649   0.00000  Uiso   1.00
C1203  C     0.50881   0.84008   0.52326   0.00000  Uiso   1.00
C1204  C     0.53775   0.81087   0.95250   0.00000  Uiso   1.00
C1205  C     0.48034   0.86944   0.54666   0.00000  Uiso   1.00
C1206  C     0.46388   0.90770   0.97799   0.00000  Uiso   1.00
C1207  C     0.46051   0.90483   0.52385   0.00000  Uiso   1.00
C1208  C     0.56491   0.78265   0.52217   0.00000  Uiso   1.00
C1209  C     0.56773   0.78211   0.87887   0.00000  Uiso   1.00
C1210  C     0.43763   0.88741   0.61613   0.00000  Uiso   1.00
C1211  C     0.38186   0.79102   0.67660   0.00000  Uiso   1.00
C1212  C     0.61797   0.87832   0.82147   0.00000  Uiso   1.00
C1213  C     0.62468   0.78735   0.67809   0.00000  Uiso   1.00
C1214  C     0.37472   0.88108   0.82056   0.00000  Uiso   1.00
C1215  C     0.56493   0.78237   0.97599   0.00000  Uiso   1.00
C1216  C     0.35641   0.81201   0.71409   0.00000  Uiso   1.00
C1217  C     0.64344   0.85586   0.78474   0.00000  Uiso   1.00
C1218  C     0.64646   0.80954   0.71538   0.00000  Uiso   1.00
C1219  C     0.35334   0.85816   0.78352   0.00000  Uiso   1.00
C1220  C     0.62406   0.83155   0.75056   0.00000  Uiso   1.00
H1221  H     0.44333   0.93164   0.54154   0.00000  Uiso   1.00
H1222  H     0.54325   0.74004   0.59650   0.00000  Uiso   1.00
H1223  H     0.46409   0.95200   0.93094   0.00000  Uiso   1.00
H1224  H     0.60515   0.77632   0.56864   0.00000  Uiso   1.00
H1225  H     0.41121   0.80570   0.66659   0.00000  Uiso   1.00
H1226  H     0.58854   0.86421   0.83196   0.00000  Uiso   1.00
H1227  H     0.62817   0.80032   0.64456   0.00000  Uiso   1.00
H1228  H     0.36964   0.86963   0.85442   0.00000  Uiso   1.00
H1229  H     0.58692   0.75959   0.95899   0.00000  Uiso   1.00
H1230  H     0.55499   0.70787   0.78770   0.00000  Uiso   1.00
H1231  H     0.44513   0.95877   0.71209   0.00000  Uiso   1.00
H1232  H     0.44524   0.70967   0.71187   0.00000  Uiso   1.00
H1233  H     0.55479   0.95700   0.78807   0.00000  Uiso   1.00
H1234  H     0.55786   0.75852   0.85353   0.00000  Uiso   1.00
H1235  H     0.44000   0.90115   0.64950   0.00000  Uiso   1.00
H1236  H     0.42255   0.88956   0.90673   0.00000  Uiso   1.00
N1237  N     0.50000   0.95240   0.75000   0.00000  Uiso   1.00
N1238  N     0.50000   0.71427   0.75000   0.00000  Uiso   1.00
O1239  O     0.43892   0.87154   0.75000   0.00000  Uiso   1.00
O1240  O     0.40359   0.88945   0.59865   0.00000  Uiso   1.00
O1241  O     0.44675   0.88633   0.88584   0.00000  Uiso   1.00
O1242  O     0.54452   0.76767   0.61547   0.00000  Uiso   1.00
O1243  O     0.44760   0.94616   0.95847   0.00000  Uiso   1.00
O1244  O     0.59667   0.75868   0.54217   0.00000  Uiso   1.00
O1245  O     0.37111   0.75658   0.65751   0.00000  Uiso   1.00
O1246  O     0.62868   0.91352   0.83919   0.00000  Uiso   1.00
O1247  O     0.60481   0.75314   0.68433   0.00000  Uiso   1.00
O1248  O     0.39543   0.91460   0.81380   0.00000  Uiso   1.00
O1249  O     0.56108   0.79513   0.75001   0.00000  Uiso   1.00
O1250  O     0.56108   0.87154   0.75001   0.00000  Uiso   1.00
O1251  O     0.43892   0.79513   0.75000   0.00000  Uiso   1.00
O1252  O     0.49999   0.87156   0.68393   0.00000  Uiso   1.00
O1253  O     0.50001   0.79511   0.81608   0.00000  Uiso   1.00
O1254  O     0.50001   0.87156   0.81608   0.00000  Uiso   1.00
O1255  O     0.49999   0.79511   0.68393   0.00000  Uiso   1.00
O1256  O     0.60501   0.78674   0.88433   0.00000  Uiso   1.00
Zn1257 Zn    0.50000   0.88437   0.75000   0.00000  Uiso   1.00
Zn1258 Zn    0.50000   0.78229   0.75000   0.00000  Uiso   1.00
C1259  C     0.75341   0.83394   0.75031   0.00000  Uiso   1.00
C1260  C     0.70918   0.83557   0.74877   0.00000  Uiso   1.00
C1261  C     0.86385   0.69015   0.77102   0.00000  Uiso   1.00
C1262  C     0.80286   0.97651   0.72890   0.00000  Uiso   1.00
C1263  C     0.80289   0.69114   0.72886   0.00000  Uiso   1.00
C1264  C     0.86380   0.97553   0.77111   0.00000  Uiso   1.00
C1265  C     0.83237   0.83316   0.66335   0.00000  Uiso   1.00
C1266  C     0.83481   0.83357   0.83656   0.00000  Uiso   1.00
C1267  C     0.86987   0.80942   0.90568   0.00000  Uiso   1.00
C1268  C     0.80732   0.86449   0.59262   0.00000  Uiso   1.00
C1269  C     0.83865   0.83504   0.88439   0.00000  Uiso   1.00
C1270  C     0.91322   0.83278   0.74946   0.00000  Uiso   1.00
C1271  C     0.83287   0.83333   0.61523   0.00000  Uiso   1.00
C1272  C     0.81251   0.86570   0.90805   0.00000  Uiso   1.00
C1273  C     0.86021   0.80312   0.59228   0.00000  Uiso   1.00
C1274  C     0.81809   0.87229   0.95379   0.00000  Uiso   1.00
C1275  C     0.86718   0.80827   0.54622   0.00000  Uiso   1.00
C1276  C     0.84420   0.84143   0.97649   0.00000  Uiso   1.00
C1277  C     0.84215   0.84008   0.52326   0.00000  Uiso   1.00
C1278  C     0.87109   0.81087   0.95250   0.00000  Uiso   1.00
C1279  C     0.81368   0.86944   0.54666   0.00000  Uiso   1.00
C1280  C     0.79722   0.90770   0.97799   0.00000  Uiso   1.00
C1281  C     0.79384   0.90483   0.52385   0.00000  Uiso   1.00
C1282  C     0.89825   0.78265   0.52217   0.00000  Uiso   1.00
C1283  C     0.90106   0.78211   0.87887   0.00000  Uiso   1.00
C1284  C     0.77096   0.88741   0.61613   0.00000  Uiso   1.00
C1285  C     0.71519   0.79102   0.67660   0.00000  Uiso   1.00
C1286  C     0.95130   0.87832   0.82147   0.00000  Uiso   1.00
C1287  C     0.95802   0.78735   0.67809   0.00000  Uiso   1.00
C1288  C     0.70806   0.88108   0.82056   0.00000  Uiso   1.00
C1289  C     0.89826   0.78237   0.97599   0.00000  Uiso   1.00
C1290  C     0.68974   0.81201   0.71409   0.00000  Uiso   1.00
C1291  C     0.97677   0.85586   0.78474   0.00000  Uiso   1.00
C1292  C     0.97979   0.80954   0.71538   0.00000  Uiso   1.00
C1293  C     0.68667   0.85816   0.78352   0.00000  Uiso   1.00
C1294  C     0.95739   0.83155   0.75056   0.00000  Uiso   1.00
H1295  H     0.77666   0.93164   0.54154   0.00000  Uiso   1.00
H1296  H     0.87659   0.74004   0.59650   0.00000  Uiso   1.00
H1297  H     0.79742   0.95200   0.93094   0.00000  Uiso   1.00
H1298  H     0.93849   0.77632   0.56864   0.00000  Uiso   1.00
H1299  H     0.74454   0.80570   0.66659   0.00000  Uiso   1.00
H1300  H     0.92187   0.86421   0.83196   0.00000  Uiso   1.00
H1301  H     0.96151   0.80032   0.64456   0.00000  Uiso   1.00
H1302  H     0.70298   0.86963   0.85442   0.00000  Uiso   1.00
H1303  H     0.92026   0.75959   0.95899   0.00000  Uiso   1.00
H1304  H     0.88833   0.70787   0.78770   0.00000  Uiso   1.00
H1305  H     0.77846   0.95877   0.71209   0.00000  Uiso   1.00
H1306  H     0.77857   0.70967   0.71187   0.00000  Uiso   1.00
H1307  H     0.88812   0.95700   0.78807   0.00000  Uiso   1.00
H1308  H     0.89119   0.75852   0.85353   0.00000  Uiso   1.00
H1309  H     0.77333   0.90115   0.64950   0.00000  Uiso   1.00
H1310  H     0.75588   0.88956   0.90673   0.00000  Uiso   1.00
N1311  N     0.83333   0.95240   0.75000   0.00000  Uiso   1.00
N1312  N     0.83333   0.71427   0.75000   0.00000  Uiso   1.00
O1313  O     0.77226   0.87154   0.75000   0.00000  Uiso   1.00
O1314  O     0.73692   0.88945   0.59865   0.00000  Uiso   1.00
O1315  O     0.78008   0.88633   0.88584   0.00000  Uiso   1.00
O1316  O     0.87786   0.76767   0.61547   0.00000  Uiso   1.00
O1317  O     0.78093   0.94616   0.95847   0.00000  Uiso   1.00
O1318  O     0.93000   0.75868   0.54217   0.00000  Uiso   1.00
O1319  O     0.70445   0.75658   0.65751   0.00000  Uiso   1.00
O1320  O     0.96201   0.91352   0.83919   0.00000  Uiso   1.00
O1321  O     0.93814   0.75314   0.68433   0.00000  Uiso   1.00
O1322  O     0.72876   0.91460   0.81380   0.00000  Uiso   1.00
O1323  O     0.89441   0.79513   0.75001   0.00000  Uiso   1.00
O1324  O     0.89441   0.87154   0.75001   0.00000  Uiso   1.00
O1325  O     0.77226   0.79513   0.75000   0.00000  Uiso   1.00
O1326  O     0.83333   0.87156   0.68393   0.00000  Uiso   1.00
O1327  O     0.83334   0.79511   0.81608   0.00000  Uiso   1.00
O1328  O     0.83334   0.87156   0.81608   0.00000  Uiso   1.00
O1329  O     0.83333   0.79511   0.68393   0.00000  Uiso   1.00
O1330  O     0.93834   0.78674   0.88433   0.00000  Uiso   1.00
Zn1331 Zn    0.83333   0.88437   0.75000   0.00000  Uiso   1.00
Zn1332 Zn    0.83333   0.78229   0.75000   0.00000  Uiso   1.00
loop_
_geom_bond_atom_site_label_1
_geom_bond_atom_site_label_2
_geom_bond_distance
_geom_bond_site_symmetry_2
_ccdc_geom_bond_type
C1     C2      1.421   .     S
C1     O55     1.275   .     A
C1     O67     1.284   .     A
C2     C35     1.410   .     A
C2     C32     1.408   .     A
C3     N54     1.366   .     A
C3     H46     1.081   .     S
C3     C450    1.415   1_545 S
C4     N53     1.366   .     A
C4     H47     1.081   .     S
C4     C227    1.415   .     S
C5     H48     1.082   .     S
C5     N54     1.366   .     A
C5     C448    1.415   1_545 S
C6     H49     1.082   .     S
C6     N53     1.366   .     A
C6     C225    1.415   .     S
C7     O68     1.286   .     A
C7     O71     1.287   .     A
C7     C13     1.443   .     S
C8     O70     1.285   .     A
C8     O69     1.287   .     A
C8     C11     1.443   .     S
C9     C20     1.406   .     A
C9     C25     1.489   .     S
C9     C11     1.409   .     A
C10    C26     1.497   .     S
C10    C21     1.400   .     A
C10    C13     1.407   .     A
C11    C14     1.399   .     A
C12    C36     1.419   .     S
C12    O65     1.276   .     A
C12    O66     1.281   .     A
C13    C15     1.403   .     A
C14    C16     1.399   .     A
C14    O57     1.380   .     S
C15    O58     1.380   .     S
C15    C17     1.406   .     A
C16    C22     1.415   .     A
C16    C18     1.413   .     A
C17    C24     1.419   .     A
C17    C19     1.415   .     A
C18    C20     1.416   .     A
C18    C685    1.404   .     S
C19    C21     1.416   .     A
C19    C684    1.404   1_554 S
C20    C31     1.403   .     A
C21    C23     1.403   .     A
C22    O59     1.380   .     S
C22    C689    1.382   .     S
C23    H37     1.083   .     S
C23    C688    1.382   1_554 S
C24    O60     1.378   .     S
C24    C697    1.385   1_554 S
C25    O72     1.221   .     D
C25    H50     1.082   .     S
C26    H51     1.081   .     S
C26    O56     1.221   .     D
C27    O61     1.221   .     D
C27    H41     1.084   .     S
C27    C32     1.498   .     S
C28    H42     1.083   .     S
C28    C33     1.499   .     S
C28    O62     1.221   .     D
C29    O63     1.220   .     D
C29    H43     1.085   .     S
C29    C34     1.484   .     S
C30    O64     1.221   .     D
C30    H44     1.084   .     S
C30    C35     1.482   .     S
C31    H45     1.081   .     S
C31    C690    1.385   .     S
C32    C182    1.393   1_455 S
C33    C36     1.407   .     A
C33    C109    1.391   .     S
C34    C36     1.410   .     A
C34    C106    1.393   .     S
C35    C181    1.391   1_455 S
H38    O58     0.991   .     S
H39    O59     0.991   .     S
H40    O60     0.991   .     S
H52    O57     0.991   .     S
N53    Zn73    2.008   .     S
N54    Zn74    2.008   .     S
O55    Zn73    2.005   .     S
O65    Zn74    2.005   .     S
O66    Zn73    1.988   .     S
O67    Zn74    1.988   .     S
O68    Zn73    2.014   .     S
O69    Zn74    2.014   .     S
O70    Zn73    2.022   .     S
O71    Zn74    2.022   .     S
C75    C76     1.421   .     S
C75    O129    1.275   .     A
C75    O141    1.284   .     A
C76    C109    1.410   .     A
C76    C106    1.408   .     A
C77    N128    1.366   .     A
C77    H120    1.081   .     S
C77    C524    1.415   1_545 S
C78    N127    1.366   .     A
C78    H121    1.081   .     S
C78    C301    1.415   .     S
C79    H122    1.082   .     S
C79    N128    1.366   .     A
C79    C522    1.415   1_545 S
C80    H123    1.082   .     S
C80    N127    1.366   .     A
C80    C299    1.415   .     S
C81    O142    1.286   .     A
C81    O145    1.287   .     A
C81    C87     1.443   .     S
C82    O144    1.285   .     A
C82    O143    1.287   .     A
C82    C85     1.443   .     S
C83    C94     1.406   .     A
C83    C99     1.489   .     S
C83    C85     1.409   .     A
C84    C100    1.497   .     S
C84    C95     1.400   .     A
C84    C87     1.407   .     A
C85    C88     1.399   .     A
C86    C110    1.419   .     S
C86    O139    1.276   .     A
C86    O140    1.281   .     A
C87    C89     1.403   .     A
C88    C90     1.399   .     A
C88    O131    1.380   .     S
C89    O132    1.380   .     S
C89    C91     1.406   .     A
C90    C96     1.415   .     A
C90    C92     1.413   .     A
C91    C98     1.419   .     A
C91    C93     1.415   .     A
C92    C94     1.416   .     A
C92    C759    1.404   .     S
C93    C95     1.416   .     A
C93    C758    1.404   1_554 S
C94    C105    1.403   .     A
C95    C97     1.403   .     A
C96    O133    1.380   .     S
C96    C763    1.382   .     S
C97    H111    1.083   .     S
C97    C762    1.382   1_554 S
C98    O134    1.378   .     S
C98    C771    1.385   1_554 S
C99    O146    1.221   .     D
C99    H124    1.082   .     S
C100   H125    1.081   .     S
C100   O130    1.221   .     D
C101   O135    1.221   .     D
C101   H115    1.084   .     S
C101   C106    1.498   .     S
C102   H116    1.083   .     S
C102   C107    1.499   .     S
C102   O136    1.221   .     D
C103   O137    1.220   .     D
C103   H117    1.085   .     S
C103   C108    1.484   .     S
C104   O138    1.221   .     D
C104   H118    1.084   .     S
C104   C109    1.482   .     S
C105   H119    1.081   .     S
C105   C764    1.385   .     S
C107   C110    1.407   .     A
C107   C183    1.391   .     S
C108   C110    1.410   .     A
C108   C180    1.393   .     S
H112   O132    0.991   .     S
H113   O133    0.991   .     S
H114   O134    0.991   .     S
H126   O131    0.991   .     S
N127   Zn147   2.008   .     S
N128   Zn148   2.008   .     S
O129   Zn147   2.005   .     S
O139   Zn148   2.005   .     S
O140   Zn147   1.988   .     S
O141   Zn148   1.988   .     S
O142   Zn147   2.014   .     S
O143   Zn148   2.014   .     S
O144   Zn147   2.022   .     S
O145   Zn148   2.022   .     S
C149   C150    1.421   .     S
C149   O203    1.275   .     A
C149   O215    1.284   .     A
C150   C183    1.410   .     A
C150   C180    1.408   .     A
C151   N202    1.366   .     A
C151   H194    1.081   .     S
C151   C598    1.415   1_545 S
C152   N201    1.366   .     A
C152   H195    1.081   .     S
C152   C375    1.415   .     S
C153   H196    1.082   .     S
C153   N202    1.366   .     A
C153   C596    1.415   1_545 S
C154   H197    1.082   .     S
C154   N201    1.366   .     A
C154   C373    1.415   .     S
C155   O216    1.286   .     A
C155   O219    1.287   .     A
C155   C161    1.443   .     S
C156   O218    1.285   .     A
C156   O217    1.287   .     A
C156   C159    1.443   .     S
C157   C168    1.406   .     A
C157   C173    1.489   .     S
C157   C159    1.409   .     A
C158   C174    1.497   .     S
C158   C169    1.400   .     A
C158   C161    1.407   .     A
C159   C162    1.399   .     A
C160   C184    1.419   .     S
C160   O213    1.276   .     A
C160   O214    1.281   .     A
C161   C163    1.403   .     A
C162   C164    1.399   .     A
C162   O205    1.380   .     S
C163   O206    1.380   .     S
C163   C165    1.406   .     A
C164   C170    1.415   .     A
C164   C166    1.413   .     A
C165   C172    1.419   .     A
C165   C167    1.415   .     A
C166   C168    1.416   .     A
C166   C833    1.404   .     S
C167   C169    1.416   .     A
C167   C832    1.404   1_554 S
C168   C179    1.403   .     A
C169   C171    1.403   .     A
C170   O207    1.380   .     S
C170   C837    1.382   .     S
C171   H185    1.083   .     S
C171   C836    1.382   1_554 S
C172   O208    1.378   .     S
C172   C845    1.385   1_554 S
C173   O220    1.221   .     D
C173   H198    1.082   .     S
C174   H199    1.081   .     S
C174   O204    1.221   .     D
C175   O209    1.221   .     D
C175   H189    1.084   .     S
C175   C180    1.498   .     S
C176   H190    1.083   .     S
C176   C181    1.499   .     S
C176   O210    1.221   .     D
C177   O211    1.220   .     D
C177   H191    1.085   .     S
C177   C182    1.484   .     S
C178   O212    1.221   .     D
C178   H192    1.084   .     S
C178   C183    1.482   .     S
C179   H193    1.081   .     S
C179   C838    1.385   .     S
C181   C184    1.407   .     A
C181   C35     1.391   1_655 S
C182   C184    1.410   .     A
C182   C32     1.393   1_655 S
H186   O206    0.991   .     S
H187   O207    0.991   .     S
H188   O208    0.991   .     S
H200   O205    0.991   .     S
N201   Zn221   2.008   .     S
N202   Zn222   2.008   .     S
O203   Zn221   2.005   .     S
O213   Zn222   2.005   .     S
O214   Zn221   1.988   .     S
O215   Zn222   1.988   .     S
O216   Zn221   2.014   .     S
O217   Zn222   2.014   .     S
O218   Zn221   2.022   .     S
O219   Zn222   2.022   .     S
C223   C224    1.421   .     S
C223   O277    1.275   .     A
C223   O289    1.284   .     A
C224   C257    1.410   .     A
C224   C254    1.408   .     A
C225   N276    1.366   .     A
C225   H268    1.081   .     S
C226   N275    1.366   .     A
C226   H269    1.081   .     S
C226   C449    1.415   .     S
C227   H270    1.082   .     S
C227   N276    1.366   .     A
C228   H271    1.082   .     S
C228   N275    1.366   .     A
C228   C447    1.415   .     S
C229   O290    1.286   .     A
C229   O293    1.287   .     A
C229   C235    1.443   .     S
C230   O292    1.285   .     A
C230   O291    1.287   .     A
C230   C233    1.443   .     S
C231   C242    1.406   .     A
C231   C247    1.489   .     S
C231   C233    1.409   .     A
C232   C248    1.497   .     S
C232   C243    1.400   .     A
C232   C235    1.407   .     A
C233   C236    1.399   .     A
C234   C258    1.419   .     S
C234   O287    1.276   .     A
C234   O288    1.281   .     A
C235   C237    1.403   .     A
C236   C238    1.399   .     A
C236   O279    1.380   .     S
C237   O280    1.380   .     S
C237   C239    1.406   .     A
C238   C244    1.415   .     A
C238   C240    1.413   .     A
C239   C246    1.419   .     A
C239   C241    1.415   .     A
C240   C242    1.416   .     A
C240   C907    1.404   .     S
C241   C243    1.416   .     A
C241   C906    1.404   1_554 S
C242   C253    1.403   .     A
C243   C245    1.403   .     A
C244   O281    1.380   .     S
C244   C911    1.382   .     S
C245   H259    1.083   .     S
C245   C910    1.382   1_554 S
C246   O282    1.378   .     S
C246   C919    1.385   1_554 S
C247   O294    1.221   .     D
C247   H272    1.082   .     S
C248   H273    1.081   .     S
C248   O278    1.221   .     D
C249   O283    1.221   .     D
C249   H263    1.084   .     S
C249   C254    1.498   .     S
C250   H264    1.083   .     S
C250   C255    1.499   .     S
C250   O284    1.221   .     D
C251   O285    1.220   .     D
C251   H265    1.085   .     S
C251   C256    1.484   .     S
C252   O286    1.221   .     D
C252   H266    1.084   .     S
C252   C257    1.482   .     S
C253   H267    1.081   .     S
C253   C912    1.385   .     S
C254   C404    1.393   1_455 S
C255   C258    1.407   .     A
C255   C331    1.391   .     S
C256   C258    1.410   .     A
C256   C328    1.393   .     S
C257   C403    1.391   1_455 S
H260   O280    0.991   .     S
H261   O281    0.991   .     S
H262   O282    0.991   .     S
H274   O279    0.991   .     S
N275   Zn295   2.008   .     S
N276   Zn296   2.008   .     S
O277   Zn295   2.005   .     S
O287   Zn296   2.005   .     S
O288   Zn295   1.988   .     S
O289   Zn296   1.988   .     S
O290   Zn295   2.014   .     S
O291   Zn296   2.014   .     S
O292   Zn295   2.022   .     S
O293   Zn296   2.022   .     S
C297   C298    1.421   .     S
C297   O351    1.275   .     A
C297   O363    1.284   .     A
C298   C331    1.410   .     A
C298   C328    1.408   .     A
C299   N350    1.366   .     A
C299   H342    1.081   .     S
C300   N349    1.366   .     A
C300   H343    1.081   .     S
C300   C523    1.415   .     S
C301   H344    1.082   .     S
C301   N350    1.366   .     A
C302   H345    1.082   .     S
C302   N349    1.366   .     A
C302   C521    1.415   .     S
C303   O364    1.286   .     A
C303   O367    1.287   .     A
C303   C309    1.443   .     S
C304   O366    1.285   .     A
C304   O365    1.287   .     A
C304   C307    1.443   .     S
C305   C316    1.406   .     A
C305   C321    1.489   .     S
C305   C307    1.409   .     A
C306   C322    1.497   .     S
C306   C317    1.400   .     A
C306   C309    1.407   .     A
C307   C310    1.399   .     A
C308   C332    1.419   .     S
C308   O361    1.276   .     A
C308   O362    1.281   .     A
C309   C311    1.403   .     A
C310   C312    1.399   .     A
C310   O353    1.380   .     S
C311   O354    1.380   .     S
C311   C313    1.406   .     A
C312   C318    1.415   .     A
C312   C314    1.413   .     A
C313   C320    1.419   .     A
C313   C315    1.415   .     A
C314   C316    1.416   .     A
C314   C981    1.404   .     S
C315   C317    1.416   .     A
C315   C980    1.404   1_554 S
C316   C327    1.403   .     A
C317   C319    1.403   .     A
C318   O355    1.380   .     S
C318   C985    1.382   .     S
C319   H333    1.083   .     S
C319   C984    1.382   1_554 S
C320   O356    1.378   .     S
C320   C993    1.385   1_554 S
C321   O368    1.221   .     D
C321   H346    1.082   .     S
C322   H347    1.081   .     S
C322   O352    1.221   .     D
C323   O357    1.221   .     D
C323   H337    1.084   .     S
C323   C328    1.498   .     S
C324   H338    1.083   .     S
C324   C329    1.499   .     S
C324   O358    1.221   .     D
C325   O359    1.220   .     D
C325   H339    1.085   .     S
C325   C330    1.484   .     S
C326   O360    1.221   .     D
C326   H340    1.084   .     S
C326   C331    1.482   .     S
C327   H341    1.081   .     S
C327   C986    1.385   .     S
C329   C332    1.407   .     A
C329   C405    1.391   .     S
C330   C332    1.410   .     A
C330   C402    1.393   .     S
H334   O354    0.991   .     S
H335   O355    0.991   .     S
H336   O356    0.991   .     S
H348   O353    0.991   .     S
N349   Zn369   2.008   .     S
N350   Zn370   2.008   .     S
O351   Zn369   2.005   .     S
O361   Zn370   2.005   .     S
O362   Zn369   1.988   .     S
O363   Zn370   1.988   .     S
O364   Zn369   2.014   .     S
O365   Zn370   2.014   .     S
O366   Zn369   2.022   .     S
O367   Zn370   2.022   .     S
C371   C372    1.421   .     S
C371   O425    1.275   .     A
C371   O437    1.284   .     A
C372   C405    1.410   .     A
C372   C402    1.408   .     A
C373   N424    1.366   .     A
C373   H416    1.081   .     S
C374   N423    1.366   .     A
C374   H417    1.081   .     S
C374   C597    1.415   .     S
C375   H418    1.082   .     S
C375   N424    1.366   .     A
C376   H419    1.082   .     S
C376   N423    1.366   .     A
C376   C595    1.415   .     S
C377   O438    1.286   .     A
C377   O441    1.287   .     A
C377   C383    1.443   .     S
C378   O440    1.285   .     A
C378   O439    1.287   .     A
C378   C381    1.443   .     S
C379   C390    1.406   .     A
C379   C395    1.489   .     S
C379   C381    1.409   .     A
C380   C396    1.497   .     S
C380   C391    1.400   .     A
C380   C383    1.407   .     A
C381   C384    1.399   .     A
C382   C406    1.419   .     S
C382   O435    1.276   .     A
C382   O436    1.281   .     A
C383   C385    1.403   .     A
C384   C386    1.399   .     A
C384   O427    1.380   .     S
C385   O428    1.380   .     S
C385   C387    1.406   .     A
C386   C392    1.415   .     A
C386   C388    1.413   .     A
C387   C394    1.419   .     A
C387   C389    1.415   .     A
C388   C390    1.416   .     A
C388   C1055   1.404   .     S
C389   C391    1.416   .     A
C389   C1054   1.404   1_554 S
C390   C401    1.403   .     A
C391   C393    1.403   .     A
C392   O429    1.380   .     S
C392   C1059   1.382   .     S
C393   H407    1.083   .     S
C393   C1058   1.382   1_554 S
C394   O430    1.378   .     S
C394   C1067   1.385   1_554 S
C395   O442    1.221   .     D
C395   H420    1.082   .     S
C396   H421    1.081   .     S
C396   O426    1.221   .     D
C397   O431    1.221   .     D
C397   H411    1.084   .     S
C397   C402    1.498   .     S
C398   H412    1.083   .     S
C398   C403    1.499   .     S
C398   O432    1.221   .     D
C399   O433    1.220   .     D
C399   H413    1.085   .     S
C399   C404    1.484   .     S
C400   O434    1.221   .     D
C400   H414    1.084   .     S
C400   C405    1.482   .     S
C401   H415    1.081   .     S
C401   C1060   1.385   .     S
C403   C406    1.407   .     A
C403   C257    1.391   1_655 S
C404   C406    1.410   .     A
C404   C254    1.393   1_655 S
H408   O428    0.991   .     S
H409   O429    0.991   .     S
H410   O430    0.991   .     S
H422   O427    0.991   .     S
N423   Zn443   2.008   .     S
N424   Zn444   2.008   .     S
O425   Zn443   2.005   .     S
O435   Zn444   2.005   .     S
O436   Zn443   1.988   .     S
O437   Zn444   1.988   .     S
O438   Zn443   2.014   .     S
O439   Zn444   2.014   .     S
O440   Zn443   2.022   .     S
O441   Zn444   2.022   .     S
C445   C446    1.421   .     S
C445   O499    1.275   .     A
C445   O511    1.284   .     A
C446   C479    1.410   .     A
C446   C476    1.408   .     A
C447   N498    1.366   .     A
C447   H490    1.081   .     S
C448   N497    1.366   .     A
C448   H491    1.081   .     S
C448   C5      1.415   1_565 S
C449   H492    1.082   .     S
C449   N498    1.366   .     A
C450   H493    1.082   .     S
C450   N497    1.366   .     A
C450   C3      1.415   1_565 S
C451   O512    1.286   .     A
C451   O515    1.287   .     A
C451   C457    1.443   .     S
C452   O514    1.285   .     A
C452   O513    1.287   .     A
C452   C455    1.443   .     S
C453   C464    1.406   .     A
C453   C469    1.489   .     S
C453   C455    1.409   .     A
C454   C470    1.497   .     S
C454   C465    1.400   .     A
C454   C457    1.407   .     A
C455   C458    1.399   .     A
C456   C480    1.419   .     S
C456   O509    1.276   .     A
C456   O510    1.281   .     A
C457   C459    1.403   .     A
C458   C460    1.399   .     A
C458   O501    1.380   .     S
C459   O502    1.380   .     S
C459   C461    1.406   .     A
C460   C466    1.415   .     A
C460   C462    1.413   .     A
C461   C468    1.419   .     A
C461   C463    1.415   .     A
C462   C464    1.416   .     A
C462   C1129   1.404   .     S
C463   C465    1.416   .     A
C463   C1128   1.404   1_554 S
C464   C475    1.403   .     A
C465   C467    1.403   .     A
C466   O503    1.380   .     S
C466   C1133   1.382   .     S
C467   H481    1.083   .     S
C467   C1132   1.382   1_554 S
C468   O504    1.378   .     S
C468   C1141   1.385   1_554 S
C469   O516    1.221   .     D
C469   H494    1.082   .     S
C470   H495    1.081   .     S
C470   O500    1.221   .     D
C471   O505    1.221   .     D
C471   H485    1.084   .     S
C471   C476    1.498   .     S
C472   H486    1.083   .     S
C472   C477    1.499   .     S
C472   O506    1.221   .     D
C473   O507    1.220   .     D
C473   H487    1.085   .     S
C473   C478    1.484   .     S
C474   O508    1.221   .     D
C474   H488    1.084   .     S
C474   C479    1.482   .     S
C475   H489    1.081   .     S
C475   C1134   1.385   .     S
C476   C626    1.393   1_455 S
C477   C480    1.407   .     A
C477   C553    1.391   .     S
C478   C480    1.410   .     A
C478   C550    1.393   .     S
C479   C625    1.391   1_455 S
H482   O502    0.991   .     S
H483   O503    0.991   .     S
H484   O504    0.991   .     S
H496   O501    0.991   .     S
N497   Zn517   2.008   .     S
N498   Zn518   2.008   .     S
O499   Zn517   2.005   .     S
O509   Zn518   2.005   .     S
O510   Zn517   1.988   .     S
O511   Zn518   1.988   .     S
O512   Zn517   2.014   .     S
O513   Zn518   2.014   .     S
O514   Zn517   2.022   .     S
O515   Zn518   2.022   .     S
C519   C520    1.421   .     S
C519   O573    1.275   .     A
C519   O585    1.284   .     A
C520   C553    1.410   .     A
C520   C550    1.408   .     A
C521   N572    1.366   .     A
C521   H564    1.081   .     S
C522   N571    1.366   .     A
C522   H565    1.081   .     S
C522   C79     1.415   1_565 S
C523   H566    1.082   .     S
C523   N572    1.366   .     A
C524   H567    1.082   .     S
C524   N571    1.366   .     A
C524   C77     1.415   1_565 S
C525   O586    1.286   .     A
C525   O589    1.287   .     A
C525   C531    1.443   .     S
C526   O588    1.285   .     A
C526   O587    1.287   .     A
C526   C529    1.443   .     S
C527   C538    1.406   .     A
C527   C543    1.489   .     S
C527   C529    1.409   .     A
C528   C544    1.497   .     S
C528   C539    1.400   .     A
C528   C531    1.407   .     A
C529   C532    1.399   .     A
C530   C554    1.419   .     S
C530   O583    1.276   .     A
C530   O584    1.281   .     A
C531   C533    1.403   .     A
C532   C534    1.399   .     A
C532   O575    1.380   .     S
C533   O576    1.380   .     S
C533   C535    1.406   .     A
C534   C540    1.415   .     A
C534   C536    1.413   .     A
C535   C542    1.419   .     A
C535   C537    1.415   .     A
C536   C538    1.416   .     A
C536   C1203   1.404   .     S
C537   C539    1.416   .     A
C537   C1202   1.404   1_554 S
C538   C549    1.403   .     A
C539   C541    1.403   .     A
C540   O577    1.380   .     S
C540   C1207   1.382   .     S
C541   H555    1.083   .     S
C541   C1206   1.382   1_554 S
C542   O578    1.378   .     S
C542   C1215   1.385   1_554 S
C543   O590    1.221   .     D
C543   H568    1.082   .     S
C544   H569    1.081   .     S
C544   O574    1.221   .     D
C545   O579    1.221   .     D
C545   H559    1.084   .     S
C545   C550    1.498   .     S
C546   H560    1.083   .     S
C546   C551    1.499   .     S
C546   O580    1.221   .     D
C547   O581    1.220   .     D
C547   H561    1.085   .     S
C547   C552    1.484   .     S
C548   O582    1.221   .     D
C548   H562    1.084   .     S
C548   C553    1.482   .     S
C549   H563    1.081   .     S
C549   C1208   1.385   .     S
C551   C554    1.407   .     A
C551   C627    1.391   .     S
C552   C554    1.410   .     A
C552   C624    1.393   .     S
H556   O576    0.991   .     S
H557   O577    0.991   .     S
H558   O578    0.991   .     S
H570   O575    0.991   .     S
N571   Zn591   2.008   .     S
N572   Zn592   2.008   .     S
O573   Zn591   2.005   .     S
O583   Zn592   2.005   .     S
O584   Zn591   1.988   .     S
O585   Zn592   1.988   .     S
O586   Zn591   2.014   .     S
O587   Zn592   2.014   .     S
O588   Zn591   2.022   .     S
O589   Zn592   2.022   .     S
C593   C594    1.421   .     S
C593   O647    1.275   .     A
C593   O659    1.284   .     A
C594   C627    1.410   .     A
C594   C624    1.408   .     A
C595   N646    1.366   .     A
C595   H638    1.081   .     S
C596   N645    1.366   .     A
C596   H639    1.081   .     S
C596   C153    1.415   1_565 S
C597   H640    1.082   .     S
C597   N646    1.366   .     A
C598   H641    1.082   .     S
C598   N645    1.366   .     A
C598   C151    1.415   1_565 S
C599   O660    1.286   .     A
C599   O663    1.287   .     A
C599   C605    1.443   .     S
C600   O662    1.285   .     A
C600   O661    1.287   .     A
C600   C603    1.443   .     S
C601   C612    1.406   .     A
C601   C617    1.489   .     S
C601   C603    1.409   .     A
C602   C618    1.497   .     S
C602   C613    1.400   .     A
C602   C605    1.407   .     A
C603   C606    1.399   .     A
C604   C628    1.419   .     S
C604   O657    1.276   .     A
C604   O658    1.281   .     A
C605   C607    1.403   .     A
C606   C608    1.399   .     A
C606   O649    1.380   .     S
C607   O650    1.380   .     S
C607   C609    1.406   .     A
C608   C614    1.415   .     A
C608   C610    1.413   .     A
C609   C616    1.419   .     A
C609   C611    1.415   .     A
C610   C612    1.416   .     A
C610   C1277   1.404   .     S
C611   C613    1.416   .     A
C611   C1276   1.404   1_554 S
C612   C623    1.403   .     A
C613   C615    1.403   .     A
C614   O651    1.380   .     S
C614   C1281   1.382   .     S
C615   H629    1.083   .     S
C615   C1280   1.382   1_554 S
C616   O652    1.378   .     S
C616   C1289   1.385   1_554 S
C617   O664    1.221   .     D
C617   H642    1.082   .     S
C618   H643    1.081   .     S
C618   O648    1.221   .     D
C619   O653    1.221   .     D
C619   H633    1.084   .     S
C619   C624    1.498   .     S
C620   H634    1.083   .     S
C620   C625    1.499   .     S
C620   O654    1.221   .     D
C621   O655    1.220   .     D
C621   H635    1.085   .     S
C621   C626    1.484   .     S
C622   O656    1.221   .     D
C622   H636    1.084   .     S
C622   C627    1.482   .     S
C623   H637    1.081   .     S
C623   C1282   1.385   .     S
C625   C628    1.407   .     A
C625   C479    1.391   1_655 S
C626   C628    1.410   .     A
C626   C476    1.393   1_655 S
H630   O650    0.991   .     S
H631   O651    0.991   .     S
H632   O652    0.991   .     S
H644   O649    0.991   .     S
N645   Zn665   2.008   .     S
N646   Zn666   2.008   .     S
O647   Zn665   2.005   .     S
O657   Zn666   2.005   .     S
O658   Zn665   1.988   .     S
O659   Zn666   1.988   .     S
O660   Zn665   2.014   .     S
O661   Zn666   2.014   .     S
O662   Zn665   2.022   .     S
O663   Zn666   2.022   .     S
C667   C668    1.421   .     S
C667   O721    1.275   .     A
C667   O733    1.284   .     A
C668   C701    1.410   .     A
C668   C698    1.408   .     A
C669   N720    1.366   .     A
C669   H712    1.081   .     S
C669   C1116   1.415   1_545 S
C670   N719    1.366   .     A
C670   H713    1.081   .     S
C670   C893    1.415   .     S
C671   H714    1.082   .     S
C671   N720    1.366   .     A
C671   C1114   1.415   1_545 S
C672   H715    1.082   .     S
C672   N719    1.366   .     A
C672   C891    1.415   .     S
C673   O734    1.286   .     A
C673   O737    1.287   .     A
C673   C679    1.443   .     S
C674   O736    1.285   .     A
C674   O735    1.287   .     A
C674   C677    1.443   .     S
C675   C686    1.406   .     A
C675   C691    1.489   .     S
C675   C677    1.409   .     A
C676   C692    1.497   .     S
C676   C687    1.400   .     A
C676   C679    1.407   .     A
C677   C680    1.399   .     A
C678   C702    1.419   .     S
C678   O731    1.276   .     A
C678   O732    1.281   .     A
C679   C681    1.403   .     A
C680   C682    1.399   .     A
C680   O723    1.380   .     S
C681   O724    1.380   .     S
C681   C683    1.406   .     A
C682   C688    1.415   .     A
C682   C684    1.413   .     A
C683   C690    1.419   .     A
C683   C685    1.415   .     A
C684   C686    1.416   .     A
C684   C19     1.404   1_556 S
C685   C687    1.416   .     A
C686   C697    1.403   .     A
C687   C689    1.403   .     A
C688   O725    1.380   .     S
C688   C23     1.382   1_556 S
C689   H703    1.083   .     S
C690   O726    1.378   .     S
C691   O738    1.221   .     D
C691   H716    1.082   .     S
C692   H717    1.081   .     S
C692   O722    1.221   .     D
C693   O727    1.221   .     D
C693   H707    1.084   .     S
C693   C698    1.498   .     S
C694   H708    1.083   .     S
C694   C699    1.499   .     S
C694   O728    1.221   .     D
C695   O729    1.220   .     D
C695   H709    1.085   .     S
C695   C700    1.484   .     S
C696   O730    1.221   .     D
C696   H710    1.084   .     S
C696   C701    1.482   .     S
C697   H711    1.081   .     S
C697   C24     1.385   1_556 S
C698   C848    1.393   1_455 S
C699   C702    1.407   .     A
C699   C775    1.391   .     S
C700   C702    1.410   .     A
C700   C772    1.393   .     S
C701   C847    1.391   1_455 S
H704   O724    0.991   .     S
H705   O725    0.991   .     S
H706   O726    0.991   .     S
H718   O723    0.991   .     S
N719   Zn739   2.008   .     S
N720   Zn740   2.008   .     S
O721   Zn739   2.005   .     S
O731   Zn740   2.005   .     S
O732   Zn739   1.988   .     S
O733   Zn740   1.988   .     S
O734   Zn739   2.014   .     S
O735   Zn740   2.014   .     S
O736   Zn739   2.022   .     S
O737   Zn740   2.022   .     S
C741   C742    1.421   .     S
C741   O795    1.275   .     A
C741   O807    1.284   .     A
C742   C775    1.410   .     A
C742   C772    1.408   .     A
C743   N794    1.366   .     A
C743   H786    1.081   .     S
C743   C1190   1.415   1_545 S
C744   N793    1.366   .     A
C744   H787    1.081   .     S
C744   C967    1.415   .     S
C745   H788    1.082   .     S
C745   N794    1.366   .     A
C745   C1188   1.415   1_545 S
C746   H789    1.082   .     S
C746   N793    1.366   .     A
C746   C965    1.415   .     S
C747   O808    1.286   .     A
C747   O811    1.287   .     A
C747   C753    1.443   .     S
C748   O810    1.285   .     A
C748   O809    1.287   .     A
C748   C751    1.443   .     S
C749   C760    1.406   .     A
C749   C765    1.489   .     S
C749   C751    1.409   .     A
C750   C766    1.497   .     S
C750   C761    1.400   .     A
C750   C753    1.407   .     A
C751   C754    1.399   .     A
C752   C776    1.419   .     S
C752   O805    1.276   .     A
C752   O806    1.281   .     A
C753   C755    1.403   .     A
C754   C756    1.399   .     A
C754   O797    1.380   .     S
C755   O798    1.380   .     S
C755   C757    1.406   .     A
C756   C762    1.415   .     A
C756   C758    1.413   .     A
C757   C764    1.419   .     A
C757   C759    1.415   .     A
C758   C760    1.416   .     A
C758   C93     1.404   1_556 S
C759   C761    1.416   .     A
C760   C771    1.403   .     A
C761   C763    1.403   .     A
C762   O799    1.380   .     S
C762   C97     1.382   1_556 S
C763   H777    1.083   .     S
C764   O800    1.378   .     S
C765   O812    1.221   .     D
C765   H790    1.082   .     S
C766   H791    1.081   .     S
C766   O796    1.221   .     D
C767   O801    1.221   .     D
C767   H781    1.084   .     S
C767   C772    1.498   .     S
C768   H782    1.083   .     S
C768   C773    1.499   .     S
C768   O802    1.221   .     D
C769   O803    1.220   .     D
C769   H783    1.085   .     S
C769   C774    1.484   .     S
C770   O804    1.221   .     D
C770   H784    1.084   .     S
C770   C775    1.482   .     S
C771   H785    1.081   .     S
C771   C98     1.385   1_556 S
C773   C776    1.407   .     A
C773   C849    1.391   .     S
C774   C776    1.410   .     A
C774   C846    1.393   .     S
H778   O798    0.991   .     S
H779   O799    0.991   .     S
H780   O800    0.991   .     S
H792   O797    0.991   .     S
N793   Zn813   2.008   .     S
N794   Zn814   2.008   .     S
O795   Zn813   2.005   .     S
O805   Zn814   2.005   .     S
O806   Zn813   1.988   .     S
O807   Zn814   1.988   .     S
O808   Zn813   2.014   .     S
O809   Zn814   2.014   .     S
O810   Zn813   2.022   .     S
O811   Zn814   2.022   .     S
C815   C816    1.421   .     S
C815   O869    1.275   .     A
C815   O881    1.284   .     A
C816   C849    1.410   .     A
C816   C846    1.408   .     A
C817   N868    1.366   .     A
C817   H860    1.081   .     S
C817   C1264   1.415   1_545 S
C818   N867    1.366   .     A
C818   H861    1.081   .     S
C818   C1041   1.415   .     S
C819   H862    1.082   .     S
C819   N868    1.366   .     A
C819   C1262   1.415   1_545 S
C820   H863    1.082   .     S
C820   N867    1.366   .     A
C820   C1039   1.415   .     S
C821   O882    1.286   .     A
C821   O885    1.287   .     A
C821   C827    1.443   .     S
C822   O884    1.285   .     A
C822   O883    1.287   .     A
C822   C825    1.443   .     S
C823   C834    1.406   .     A
C823   C839    1.489   .     S
C823   C825    1.409   .     A
C824   C840    1.497   .     S
C824   C835    1.400   .     A
C824   C827    1.407   .     A
C825   C828    1.399   .     A
C826   C850    1.419   .     S
C826   O879    1.276   .     A
C826   O880    1.281   .     A
C827   C829    1.403   .     A
C828   C830    1.399   .     A
C828   O871    1.380   .     S
C829   O872    1.380   .     S
C829   C831    1.406   .     A
C830   C836    1.415   .     A
C830   C832    1.413   .     A
C831   C838    1.419   .     A
C831   C833    1.415   .     A
C832   C834    1.416   .     A
C832   C167    1.404   1_556 S
C833   C835    1.416   .     A
C834   C845    1.403   .     A
C835   C837    1.403   .     A
C836   O873    1.380   .     S
C836   C171    1.382   1_556 S
C837   H851    1.083   .     S
C838   O874    1.378   .     S
C839   O886    1.221   .     D
C839   H864    1.082   .     S
C840   H865    1.081   .     S
C840   O870    1.221   .     D
C841   O875    1.221   .     D
C841   H855    1.084   .     S
C841   C846    1.498   .     S
C842   H856    1.083   .     S
C842   C847    1.499   .     S
C842   O876    1.221   .     D
C843   O877    1.220   .     D
C843   H857    1.085   .     S
C843   C848    1.484   .     S
C844   O878    1.221   .     D
C844   H858    1.084   .     S
C844   C849    1.482   .     S
C845   H859    1.081   .     S
C845   C172    1.385   1_556 S
C847   C850    1.407   .     A
C847   C701    1.391   1_655 S
C848   C850    1.410   .     A
C848   C698    1.393   1_655 S
H852   O872    0.991   .     S
H853   O873    0.991   .     S
H854   O874    0.991   .     S
H866   O871    0.991   .     S
N867   Zn887   2.008   .     S
N868   Zn888   2.008   .     S
O869   Zn887   2.005   .     S
O879   Zn888   2.005   .     S
O880   Zn887   1.988   .     S
O881   Zn888   1.988   .     S
O882   Zn887   2.014   .     S
O883   Zn888   2.014   .     S
O884   Zn887   2.022   .     S
O885   Zn888   2.022   .     S
C889   C890    1.421   .     S
C889   O943    1.275   .     A
C889   O955    1.284   .     A
C890   C923    1.410   .     A
C890   C920    1.408   .     A
C891   N942    1.366   .     A
C891   H934    1.081   .     S
C892   N941    1.366   .     A
C892   H935    1.081   .     S
C892   C1115   1.415   .     S
C893   H936    1.082   .     S
C893   N942    1.366   .     A
C894   H937    1.082   .     S
C894   N941    1.366   .     A
C894   C1113   1.415   .     S
C895   O956    1.286   .     A
C895   O959    1.287   .     A
C895   C901    1.443   .     S
C896   O958    1.285   .     A
C896   O957    1.287   .     A
C896   C899    1.443   .     S
C897   C908    1.406   .     A
C897   C913    1.489   .     S
C897   C899    1.409   .     A
C898   C914    1.497   .     S
C898   C909    1.400   .     A
C898   C901    1.407   .     A
C899   C902    1.399   .     A
C900   C924    1.419   .     S
C900   O953    1.276   .     A
C900   O954    1.281   .     A
C901   C903    1.403   .     A
C902   C904    1.399   .     A
C902   O945    1.380   .     S
C903   O946    1.380   .     S
C903   C905    1.406   .     A
C904   C910    1.415   .     A
C904   C906    1.413   .     A
C905   C912    1.419   .     A
C905   C907    1.415   .     A
C906   C908    1.416   .     A
C906   C241    1.404   1_556 S
C907   C909    1.416   .     A
C908   C919    1.403   .     A
C909   C911    1.403   .     A
C910   O947    1.380   .     S
C910   C245    1.382   1_556 S
C911   H925    1.083   .     S
C912   O948    1.378   .     S
C913   O960    1.221   .     D
C913   H938    1.082   .     S
C914   H939    1.081   .     S
C914   O944    1.221   .     D
C915   O949    1.221   .     D
C915   H929    1.084   .     S
C915   C920    1.498   .     S
C916   H930    1.083   .     S
C916   C921    1.499   .     S
C916   O950    1.221   .     D
C917   O951    1.220   .     D
C917   H931    1.085   .     S
C917   C922    1.484   .     S
C918   O952    1.221   .     D
C918   H932    1.084   .     S
C918   C923    1.482   .     S
C919   H933    1.081   .     S
C919   C246    1.385   1_556 S
C920   C1070   1.393   1_455 S
C921   C924    1.407   .     A
C921   C997    1.391   .     S
C922   C924    1.410   .     A
C922   C994    1.393   .     S
C923   C1069   1.391   1_455 S
H926   O946    0.991   .     S
H927   O947    0.991   .     S
H928   O948    0.991   .     S
H940   O945    0.991   .     S
N941   Zn961   2.008   .     S
N942   Zn962   2.008   .     S
O943   Zn961   2.005   .     S
O953   Zn962   2.005   .     S
O954   Zn961   1.988   .     S
O955   Zn962   1.988   .     S
O956   Zn961   2.014   .     S
O957   Zn962   2.014   .     S
O958   Zn961   2.022   .     S
O959   Zn962   2.022   .     S
C963   C964    1.421   .     S
C963   O1017   1.275   .     A
C963   O1029   1.284   .     A
C964   C997    1.410   .     A
C964   C994    1.408   .     A
C965   N1016   1.366   .     A
C965   H1008   1.081   .     S
C966   N1015   1.366   .     A
C966   H1009   1.081   .     S
C966   C1189   1.415   .     S
C967   H1010   1.082   .     S
C967   N1016   1.366   .     A
C968   H1011   1.082   .     S
C968   N1015   1.366   .     A
C968   C1187   1.415   .     S
C969   O1030   1.286   .     A
C969   O1033   1.287   .     A
C969   C975    1.443   .     S
C970   O1032   1.285   .     A
C970   O1031   1.287   .     A
C970   C973    1.443   .     S
C971   C982    1.406   .     A
C971   C987    1.489   .     S
C971   C973    1.409   .     A
C972   C988    1.497   .     S
C972   C983    1.400   .     A
C972   C975    1.407   .     A
C973   C976    1.399   .     A
C974   C998    1.419   .     S
C974   O1027   1.276   .     A
C974   O1028   1.281   .     A
C975   C977    1.403   .     A
C976   C978    1.399   .     A
C976   O1019   1.380   .     S
C977   O1020   1.380   .     S
C977   C979    1.406   .     A
C978   C984    1.415   .     A
C978   C980    1.413   .     A
C979   C986    1.419   .     A
C979   C981    1.415   .     A
C980   C982    1.416   .     A
C980   C315    1.404   1_556 S
C981   C983    1.416   .     A
C982   C993    1.403   .     A
C983   C985    1.403   .     A
C984   O1021   1.380   .     S
C984   C319    1.382   1_556 S
C985   H999    1.083   .     S
C986   O1022   1.378   .     S
C987   O1034   1.221   .     D
C987   H1012   1.082   .     S
C988   H1013   1.081   .     S
C988   O1018   1.221   .     D
C989   O1023   1.221   .     D
C989   H1003   1.084   .     S
C989   C994    1.498   .     S
C990   H1004   1.083   .     S
C990   C995    1.499   .     S
C990   O1024   1.221   .     D
C991   O1025   1.220   .     D
C991   H1005   1.085   .     S
C991   C996    1.484   .     S
C992   O1026   1.221   .     D
C992   H1006   1.084   .     S
C992   C997    1.482   .     S
C993   H1007   1.081   .     S
C993   C320    1.385   1_556 S
C995   C998    1.407   .     A
C995   C1071   1.391   .     S
C996   C998    1.410   .     A
C996   C1068   1.393   .     S
H1000  O1020   0.991   .     S
H1001  O1021   0.991   .     S
H1002  O1022   0.991   .     S
H1014  O1019   0.991   .     S
N1015  Zn1035  2.008   .     S
N1016  Zn1036  2.008   .     S
O1017  Zn1035  2.005   .     S
O1027  Zn1036  2.005   .     S
O1028  Zn1035  1.988   .     S
O1029  Zn1036  1.988   .     S
O1030  Zn1035  2.014   .     S
O1031  Zn1036  2.014   .     S
O1032  Zn1035  2.022   .     S
O1033  Zn1036  2.022   .     S
C1037  C1038   1.421   .     S
C1037  O1091   1.275   .     A
C1037  O1103   1.284   .     A
C1038  C1071   1.410   .     A
C1038  C1068   1.408   .     A
C1039  N1090   1.366   .     A
C1039  H1082   1.081   .     S
C1040  N1089   1.366   .     A
C1040  H1083   1.081   .     S
C1040  C1263   1.415   .     S
C1041  H1084   1.082   .     S
C1041  N1090   1.366   .     A
C1042  H1085   1.082   .     S
C1042  N1089   1.366   .     A
C1042  C1261   1.415   .     S
C1043  O1104   1.286   .     A
C1043  O1107   1.287   .     A
C1043  C1049   1.443   .     S
C1044  O1106   1.285   .     A
C1044  O1105   1.287   .     A
C1044  C1047   1.443   .     S
C1045  C1056   1.406   .     A
C1045  C1061   1.489   .     S
C1045  C1047   1.409   .     A
C1046  C1062   1.497   .     S
C1046  C1057   1.400   .     A
C1046  C1049   1.407   .     A
C1047  C1050   1.399   .     A
C1048  C1072   1.419   .     S
C1048  O1101   1.276   .     A
C1048  O1102   1.281   .     A
C1049  C1051   1.403   .     A
C1050  C1052   1.399   .     A
C1050  O1093   1.380   .     S
C1051  O1094   1.380   .     S
C1051  C1053   1.406   .     A
C1052  C1058   1.415   .     A
C1052  C1054   1.413   .     A
C1053  C1060   1.419   .     A
C1053  C1055   1.415   .     A
C1054  C1056   1.416   .     A
C1054  C389    1.404   1_556 S
C1055  C1057   1.416   .     A
C1056  C1067   1.403   .     A
C1057  C1059   1.403   .     A
C1058  O1095   1.380   .     S
C1058  C393    1.382   1_556 S
C1059  H1073   1.083   .     S
C1060  O1096   1.378   .     S
C1061  O1108   1.221   .     D
C1061  H1086   1.082   .     S
C1062  H1087   1.081   .     S
C1062  O1092   1.221   .     D
C1063  O1097   1.221   .     D
C1063  H1077   1.084   .     S
C1063  C1068   1.498   .     S
C1064  H1078   1.083   .     S
C1064  C1069   1.499   .     S
C1064  O1098   1.221   .     D
C1065  O1099   1.220   .     D
C1065  H1079   1.085   .     S
C1065  C1070   1.484   .     S
C1066  O1100   1.221   .     D
C1066  H1080   1.084   .     S
C1066  C1071   1.482   .     S
C1067  H1081   1.081   .     S
C1067  C394    1.385   1_556 S
C1069  C1072   1.407   .     A
C1069  C923    1.391   1_655 S
C1070  C1072   1.410   .     A
C1070  C920    1.393   1_655 S
H1074  O1094   0.991   .     S
H1075  O1095   0.991   .     S
H1076  O1096   0.991   .     S
H1088  O1093   0.991   .     S
N1089  Zn1109  2.008   .     S
N1090  Zn1110  2.008   .     S
O1091  Zn1109  2.005   .     S
O1101  Zn1110  2.005   .     S
O1102  Zn1109  1.988   .     S
O1103  Zn1110  1.988   .     S
O1104  Zn1109  2.014   .     S
O1105  Zn1110  2.014   .     S
O1106  Zn1109  2.022   .     S
O1107  Zn1110  2.022   .     S
C1111  C1112   1.421   .     S
C1111  O1165   1.275   .     A
C1111  O1177   1.284   .     A
C1112  C1145   1.410   .     A
C1112  C1142   1.408   .     A
C1113  N1164   1.366   .     A
C1113  H1156   1.081   .     S
C1114  N1163   1.366   .     A
C1114  H1157   1.081   .     S
C1114  C671    1.415   1_565 S
C1115  H1158   1.082   .     S
C1115  N1164   1.366   .     A
C1116  H1159   1.082   .     S
C1116  N1163   1.366   .     A
C1116  C669    1.415   1_565 S
C1117  O1178   1.286   .     A
C1117  O1181   1.287   .     A
C1117  C1123   1.443   .     S
C1118  O1180   1.285   .     A
C1118  O1179   1.287   .     A
C1118  C1121   1.443   .     S
C1119  C1130   1.406   .     A
C1119  C1135   1.489   .     S
C1119  C1121   1.409   .     A
C1120  C1136   1.497   .     S
C1120  C1131   1.400   .     A
C1120  C1123   1.407   .     A
C1121  C1124   1.399   .     A
C1122  C1146   1.419   .     S
C1122  O1175   1.276   .     A
C1122  O1176   1.281   .     A
C1123  C1125   1.403   .     A
C1124  C1126   1.399   .     A
C1124  O1167   1.380   .     S
C1125  O1168   1.380   .     S
C1125  C1127   1.406   .     A
C1126  C1132   1.415   .     A
C1126  C1128   1.413   .     A
C1127  C1134   1.419   .     A
C1127  C1129   1.415   .     A
C1128  C1130   1.416   .     A
C1128  C463    1.404   1_556 S
C1129  C1131   1.416   .     A
C1130  C1141   1.403   .     A
C1131  C1133   1.403   .     A
C1132  O1169   1.380   .     S
C1132  C467    1.382   1_556 S
C1133  H1147   1.083   .     S
C1134  O1170   1.378   .     S
C1135  O1182   1.221   .     D
C1135  H1160   1.082   .     S
C1136  H1161   1.081   .     S
C1136  O1166   1.221   .     D
C1137  O1171   1.221   .     D
C1137  H1151   1.084   .     S
C1137  C1142   1.498   .     S
C1138  H1152   1.083   .     S
C1138  C1143   1.499   .     S
C1138  O1172   1.221   .     D
C1139  O1173   1.220   .     D
C1139  H1153   1.085   .     S
C1139  C1144   1.484   .     S
C1140  O1174   1.221   .     D
C1140  H1154   1.084   .     S
C1140  C1145   1.482   .     S
C1141  H1155   1.081   .     S
C1141  C468    1.385   1_556 S
C1142  C1292   1.393   1_455 S
C1143  C1146   1.407   .     A
C1143  C1219   1.391   .     S
C1144  C1146   1.410   .     A
C1144  C1216   1.393   .     S
C1145  C1291   1.391   1_455 S
H1148  O1168   0.991   .     S
H1149  O1169   0.991   .     S
H1150  O1170   0.991   .     S
H1162  O1167   0.991   .     S
N1163  Zn1183  2.008   .     S
N1164  Zn1184  2.008   .     S
O1165  Zn1183  2.005   .     S
O1175  Zn1184  2.005   .     S
O1176  Zn1183  1.988   .     S
O1177  Zn1184  1.988   .     S
O1178  Zn1183  2.014   .     S
O1179  Zn1184  2.014   .     S
O1180  Zn1183  2.022   .     S
O1181  Zn1184  2.022   .     S
C1185  C1186   1.421   .     S
C1185  O1239   1.275   .     A
C1185  O1251   1.284   .     A
C1186  C1219   1.410   .     A
C1186  C1216   1.408   .     A
C1187  N1238   1.366   .     A
C1187  H1230   1.081   .     S
C1188  N1237   1.366   .     A
C1188  H1231   1.081   .     S
C1188  C745    1.415   1_565 S
C1189  H1232   1.082   .     S
C1189  N1238   1.366   .     A
C1190  H1233   1.082   .     S
C1190  N1237   1.366   .     A
C1190  C743    1.415   1_565 S
C1191  O1252   1.286   .     A
C1191  O1255   1.287   .     A
C1191  C1197   1.443   .     S
C1192  O1254   1.285   .     A
C1192  O1253   1.287   .     A
C1192  C1195   1.443   .     S
C1193  C1204   1.406   .     A
C1193  C1209   1.489   .     S
C1193  C1195   1.409   .     A
C1194  C1210   1.497   .     S
C1194  C1205   1.400   .     A
C1194  C1197   1.407   .     A
C1195  C1198   1.399   .     A
C1196  C1220   1.419   .     S
C1196  O1249   1.276   .     A
C1196  O1250   1.281   .     A
C1197  C1199   1.403   .     A
C1198  C1200   1.399   .     A
C1198  O1241   1.380   .     S
C1199  O1242   1.380   .     S
C1199  C1201   1.406   .     A
C1200  C1206   1.415   .     A
C1200  C1202   1.413   .     A
C1201  C1208   1.419   .     A
C1201  C1203   1.415   .     A
C1202  C1204   1.416   .     A
C1202  C537    1.404   1_556 S
C1203  C1205   1.416   .     A
C1204  C1215   1.403   .     A
C1205  C1207   1.403   .     A
C1206  O1243   1.380   .     S
C1206  C541    1.382   1_556 S
C1207  H1221   1.083   .     S
C1208  O1244   1.378   .     S
C1209  O1256   1.221   .     D
C1209  H1234   1.082   .     S
C1210  H1235   1.081   .     S
C1210  O1240   1.221   .     D
C1211  O1245   1.221   .     D
C1211  H1225   1.084   .     S
C1211  C1216   1.498   .     S
C1212  H1226   1.083   .     S
C1212  C1217   1.499   .     S
C1212  O1246   1.221   .     D
C1213  O1247   1.220   .     D
C1213  H1227   1.085   .     S
C1213  C1218   1.484   .     S
C1214  O1248   1.221   .     D
C1214  H1228   1.084   .     S
C1214  C1219   1.482   .     S
C1215  H1229   1.081   .     S
C1215  C542    1.385   1_556 S
C1217  C1220   1.407   .     A
C1217  C1293   1.391   .     S
C1218  C1220   1.410   .     A
C1218  C1290   1.393   .     S
H1222  O1242   0.991   .     S
H1223  O1243   0.991   .     S
H1224  O1244   0.991   .     S
H1236  O1241   0.991   .     S
N1237  Zn1257  2.008   .     S
N1238  Zn1258  2.008   .     S
O1239  Zn1257  2.005   .     S
O1249  Zn1258  2.005   .     S
O1250  Zn1257  1.988   .     S
O1251  Zn1258  1.988   .     S
O1252  Zn1257  2.014   .     S
O1253  Zn1258  2.014   .     S
O1254  Zn1257  2.022   .     S
O1255  Zn1258  2.022   .     S
C1259  C1260   1.421   .     S
C1259  O1313   1.275   .     A
C1259  O1325   1.284   .     A
C1260  C1293   1.410   .     A
C1260  C1290   1.408   .     A
C1261  N1312   1.366   .     A
C1261  H1304   1.081   .     S
C1262  N1311   1.366   .     A
C1262  H1305   1.081   .     S
C1262  C819    1.415   1_565 S
C1263  H1306   1.082   .     S
C1263  N1312   1.366   .     A
C1264  H1307   1.082   .     S
C1264  N1311   1.366   .     A
C1264  C817    1.415   1_565 S
C1265  O1326   1.286   .     A
C1265  O1329   1.287   .     A
C1265  C1271   1.443   .     S
C1266  O1328   1.285   .     A
C1266  O1327   1.287   .     A
C1266  C1269   1.443   .     S
C1267  C1278   1.406   .     A
C1267  C1283   1.489   .     S
C1267  C1269   1.409   .     A
C1268  C1284   1.497   .     S
C1268  C1279   1.400   .     A
C1268  C1271   1.407   .     A
C1269  C1272   1.399   .     A
C1270  C1294   1.419   .     S
C1270  O1323   1.276   .     A
C1270  O1324   1.281   .     A
C1271  C1273   1.403   .     A
C1272  C1274   1.399   .     A
C1272  O1315   1.380   .     S
C1273  O1316   1.380   .     S
C1273  C1275   1.406   .     A
C1274  C1280   1.415   .     A
C1274  C1276   1.413   .     A
C1275  C1282   1.419   .     A
C1275  C1277   1.415   .     A
C1276  C1278   1.416   .     A
C1276  C611    1.404   1_556 S
C1277  C1279   1.416   .     A
C1278  C1289   1.403   .     A
C1279  C1281   1.403   .     A
C1280  O1317   1.380   .     S
C1280  C615    1.382   1_556 S
C1281  H1295   1.083   .     S
C1282  O1318   1.378   .     S
C1283  O1330   1.221   .     D
C1283  H1308   1.082   .     S
C1284  H1309   1.081   .     S
C1284  O1314   1.221   .     D
C1285  O1319   1.221   .     D
C1285  H1299   1.084   .     S
C1285  C1290   1.498   .     S
C1286  H1300   1.083   .     S
C1286  C1291   1.499   .     S
C1286  O1320   1.221   .     D
C1287  O1321   1.220   .     D
C1287  H1301   1.085   .     S
C1287  C1292   1.484   .     S
C1288  O1322   1.221   .     D
C1288  H1302   1.084   .     S
C1288  C1293   1.482   .     S
C1289  H1303   1.081   .     S
C1289  C616    1.385   1_556 S
C1291  C1294   1.407   .     A
C1291  C1145   1.391   1_655 S
C1292  C1294   1.410   .     A
C1292  C1142   1.393   1_655 S
H1296  O1316   0.991   .     S
H1297  O1317   0.991   .     S
H1298  O1318   0.991   .     S
H1310  O1315   0.991   .     S
N1311  Zn1331  2.008   .     S
N1312  Zn1332  2.008   .     S
O1313  Zn1331  2.005   .     S
O1323  Zn1332  2.005   .     S
O1324  Zn1331  1.988   .     S
O1325  Zn1332  1.988   .     S
O1326  Zn1331  2.014   .     S
O1327  Zn1332  2.014   .     S
O1328  Zn1331  2.022   .     S
O1329  Zn1332  2.022   .     S
