data_str_m3_o10_o17_pcu_sym.182
_audit_creation_date              2020-01-03
_audit_creation_method            'Materials Studio'
_symmetry_space_group_name_H-M    'P1'
_symmetry_Int_Tables_number       1
_symmetry_cell_setting            triclinic
loop_
_symmetry_equiv_pos_as_xyz
  x,y,z
_cell_length_a                    23.4293
_cell_length_b                    26.2180
_cell_length_c                    29.6928
_cell_angle_alpha                 91.9166
_cell_angle_beta                  86.2361
_cell_angle_gamma                 93.6765
loop_
_atom_site_label
_atom_site_type_symbol
_atom_site_fract_x
_atom_site_fract_y
_atom_site_fract_z
_atom_site_U_iso_or_equiv
_atom_site_adp_type
_atom_site_occupancy
C1     C     0.18164   0.26451   0.24767   0.00000  Uiso   1.00
C2     C     0.15167   0.06876   0.25164   0.00000  Uiso   1.00
C3     C     0.18198   0.26330   0.47844   0.00000  Uiso   1.00
C4     C     0.08250   0.09577   0.02577   0.00000  Uiso   1.00
C5     C     0.18993   0.31852   0.24745   0.00000  Uiso   1.00
C6     C     0.14345   0.01469   0.25007   0.00000  Uiso   1.00
C7     C     0.16725   0.16677   0.33636   0.00000  Uiso   1.00
C8     C     0.16578   0.16655   0.16364   0.00000  Uiso   1.00
C9     C     0.12940   0.12845   0.09458   0.00000  Uiso   1.00
C10    C     0.18449   0.21144   0.40750   0.00000  Uiso   1.00
C11    C     0.16267   0.16740   0.11564   0.00000  Uiso   1.00
C12    C     0.16606   0.16662   0.38469   0.00000  Uiso   1.00
C13    C     0.18820   0.20937   0.09246   0.00000  Uiso   1.00
C14    C     0.13311   0.12703   0.40652   0.00000  Uiso   1.00
C15    C     0.17522   0.21538   0.04748   0.00000  Uiso   1.00
C16    C     0.12101   0.13080   0.45375   0.00000  Uiso   1.00
C17    C     0.14555   0.17412   0.02470   0.00000  Uiso   1.00
C18    C     0.14528   0.17399   0.47750   0.00000  Uiso   1.00
C19    C     0.11884   0.13212   0.04865   0.00000  Uiso   1.00
C20    C     0.17096   0.21673   0.45410   0.00000  Uiso   1.00
C21    C     0.18734   0.26214   0.02503   0.00000  Uiso   1.00
C22    C     0.08445   0.09457   0.47821   0.00000  Uiso   1.00
N23    N     0.31678   0.15265   0.23783   0.00000  Uiso   1.00
N24    N     0.01656   0.18068   0.26217   0.00000  Uiso   1.00
O25    O     0.12975   0.24619   0.25299   0.00000  Uiso   1.00
O26    O     0.20358   0.08714   0.24702   0.00000  Uiso   1.00
O27    O     0.22613   0.23721   0.24519   0.00000  Uiso   1.00
O28    O     0.10720   0.09613   0.25482   0.00000  Uiso   1.00
O29    O     0.11847   0.17117   0.31998   0.00000  Uiso   1.00
O30    O     0.21486   0.16216   0.18002   0.00000  Uiso   1.00
O31    O     0.21485   0.16219   0.31218   0.00000  Uiso   1.00
O32    O     0.11848   0.17115   0.18783   0.00000  Uiso   1.00
Zn33   Zn    0.10231   0.17266   0.25521   0.00000  Uiso   1.00
Zn34   Zn    0.23102   0.16067   0.24479   0.00000  Uiso   1.00
C35    C     0.11401   0.08213   0.11952   0.00000  Uiso   1.00
N36    N     0.10214   0.04539   0.13953   0.00000  Uiso   1.00
C37    C     0.21946   0.25041   0.38273   0.00000  Uiso   1.00
N38    N     0.24688   0.28158   0.36297   0.00000  Uiso   1.00
C39    C     0.23204   0.24341   0.11477   0.00000  Uiso   1.00
H40    H     0.22410   0.25720   0.14931   0.00000  Uiso   1.00
O41    O     0.27836   0.25452   0.09507   0.00000  Uiso   1.00
C42    C     0.11665   0.08090   0.37876   0.00000  Uiso   1.00
H43    H     0.14703   0.05182   0.37156   0.00000  Uiso   1.00
O44    O     0.07114   0.07764   0.36073   0.00000  Uiso   1.00
C45    C     0.19838   0.31022   0.04971   0.00000  Uiso   1.00
N46    N     0.20751   0.01531   0.06902   0.00000  Uiso   1.00
C47    C     0.04358   0.05989   0.45594   0.00000  Uiso   1.00
N48    N     0.01056   0.03211   0.43884   0.00000  Uiso   1.00
C49    C     0.17976   0.31353   0.45704   0.00000  Uiso   1.00
H50    H     0.20763   0.01278   0.46685   0.00000  Uiso   1.00
O51    O     0.14421   0.31922   0.42973   0.00000  Uiso   1.00
C52    C     0.03824   0.06271   0.05132   0.00000  Uiso   1.00
H53    H     0.01378   0.07874   0.08009   0.00000  Uiso   1.00
O54    O     0.02991   0.01741   0.04127   0.00000  Uiso   1.00
C55    C     0.25120   0.00445   0.24837   0.00000  Uiso   1.00
H56    H     0.26580   0.02749   0.27695   0.00000  Uiso   1.00
O57    O     0.28529   0.32777   0.21693   0.00000  Uiso   1.00
C58    C     0.08241   0.32860   0.24739   0.00000  Uiso   1.00
H59    H     0.06944   0.30476   0.21877   0.00000  Uiso   1.00
O60    O     0.04673   0.00564   0.27757   0.00000  Uiso   1.00
C61    C     0.00266   0.14752   0.19199   0.00000  Uiso   1.00
H62    H     0.02116   0.18045   0.17383   0.00000  Uiso   1.00
O63    O     0.32742   0.10685   0.17167   0.00000  Uiso   1.00
C64    C     0.33145   0.18447   0.30827   0.00000  Uiso   1.00
H65    H     0.31109   0.15154   0.32538   0.00000  Uiso   1.00
O66    O     0.01021   0.22342   0.33010   0.00000  Uiso   1.00
C67    C     0.51497   0.26451   0.24767   0.00000  Uiso   1.00
C68    C     0.48501   0.06876   0.25164   0.00000  Uiso   1.00
C69    C     0.51532   0.26330   0.47844   0.00000  Uiso   1.00
C70    C     0.41583   0.09577   0.02577   0.00000  Uiso   1.00
C71    C     0.52326   0.31852   0.24745   0.00000  Uiso   1.00
C72    C     0.47678   0.01469   0.25007   0.00000  Uiso   1.00
C73    C     0.50059   0.16677   0.33636   0.00000  Uiso   1.00
C74    C     0.49911   0.16655   0.16364   0.00000  Uiso   1.00
C75    C     0.46273   0.12845   0.09458   0.00000  Uiso   1.00
C76    C     0.51782   0.21144   0.40750   0.00000  Uiso   1.00
C77    C     0.49600   0.16740   0.11564   0.00000  Uiso   1.00
C78    C     0.49940   0.16662   0.38469   0.00000  Uiso   1.00
C79    C     0.52153   0.20937   0.09246   0.00000  Uiso   1.00
C80    C     0.46645   0.12703   0.40652   0.00000  Uiso   1.00
C81    C     0.50855   0.21538   0.04748   0.00000  Uiso   1.00
C82    C     0.45435   0.13080   0.45375   0.00000  Uiso   1.00
C83    C     0.47889   0.17412   0.02470   0.00000  Uiso   1.00
C84    C     0.47861   0.17399   0.47750   0.00000  Uiso   1.00
C85    C     0.45218   0.13212   0.04865   0.00000  Uiso   1.00
C86    C     0.50429   0.21673   0.45410   0.00000  Uiso   1.00
C87    C     0.52067   0.26214   0.02503   0.00000  Uiso   1.00
C88    C     0.41778   0.09457   0.47821   0.00000  Uiso   1.00
N89    N     0.65011   0.15265   0.23783   0.00000  Uiso   1.00
N90    N     0.34989   0.18068   0.26217   0.00000  Uiso   1.00
O91    O     0.46308   0.24619   0.25299   0.00000  Uiso   1.00
O92    O     0.53692   0.08714   0.24702   0.00000  Uiso   1.00
O93    O     0.55946   0.23721   0.24519   0.00000  Uiso   1.00
O94    O     0.44054   0.09613   0.25482   0.00000  Uiso   1.00
O95    O     0.45181   0.17117   0.31998   0.00000  Uiso   1.00
O96    O     0.54819   0.16216   0.18002   0.00000  Uiso   1.00
O97    O     0.54819   0.16219   0.31218   0.00000  Uiso   1.00
O98    O     0.45181   0.17115   0.18783   0.00000  Uiso   1.00
Zn99   Zn    0.43565   0.17266   0.25521   0.00000  Uiso   1.00
Zn100  Zn    0.56435   0.16067   0.24479   0.00000  Uiso   1.00
C101   C     0.44734   0.08213   0.11952   0.00000  Uiso   1.00
N102   N     0.43548   0.04539   0.13953   0.00000  Uiso   1.00
C103   C     0.55279   0.25041   0.38273   0.00000  Uiso   1.00
N104   N     0.58021   0.28158   0.36297   0.00000  Uiso   1.00
C105   C     0.56538   0.24341   0.11477   0.00000  Uiso   1.00
H106   H     0.55743   0.25720   0.14931   0.00000  Uiso   1.00
O107   O     0.61169   0.25452   0.09507   0.00000  Uiso   1.00
C108   C     0.44998   0.08090   0.37876   0.00000  Uiso   1.00
H109   H     0.48036   0.05182   0.37156   0.00000  Uiso   1.00
O110   O     0.40448   0.07764   0.36073   0.00000  Uiso   1.00
C111   C     0.53171   0.31022   0.04971   0.00000  Uiso   1.00
N112   N     0.54084   0.01531   0.06902   0.00000  Uiso   1.00
C113   C     0.37691   0.05989   0.45594   0.00000  Uiso   1.00
N114   N     0.34390   0.03211   0.43884   0.00000  Uiso   1.00
C115   C     0.51309   0.31353   0.45704   0.00000  Uiso   1.00
H116   H     0.54097   0.01278   0.46685   0.00000  Uiso   1.00
O117   O     0.47755   0.31922   0.42973   0.00000  Uiso   1.00
C118   C     0.37157   0.06271   0.05132   0.00000  Uiso   1.00
H119   H     0.34712   0.07874   0.08009   0.00000  Uiso   1.00
O120   O     0.36325   0.01741   0.04127   0.00000  Uiso   1.00
C121   C     0.58453   0.00445   0.24837   0.00000  Uiso   1.00
H122   H     0.59914   0.02749   0.27695   0.00000  Uiso   1.00
O123   O     0.61862   0.32777   0.21693   0.00000  Uiso   1.00
C124   C     0.41574   0.32860   0.24739   0.00000  Uiso   1.00
H125   H     0.40277   0.30476   0.21877   0.00000  Uiso   1.00
O126   O     0.38007   0.00564   0.27757   0.00000  Uiso   1.00
C127   C     0.33600   0.14752   0.19199   0.00000  Uiso   1.00
H128   H     0.35449   0.18045   0.17383   0.00000  Uiso   1.00
O129   O     0.66075   0.10685   0.17167   0.00000  Uiso   1.00
C130   C     0.66478   0.18447   0.30827   0.00000  Uiso   1.00
H131   H     0.64443   0.15154   0.32538   0.00000  Uiso   1.00
O132   O     0.34354   0.22342   0.33010   0.00000  Uiso   1.00
C133   C     0.84830   0.26451   0.24767   0.00000  Uiso   1.00
C134   C     0.81834   0.06876   0.25164   0.00000  Uiso   1.00
C135   C     0.84865   0.26330   0.47844   0.00000  Uiso   1.00
C136   C     0.74916   0.09577   0.02577   0.00000  Uiso   1.00
C137   C     0.85660   0.31852   0.24745   0.00000  Uiso   1.00
C138   C     0.81011   0.01469   0.25007   0.00000  Uiso   1.00
C139   C     0.83392   0.16677   0.33636   0.00000  Uiso   1.00
C140   C     0.83245   0.16655   0.16364   0.00000  Uiso   1.00
C141   C     0.79606   0.12845   0.09458   0.00000  Uiso   1.00
C142   C     0.85116   0.21144   0.40750   0.00000  Uiso   1.00
C143   C     0.82934   0.16740   0.11564   0.00000  Uiso   1.00
C144   C     0.83273   0.16662   0.38469   0.00000  Uiso   1.00
C145   C     0.85487   0.20937   0.09246   0.00000  Uiso   1.00
C146   C     0.79978   0.12703   0.40652   0.00000  Uiso   1.00
C147   C     0.84189   0.21538   0.04748   0.00000  Uiso   1.00
C148   C     0.78768   0.13080   0.45375   0.00000  Uiso   1.00
C149   C     0.81222   0.17412   0.02470   0.00000  Uiso   1.00
C150   C     0.81195   0.17399   0.47750   0.00000  Uiso   1.00
C151   C     0.78551   0.13212   0.04865   0.00000  Uiso   1.00
C152   C     0.83763   0.21673   0.45410   0.00000  Uiso   1.00
C153   C     0.85400   0.26214   0.02503   0.00000  Uiso   1.00
C154   C     0.75111   0.09457   0.47821   0.00000  Uiso   1.00
N155   N     0.98344   0.15265   0.23783   0.00000  Uiso   1.00
N156   N     0.68322   0.18068   0.26217   0.00000  Uiso   1.00
O157   O     0.79642   0.24619   0.25299   0.00000  Uiso   1.00
O158   O     0.87025   0.08714   0.24702   0.00000  Uiso   1.00
O159   O     0.89280   0.23721   0.24519   0.00000  Uiso   1.00
O160   O     0.77387   0.09613   0.25482   0.00000  Uiso   1.00
O161   O     0.78514   0.17117   0.31998   0.00000  Uiso   1.00
O162   O     0.88153   0.16216   0.18002   0.00000  Uiso   1.00
O163   O     0.88152   0.16219   0.31218   0.00000  Uiso   1.00
O164   O     0.78515   0.17115   0.18783   0.00000  Uiso   1.00
Zn165  Zn    0.76898   0.17266   0.25521   0.00000  Uiso   1.00
Zn166  Zn    0.89769   0.16067   0.24479   0.00000  Uiso   1.00
C167   C     0.78067   0.08213   0.11952   0.00000  Uiso   1.00
N168   N     0.76881   0.04539   0.13953   0.00000  Uiso   1.00
C169   C     0.88612   0.25041   0.38273   0.00000  Uiso   1.00
N170   N     0.91354   0.28158   0.36297   0.00000  Uiso   1.00
C171   C     0.89871   0.24341   0.11477   0.00000  Uiso   1.00
H172   H     0.89076   0.25720   0.14931   0.00000  Uiso   1.00
O173   O     0.94503   0.25452   0.09507   0.00000  Uiso   1.00
C174   C     0.78331   0.08090   0.37876   0.00000  Uiso   1.00
H175   H     0.81369   0.05182   0.37156   0.00000  Uiso   1.00
O176   O     0.73781   0.07764   0.36073   0.00000  Uiso   1.00
C177   C     0.86505   0.31022   0.04971   0.00000  Uiso   1.00
N178   N     0.87418   0.01531   0.06902   0.00000  Uiso   1.00
C179   C     0.71025   0.05989   0.45594   0.00000  Uiso   1.00
N180   N     0.67723   0.03211   0.43884   0.00000  Uiso   1.00
C181   C     0.84642   0.31353   0.45704   0.00000  Uiso   1.00
H182   H     0.87430   0.01278   0.46685   0.00000  Uiso   1.00
O183   O     0.81088   0.31922   0.42973   0.00000  Uiso   1.00
C184   C     0.70490   0.06271   0.05132   0.00000  Uiso   1.00
H185   H     0.68045   0.07874   0.08009   0.00000  Uiso   1.00
O186   O     0.69658   0.01741   0.04127   0.00000  Uiso   1.00
C187   C     0.91787   0.00445   0.24837   0.00000  Uiso   1.00
H188   H     0.93247   0.02749   0.27695   0.00000  Uiso   1.00
O189   O     0.95195   0.32777   0.21693   0.00000  Uiso   1.00
C190   C     0.74907   0.32860   0.24739   0.00000  Uiso   1.00
H191   H     0.73611   0.30476   0.21877   0.00000  Uiso   1.00
O192   O     0.71340   0.00564   0.27757   0.00000  Uiso   1.00
C193   C     0.66933   0.14752   0.19199   0.00000  Uiso   1.00
H194   H     0.68782   0.18045   0.17383   0.00000  Uiso   1.00
O195   O     0.99408   0.10685   0.17167   0.00000  Uiso   1.00
C196   C     0.99812   0.18447   0.30827   0.00000  Uiso   1.00
H197   H     0.97776   0.15154   0.32538   0.00000  Uiso   1.00
O198   O     0.67688   0.22342   0.33010   0.00000  Uiso   1.00
C199   C     0.18164   0.59784   0.24767   0.00000  Uiso   1.00
C200   C     0.15167   0.40209   0.25164   0.00000  Uiso   1.00
C201   C     0.18198   0.59664   0.47844   0.00000  Uiso   1.00
C202   C     0.08250   0.42910   0.02577   0.00000  Uiso   1.00
C203   C     0.18993   0.65185   0.24745   0.00000  Uiso   1.00
C204   C     0.14345   0.34802   0.25007   0.00000  Uiso   1.00
C205   C     0.16725   0.50010   0.33636   0.00000  Uiso   1.00
C206   C     0.16578   0.49988   0.16364   0.00000  Uiso   1.00
C207   C     0.12940   0.46178   0.09458   0.00000  Uiso   1.00
C208   C     0.18449   0.54478   0.40750   0.00000  Uiso   1.00
C209   C     0.16267   0.50073   0.11564   0.00000  Uiso   1.00
C210   C     0.16606   0.49996   0.38469   0.00000  Uiso   1.00
C211   C     0.18820   0.54270   0.09246   0.00000  Uiso   1.00
C212   C     0.13311   0.46036   0.40652   0.00000  Uiso   1.00
C213   C     0.17522   0.54871   0.04748   0.00000  Uiso   1.00
C214   C     0.12101   0.46413   0.45375   0.00000  Uiso   1.00
C215   C     0.14555   0.50745   0.02470   0.00000  Uiso   1.00
C216   C     0.14528   0.50732   0.47750   0.00000  Uiso   1.00
C217   C     0.11884   0.46545   0.04865   0.00000  Uiso   1.00
C218   C     0.17096   0.55006   0.45410   0.00000  Uiso   1.00
C219   C     0.18734   0.59547   0.02503   0.00000  Uiso   1.00
C220   C     0.08445   0.42790   0.47821   0.00000  Uiso   1.00
N221   N     0.31678   0.48598   0.23783   0.00000  Uiso   1.00
N222   N     0.01656   0.51402   0.26217   0.00000  Uiso   1.00
O223   O     0.12975   0.57952   0.25299   0.00000  Uiso   1.00
O224   O     0.20358   0.42048   0.24702   0.00000  Uiso   1.00
O225   O     0.22613   0.57054   0.24519   0.00000  Uiso   1.00
O226   O     0.10720   0.42946   0.25482   0.00000  Uiso   1.00
O227   O     0.11847   0.50450   0.31998   0.00000  Uiso   1.00
O228   O     0.21486   0.49550   0.18002   0.00000  Uiso   1.00
O229   O     0.21485   0.49552   0.31218   0.00000  Uiso   1.00
O230   O     0.11848   0.50448   0.18783   0.00000  Uiso   1.00
Zn231  Zn    0.10231   0.50600   0.25521   0.00000  Uiso   1.00
Zn232  Zn    0.23102   0.49400   0.24479   0.00000  Uiso   1.00
C233   C     0.11401   0.41547   0.11952   0.00000  Uiso   1.00
N234   N     0.10214   0.37873   0.13953   0.00000  Uiso   1.00
C235   C     0.21946   0.58374   0.38273   0.00000  Uiso   1.00
N236   N     0.24688   0.61491   0.36297   0.00000  Uiso   1.00
C237   C     0.23204   0.57675   0.11477   0.00000  Uiso   1.00
H238   H     0.22410   0.59054   0.14931   0.00000  Uiso   1.00
O239   O     0.27836   0.58786   0.09507   0.00000  Uiso   1.00
C240   C     0.11665   0.41423   0.37876   0.00000  Uiso   1.00
H241   H     0.14703   0.38515   0.37156   0.00000  Uiso   1.00
O242   O     0.07114   0.41098   0.36073   0.00000  Uiso   1.00
C243   C     0.19838   0.64355   0.04971   0.00000  Uiso   1.00
N244   N     0.20751   0.34865   0.06902   0.00000  Uiso   1.00
C245   C     0.04358   0.39323   0.45594   0.00000  Uiso   1.00
N246   N     0.01056   0.36544   0.43884   0.00000  Uiso   1.00
C247   C     0.17976   0.64686   0.45704   0.00000  Uiso   1.00
H248   H     0.20763   0.34611   0.46685   0.00000  Uiso   1.00
O249   O     0.14421   0.65255   0.42973   0.00000  Uiso   1.00
C250   C     0.03824   0.39604   0.05132   0.00000  Uiso   1.00
H251   H     0.01378   0.41207   0.08009   0.00000  Uiso   1.00
O252   O     0.02991   0.35074   0.04127   0.00000  Uiso   1.00
C253   C     0.25120   0.33778   0.24837   0.00000  Uiso   1.00
H254   H     0.26580   0.36082   0.27695   0.00000  Uiso   1.00
O255   O     0.28529   0.66110   0.21693   0.00000  Uiso   1.00
C256   C     0.08241   0.66193   0.24739   0.00000  Uiso   1.00
H257   H     0.06944   0.63809   0.21877   0.00000  Uiso   1.00
O258   O     0.04673   0.33898   0.27757   0.00000  Uiso   1.00
C259   C     0.00266   0.48085   0.19199   0.00000  Uiso   1.00
H260   H     0.02116   0.51379   0.17383   0.00000  Uiso   1.00
O261   O     0.32742   0.44019   0.17167   0.00000  Uiso   1.00
C262   C     0.33145   0.51780   0.30827   0.00000  Uiso   1.00
H263   H     0.31109   0.48487   0.32538   0.00000  Uiso   1.00
O264   O     0.01021   0.55676   0.33010   0.00000  Uiso   1.00
C265   C     0.51497   0.59784   0.24767   0.00000  Uiso   1.00
C266   C     0.48501   0.40209   0.25164   0.00000  Uiso   1.00
C267   C     0.51532   0.59664   0.47844   0.00000  Uiso   1.00
C268   C     0.41583   0.42910   0.02577   0.00000  Uiso   1.00
C269   C     0.52326   0.65185   0.24745   0.00000  Uiso   1.00
C270   C     0.47678   0.34802   0.25007   0.00000  Uiso   1.00
C271   C     0.50059   0.50010   0.33636   0.00000  Uiso   1.00
C272   C     0.49911   0.49988   0.16364   0.00000  Uiso   1.00
C273   C     0.46273   0.46178   0.09458   0.00000  Uiso   1.00
C274   C     0.51782   0.54478   0.40750   0.00000  Uiso   1.00
C275   C     0.49600   0.50073   0.11564   0.00000  Uiso   1.00
C276   C     0.49940   0.49996   0.38469   0.00000  Uiso   1.00
C277   C     0.52153   0.54270   0.09246   0.00000  Uiso   1.00
C278   C     0.46645   0.46036   0.40652   0.00000  Uiso   1.00
C279   C     0.50855   0.54871   0.04748   0.00000  Uiso   1.00
C280   C     0.45435   0.46413   0.45375   0.00000  Uiso   1.00
C281   C     0.47889   0.50745   0.02470   0.00000  Uiso   1.00
C282   C     0.47861   0.50732   0.47750   0.00000  Uiso   1.00
C283   C     0.45218   0.46545   0.04865   0.00000  Uiso   1.00
C284   C     0.50429   0.55006   0.45410   0.00000  Uiso   1.00
C285   C     0.52067   0.59547   0.02503   0.00000  Uiso   1.00
C286   C     0.41778   0.42790   0.47821   0.00000  Uiso   1.00
N287   N     0.65011   0.48598   0.23783   0.00000  Uiso   1.00
N288   N     0.34989   0.51402   0.26217   0.00000  Uiso   1.00
O289   O     0.46308   0.57952   0.25299   0.00000  Uiso   1.00
O290   O     0.53692   0.42048   0.24702   0.00000  Uiso   1.00
O291   O     0.55946   0.57054   0.24519   0.00000  Uiso   1.00
O292   O     0.44054   0.42946   0.25482   0.00000  Uiso   1.00
O293   O     0.45181   0.50450   0.31998   0.00000  Uiso   1.00
O294   O     0.54819   0.49550   0.18002   0.00000  Uiso   1.00
O295   O     0.54819   0.49552   0.31218   0.00000  Uiso   1.00
O296   O     0.45181   0.50448   0.18783   0.00000  Uiso   1.00
Zn297  Zn    0.43565   0.50600   0.25521   0.00000  Uiso   1.00
Zn298  Zn    0.56435   0.49400   0.24479   0.00000  Uiso   1.00
C299   C     0.44734   0.41547   0.11952   0.00000  Uiso   1.00
N300   N     0.43548   0.37873   0.13953   0.00000  Uiso   1.00
C301   C     0.55279   0.58374   0.38273   0.00000  Uiso   1.00
N302   N     0.58021   0.61491   0.36297   0.00000  Uiso   1.00
C303   C     0.56538   0.57675   0.11477   0.00000  Uiso   1.00
H304   H     0.55743   0.59054   0.14931   0.00000  Uiso   1.00
O305   O     0.61169   0.58786   0.09507   0.00000  Uiso   1.00
C306   C     0.44998   0.41423   0.37876   0.00000  Uiso   1.00
H307   H     0.48036   0.38515   0.37156   0.00000  Uiso   1.00
O308   O     0.40448   0.41098   0.36073   0.00000  Uiso   1.00
C309   C     0.53171   0.64355   0.04971   0.00000  Uiso   1.00
N310   N     0.54084   0.34865   0.06902   0.00000  Uiso   1.00
C311   C     0.37691   0.39323   0.45594   0.00000  Uiso   1.00
N312   N     0.34390   0.36544   0.43884   0.00000  Uiso   1.00
C313   C     0.51309   0.64686   0.45704   0.00000  Uiso   1.00
H314   H     0.54097   0.34611   0.46685   0.00000  Uiso   1.00
O315   O     0.47755   0.65255   0.42973   0.00000  Uiso   1.00
C316   C     0.37157   0.39604   0.05132   0.00000  Uiso   1.00
H317   H     0.34712   0.41207   0.08009   0.00000  Uiso   1.00
O318   O     0.36325   0.35074   0.04127   0.00000  Uiso   1.00
C319   C     0.58453   0.33778   0.24837   0.00000  Uiso   1.00
H320   H     0.59914   0.36082   0.27695   0.00000  Uiso   1.00
O321   O     0.61862   0.66110   0.21693   0.00000  Uiso   1.00
C322   C     0.41574   0.66193   0.24739   0.00000  Uiso   1.00
H323   H     0.40277   0.63809   0.21877   0.00000  Uiso   1.00
O324   O     0.38007   0.33898   0.27757   0.00000  Uiso   1.00
C325   C     0.33600   0.48085   0.19199   0.00000  Uiso   1.00
H326   H     0.35449   0.51379   0.17383   0.00000  Uiso   1.00
O327   O     0.66075   0.44019   0.17167   0.00000  Uiso   1.00
C328   C     0.66478   0.51780   0.30827   0.00000  Uiso   1.00
H329   H     0.64443   0.48487   0.32538   0.00000  Uiso   1.00
O330   O     0.34354   0.55676   0.33010   0.00000  Uiso   1.00
C331   C     0.84830   0.59784   0.24767   0.00000  Uiso   1.00
C332   C     0.81834   0.40209   0.25164   0.00000  Uiso   1.00
C333   C     0.84865   0.59664   0.47844   0.00000  Uiso   1.00
C334   C     0.74916   0.42910   0.02577   0.00000  Uiso   1.00
C335   C     0.85660   0.65185   0.24745   0.00000  Uiso   1.00
C336   C     0.81011   0.34802   0.25007   0.00000  Uiso   1.00
C337   C     0.83392   0.50010   0.33636   0.00000  Uiso   1.00
C338   C     0.83245   0.49988   0.16364   0.00000  Uiso   1.00
C339   C     0.79606   0.46178   0.09458   0.00000  Uiso   1.00
C340   C     0.85116   0.54478   0.40750   0.00000  Uiso   1.00
C341   C     0.82934   0.50073   0.11564   0.00000  Uiso   1.00
C342   C     0.83273   0.49996   0.38469   0.00000  Uiso   1.00
C343   C     0.85487   0.54270   0.09246   0.00000  Uiso   1.00
C344   C     0.79978   0.46036   0.40652   0.00000  Uiso   1.00
C345   C     0.84189   0.54871   0.04748   0.00000  Uiso   1.00
C346   C     0.78768   0.46413   0.45375   0.00000  Uiso   1.00
C347   C     0.81222   0.50745   0.02470   0.00000  Uiso   1.00
C348   C     0.81195   0.50732   0.47750   0.00000  Uiso   1.00
C349   C     0.78551   0.46545   0.04865   0.00000  Uiso   1.00
C350   C     0.83763   0.55006   0.45410   0.00000  Uiso   1.00
C351   C     0.85400   0.59547   0.02503   0.00000  Uiso   1.00
C352   C     0.75111   0.42790   0.47821   0.00000  Uiso   1.00
N353   N     0.98344   0.48598   0.23783   0.00000  Uiso   1.00
N354   N     0.68322   0.51402   0.26217   0.00000  Uiso   1.00
O355   O     0.79642   0.57952   0.25299   0.00000  Uiso   1.00
O356   O     0.87025   0.42048   0.24702   0.00000  Uiso   1.00
O357   O     0.89280   0.57054   0.24519   0.00000  Uiso   1.00
O358   O     0.77387   0.42946   0.25482   0.00000  Uiso   1.00
O359   O     0.78514   0.50450   0.31998   0.00000  Uiso   1.00
O360   O     0.88153   0.49550   0.18002   0.00000  Uiso   1.00
O361   O     0.88152   0.49552   0.31218   0.00000  Uiso   1.00
O362   O     0.78515   0.50448   0.18783   0.00000  Uiso   1.00
Zn363  Zn    0.76898   0.50600   0.25521   0.00000  Uiso   1.00
Zn364  Zn    0.89769   0.49400   0.24479   0.00000  Uiso   1.00
C365   C     0.78067   0.41547   0.11952   0.00000  Uiso   1.00
N366   N     0.76881   0.37873   0.13953   0.00000  Uiso   1.00
C367   C     0.88612   0.58374   0.38273   0.00000  Uiso   1.00
N368   N     0.91354   0.61491   0.36297   0.00000  Uiso   1.00
C369   C     0.89871   0.57675   0.11477   0.00000  Uiso   1.00
H370   H     0.89076   0.59054   0.14931   0.00000  Uiso   1.00
O371   O     0.94503   0.58786   0.09507   0.00000  Uiso   1.00
C372   C     0.78331   0.41423   0.37876   0.00000  Uiso   1.00
H373   H     0.81369   0.38515   0.37156   0.00000  Uiso   1.00
O374   O     0.73781   0.41098   0.36073   0.00000  Uiso   1.00
C375   C     0.86505   0.64355   0.04971   0.00000  Uiso   1.00
N376   N     0.87418   0.34865   0.06902   0.00000  Uiso   1.00
C377   C     0.71025   0.39323   0.45594   0.00000  Uiso   1.00
N378   N     0.67723   0.36544   0.43884   0.00000  Uiso   1.00
C379   C     0.84642   0.64686   0.45704   0.00000  Uiso   1.00
H380   H     0.87430   0.34611   0.46685   0.00000  Uiso   1.00
O381   O     0.81088   0.65255   0.42973   0.00000  Uiso   1.00
C382   C     0.70490   0.39604   0.05132   0.00000  Uiso   1.00
H383   H     0.68045   0.41207   0.08009   0.00000  Uiso   1.00
O384   O     0.69658   0.35074   0.04127   0.00000  Uiso   1.00
C385   C     0.91787   0.33778   0.24837   0.00000  Uiso   1.00
H386   H     0.93247   0.36082   0.27695   0.00000  Uiso   1.00
O387   O     0.95195   0.66110   0.21693   0.00000  Uiso   1.00
C388   C     0.74907   0.66193   0.24739   0.00000  Uiso   1.00
H389   H     0.73611   0.63809   0.21877   0.00000  Uiso   1.00
O390   O     0.71340   0.33898   0.27757   0.00000  Uiso   1.00
C391   C     0.66933   0.48085   0.19199   0.00000  Uiso   1.00
H392   H     0.68782   0.51379   0.17383   0.00000  Uiso   1.00
O393   O     0.99408   0.44019   0.17167   0.00000  Uiso   1.00
C394   C     0.99812   0.51780   0.30827   0.00000  Uiso   1.00
H395   H     0.97776   0.48487   0.32538   0.00000  Uiso   1.00
O396   O     0.67688   0.55676   0.33010   0.00000  Uiso   1.00
C397   C     0.18164   0.93118   0.24767   0.00000  Uiso   1.00
C398   C     0.15167   0.73542   0.25164   0.00000  Uiso   1.00
C399   C     0.18198   0.92997   0.47844   0.00000  Uiso   1.00
C400   C     0.08250   0.76243   0.02577   0.00000  Uiso   1.00
C401   C     0.18993   0.98519   0.24745   0.00000  Uiso   1.00
C402   C     0.14345   0.68136   0.25007   0.00000  Uiso   1.00
C403   C     0.16725   0.83344   0.33636   0.00000  Uiso   1.00
C404   C     0.16578   0.83322   0.16364   0.00000  Uiso   1.00
C405   C     0.12940   0.79511   0.09458   0.00000  Uiso   1.00
C406   C     0.18449   0.87811   0.40750   0.00000  Uiso   1.00
C407   C     0.16267   0.83406   0.11564   0.00000  Uiso   1.00
C408   C     0.16606   0.83329   0.38469   0.00000  Uiso   1.00
C409   C     0.18820   0.87603   0.09246   0.00000  Uiso   1.00
C410   C     0.13311   0.79369   0.40652   0.00000  Uiso   1.00
C411   C     0.17522   0.88204   0.04748   0.00000  Uiso   1.00
C412   C     0.12101   0.79746   0.45375   0.00000  Uiso   1.00
C413   C     0.14555   0.84078   0.02470   0.00000  Uiso   1.00
C414   C     0.14528   0.84066   0.47750   0.00000  Uiso   1.00
C415   C     0.11884   0.79879   0.04865   0.00000  Uiso   1.00
C416   C     0.17096   0.88339   0.45410   0.00000  Uiso   1.00
C417   C     0.18734   0.92881   0.02503   0.00000  Uiso   1.00
C418   C     0.08445   0.76123   0.47821   0.00000  Uiso   1.00
N419   N     0.31678   0.81932   0.23783   0.00000  Uiso   1.00
N420   N     0.01656   0.84735   0.26217   0.00000  Uiso   1.00
O421   O     0.12975   0.91286   0.25299   0.00000  Uiso   1.00
O422   O     0.20358   0.75381   0.24702   0.00000  Uiso   1.00
O423   O     0.22613   0.90387   0.24519   0.00000  Uiso   1.00
O424   O     0.10720   0.76279   0.25482   0.00000  Uiso   1.00
O425   O     0.11847   0.83784   0.31998   0.00000  Uiso   1.00
O426   O     0.21486   0.82883   0.18002   0.00000  Uiso   1.00
O427   O     0.21485   0.82885   0.31218   0.00000  Uiso   1.00
O428   O     0.11848   0.83781   0.18783   0.00000  Uiso   1.00
Zn429  Zn    0.10231   0.83933   0.25521   0.00000  Uiso   1.00
Zn430  Zn    0.23102   0.82734   0.24479   0.00000  Uiso   1.00
C431   C     0.11401   0.74880   0.11952   0.00000  Uiso   1.00
N432   N     0.10214   0.71206   0.13953   0.00000  Uiso   1.00
C433   C     0.21946   0.91708   0.38273   0.00000  Uiso   1.00
N434   N     0.24688   0.94825   0.36297   0.00000  Uiso   1.00
C435   C     0.23204   0.91008   0.11477   0.00000  Uiso   1.00
H436   H     0.22410   0.92387   0.14931   0.00000  Uiso   1.00
O437   O     0.27836   0.92119   0.09507   0.00000  Uiso   1.00
C438   C     0.11665   0.74757   0.37876   0.00000  Uiso   1.00
H439   H     0.14703   0.71848   0.37156   0.00000  Uiso   1.00
O440   O     0.07114   0.74431   0.36073   0.00000  Uiso   1.00
C441   C     0.19838   0.97689   0.04971   0.00000  Uiso   1.00
N442   N     0.20751   0.68198   0.06902   0.00000  Uiso   1.00
C443   C     0.04358   0.72656   0.45594   0.00000  Uiso   1.00
N444   N     0.01056   0.69878   0.43884   0.00000  Uiso   1.00
C445   C     0.17976   0.98019   0.45704   0.00000  Uiso   1.00
H446   H     0.20763   0.67944   0.46685   0.00000  Uiso   1.00
O447   O     0.14421   0.98589   0.42973   0.00000  Uiso   1.00
C448   C     0.03824   0.72938   0.05132   0.00000  Uiso   1.00
H449   H     0.01378   0.74540   0.08009   0.00000  Uiso   1.00
O450   O     0.02991   0.68408   0.04127   0.00000  Uiso   1.00
C451   C     0.25120   0.67111   0.24837   0.00000  Uiso   1.00
H452   H     0.26580   0.69415   0.27695   0.00000  Uiso   1.00
O453   O     0.28529   0.99444   0.21693   0.00000  Uiso   1.00
C454   C     0.08241   0.99527   0.24739   0.00000  Uiso   1.00
H455   H     0.06944   0.97143   0.21877   0.00000  Uiso   1.00
O456   O     0.04673   0.67231   0.27757   0.00000  Uiso   1.00
C457   C     0.00266   0.81418   0.19199   0.00000  Uiso   1.00
H458   H     0.02116   0.84712   0.17383   0.00000  Uiso   1.00
O459   O     0.32742   0.77352   0.17167   0.00000  Uiso   1.00
C460   C     0.33145   0.85114   0.30827   0.00000  Uiso   1.00
H461   H     0.31109   0.81821   0.32538   0.00000  Uiso   1.00
O462   O     0.01021   0.89009   0.33010   0.00000  Uiso   1.00
C463   C     0.51497   0.93118   0.24767   0.00000  Uiso   1.00
C464   C     0.48501   0.73542   0.25164   0.00000  Uiso   1.00
C465   C     0.51532   0.92997   0.47844   0.00000  Uiso   1.00
C466   C     0.41583   0.76243   0.02577   0.00000  Uiso   1.00
C467   C     0.52326   0.98519   0.24745   0.00000  Uiso   1.00
C468   C     0.47678   0.68136   0.25007   0.00000  Uiso   1.00
C469   C     0.50059   0.83344   0.33636   0.00000  Uiso   1.00
C470   C     0.49911   0.83322   0.16364   0.00000  Uiso   1.00
C471   C     0.46273   0.79511   0.09458   0.00000  Uiso   1.00
C472   C     0.51782   0.87811   0.40750   0.00000  Uiso   1.00
C473   C     0.49600   0.83406   0.11564   0.00000  Uiso   1.00
C474   C     0.49940   0.83329   0.38469   0.00000  Uiso   1.00
C475   C     0.52153   0.87603   0.09246   0.00000  Uiso   1.00
C476   C     0.46645   0.79369   0.40652   0.00000  Uiso   1.00
C477   C     0.50855   0.88204   0.04748   0.00000  Uiso   1.00
C478   C     0.45435   0.79746   0.45375   0.00000  Uiso   1.00
C479   C     0.47889   0.84078   0.02470   0.00000  Uiso   1.00
C480   C     0.47861   0.84066   0.47750   0.00000  Uiso   1.00
C481   C     0.45218   0.79879   0.04865   0.00000  Uiso   1.00
C482   C     0.50429   0.88339   0.45410   0.00000  Uiso   1.00
C483   C     0.52067   0.92881   0.02503   0.00000  Uiso   1.00
C484   C     0.41778   0.76123   0.47821   0.00000  Uiso   1.00
N485   N     0.65011   0.81932   0.23783   0.00000  Uiso   1.00
N486   N     0.34989   0.84735   0.26217   0.00000  Uiso   1.00
O487   O     0.46308   0.91286   0.25299   0.00000  Uiso   1.00
O488   O     0.53692   0.75381   0.24702   0.00000  Uiso   1.00
O489   O     0.55946   0.90387   0.24519   0.00000  Uiso   1.00
O490   O     0.44054   0.76279   0.25482   0.00000  Uiso   1.00
O491   O     0.45181   0.83784   0.31998   0.00000  Uiso   1.00
O492   O     0.54819   0.82883   0.18002   0.00000  Uiso   1.00
O493   O     0.54819   0.82885   0.31218   0.00000  Uiso   1.00
O494   O     0.45181   0.83781   0.18783   0.00000  Uiso   1.00
Zn495  Zn    0.43565   0.83933   0.25521   0.00000  Uiso   1.00
Zn496  Zn    0.56435   0.82734   0.24479   0.00000  Uiso   1.00
C497   C     0.44734   0.74880   0.11952   0.00000  Uiso   1.00
N498   N     0.43548   0.71206   0.13953   0.00000  Uiso   1.00
C499   C     0.55279   0.91708   0.38273   0.00000  Uiso   1.00
N500   N     0.58021   0.94825   0.36297   0.00000  Uiso   1.00
C501   C     0.56538   0.91008   0.11477   0.00000  Uiso   1.00
H502   H     0.55743   0.92387   0.14931   0.00000  Uiso   1.00
O503   O     0.61169   0.92119   0.09507   0.00000  Uiso   1.00
C504   C     0.44998   0.74757   0.37876   0.00000  Uiso   1.00
H505   H     0.48036   0.71848   0.37156   0.00000  Uiso   1.00
O506   O     0.40448   0.74431   0.36073   0.00000  Uiso   1.00
C507   C     0.53171   0.97689   0.04971   0.00000  Uiso   1.00
N508   N     0.54084   0.68198   0.06902   0.00000  Uiso   1.00
C509   C     0.37691   0.72656   0.45594   0.00000  Uiso   1.00
N510   N     0.34390   0.69878   0.43884   0.00000  Uiso   1.00
C511   C     0.51309   0.98019   0.45704   0.00000  Uiso   1.00
H512   H     0.54097   0.67944   0.46685   0.00000  Uiso   1.00
O513   O     0.47755   0.98589   0.42973   0.00000  Uiso   1.00
C514   C     0.37157   0.72938   0.05132   0.00000  Uiso   1.00
H515   H     0.34712   0.74540   0.08009   0.00000  Uiso   1.00
O516   O     0.36325   0.68408   0.04127   0.00000  Uiso   1.00
C517   C     0.58453   0.67111   0.24837   0.00000  Uiso   1.00
H518   H     0.59914   0.69415   0.27695   0.00000  Uiso   1.00
O519   O     0.61862   0.99444   0.21693   0.00000  Uiso   1.00
C520   C     0.41574   0.99527   0.24739   0.00000  Uiso   1.00
H521   H     0.40277   0.97143   0.21877   0.00000  Uiso   1.00
O522   O     0.38007   0.67231   0.27757   0.00000  Uiso   1.00
C523   C     0.33600   0.81418   0.19199   0.00000  Uiso   1.00
H524   H     0.35449   0.84712   0.17383   0.00000  Uiso   1.00
O525   O     0.66075   0.77352   0.17167   0.00000  Uiso   1.00
C526   C     0.66478   0.85114   0.30827   0.00000  Uiso   1.00
H527   H     0.64443   0.81821   0.32538   0.00000  Uiso   1.00
O528   O     0.34354   0.89009   0.33010   0.00000  Uiso   1.00
C529   C     0.84830   0.93118   0.24767   0.00000  Uiso   1.00
C530   C     0.81834   0.73542   0.25164   0.00000  Uiso   1.00
C531   C     0.84865   0.92997   0.47844   0.00000  Uiso   1.00
C532   C     0.74916   0.76243   0.02577   0.00000  Uiso   1.00
C533   C     0.85660   0.98519   0.24745   0.00000  Uiso   1.00
C534   C     0.81011   0.68136   0.25007   0.00000  Uiso   1.00
C535   C     0.83392   0.83344   0.33636   0.00000  Uiso   1.00
C536   C     0.83245   0.83322   0.16364   0.00000  Uiso   1.00
C537   C     0.79606   0.79511   0.09458   0.00000  Uiso   1.00
C538   C     0.85116   0.87811   0.40750   0.00000  Uiso   1.00
C539   C     0.82934   0.83406   0.11564   0.00000  Uiso   1.00
C540   C     0.83273   0.83329   0.38469   0.00000  Uiso   1.00
C541   C     0.85487   0.87603   0.09246   0.00000  Uiso   1.00
C542   C     0.79978   0.79369   0.40652   0.00000  Uiso   1.00
C543   C     0.84189   0.88204   0.04748   0.00000  Uiso   1.00
C544   C     0.78768   0.79746   0.45375   0.00000  Uiso   1.00
C545   C     0.81222   0.84078   0.02470   0.00000  Uiso   1.00
C546   C     0.81195   0.84066   0.47750   0.00000  Uiso   1.00
C547   C     0.78551   0.79879   0.04865   0.00000  Uiso   1.00
C548   C     0.83763   0.88339   0.45410   0.00000  Uiso   1.00
C549   C     0.85400   0.92881   0.02503   0.00000  Uiso   1.00
C550   C     0.75111   0.76123   0.47821   0.00000  Uiso   1.00
N551   N     0.98344   0.81932   0.23783   0.00000  Uiso   1.00
N552   N     0.68322   0.84735   0.26217   0.00000  Uiso   1.00
O553   O     0.79642   0.91286   0.25299   0.00000  Uiso   1.00
O554   O     0.87025   0.75381   0.24702   0.00000  Uiso   1.00
O555   O     0.89280   0.90387   0.24519   0.00000  Uiso   1.00
O556   O     0.77387   0.76279   0.25482   0.00000  Uiso   1.00
O557   O     0.78514   0.83784   0.31998   0.00000  Uiso   1.00
O558   O     0.88153   0.82883   0.18002   0.00000  Uiso   1.00
O559   O     0.88152   0.82885   0.31218   0.00000  Uiso   1.00
O560   O     0.78515   0.83781   0.18783   0.00000  Uiso   1.00
Zn561  Zn    0.76898   0.83933   0.25521   0.00000  Uiso   1.00
Zn562  Zn    0.89769   0.82734   0.24479   0.00000  Uiso   1.00
C563   C     0.78067   0.74880   0.11952   0.00000  Uiso   1.00
N564   N     0.76881   0.71206   0.13953   0.00000  Uiso   1.00
C565   C     0.88612   0.91708   0.38273   0.00000  Uiso   1.00
N566   N     0.91354   0.94825   0.36297   0.00000  Uiso   1.00
C567   C     0.89871   0.91008   0.11477   0.00000  Uiso   1.00
H568   H     0.89076   0.92387   0.14931   0.00000  Uiso   1.00
O569   O     0.94503   0.92119   0.09507   0.00000  Uiso   1.00
C570   C     0.78331   0.74757   0.37876   0.00000  Uiso   1.00
H571   H     0.81369   0.71848   0.37156   0.00000  Uiso   1.00
O572   O     0.73781   0.74431   0.36073   0.00000  Uiso   1.00
C573   C     0.86505   0.97689   0.04971   0.00000  Uiso   1.00
N574   N     0.87418   0.68198   0.06902   0.00000  Uiso   1.00
C575   C     0.71025   0.72656   0.45594   0.00000  Uiso   1.00
N576   N     0.67723   0.69878   0.43884   0.00000  Uiso   1.00
C577   C     0.84642   0.98019   0.45704   0.00000  Uiso   1.00
H578   H     0.87430   0.67944   0.46685   0.00000  Uiso   1.00
O579   O     0.81088   0.98589   0.42973   0.00000  Uiso   1.00
C580   C     0.70490   0.72938   0.05132   0.00000  Uiso   1.00
H581   H     0.68045   0.74540   0.08009   0.00000  Uiso   1.00
O582   O     0.69658   0.68408   0.04127   0.00000  Uiso   1.00
C583   C     0.91787   0.67111   0.24837   0.00000  Uiso   1.00
H584   H     0.93247   0.69415   0.27695   0.00000  Uiso   1.00
O585   O     0.95195   0.99444   0.21693   0.00000  Uiso   1.00
C586   C     0.74907   0.99527   0.24739   0.00000  Uiso   1.00
H587   H     0.73611   0.97143   0.21877   0.00000  Uiso   1.00
O588   O     0.71340   0.67231   0.27757   0.00000  Uiso   1.00
C589   C     0.66933   0.81418   0.19199   0.00000  Uiso   1.00
H590   H     0.68782   0.84712   0.17383   0.00000  Uiso   1.00
O591   O     0.99408   0.77352   0.17167   0.00000  Uiso   1.00
C592   C     0.99812   0.85114   0.30827   0.00000  Uiso   1.00
H593   H     0.97776   0.81821   0.32538   0.00000  Uiso   1.00
O594   O     0.67688   0.89009   0.33010   0.00000  Uiso   1.00
C595   C     0.18164   0.26451   0.74767   0.00000  Uiso   1.00
C596   C     0.15167   0.06876   0.75164   0.00000  Uiso   1.00
C597   C     0.18198   0.26330   0.97844   0.00000  Uiso   1.00
C598   C     0.08250   0.09577   0.52577   0.00000  Uiso   1.00
C599   C     0.18993   0.31852   0.74745   0.00000  Uiso   1.00
C600   C     0.14345   0.01469   0.75007   0.00000  Uiso   1.00
C601   C     0.16725   0.16677   0.83636   0.00000  Uiso   1.00
C602   C     0.16578   0.16655   0.66364   0.00000  Uiso   1.00
C603   C     0.12940   0.12845   0.59458   0.00000  Uiso   1.00
C604   C     0.18449   0.21144   0.90750   0.00000  Uiso   1.00
C605   C     0.16267   0.16740   0.61564   0.00000  Uiso   1.00
C606   C     0.16606   0.16662   0.88469   0.00000  Uiso   1.00
C607   C     0.18820   0.20937   0.59246   0.00000  Uiso   1.00
C608   C     0.13311   0.12703   0.90652   0.00000  Uiso   1.00
C609   C     0.17522   0.21538   0.54748   0.00000  Uiso   1.00
C610   C     0.12101   0.13080   0.95375   0.00000  Uiso   1.00
C611   C     0.14555   0.17412   0.52470   0.00000  Uiso   1.00
C612   C     0.14528   0.17399   0.97750   0.00000  Uiso   1.00
C613   C     0.11884   0.13212   0.54865   0.00000  Uiso   1.00
C614   C     0.17096   0.21673   0.95410   0.00000  Uiso   1.00
C615   C     0.18734   0.26214   0.52503   0.00000  Uiso   1.00
C616   C     0.08445   0.09457   0.97821   0.00000  Uiso   1.00
N617   N     0.31678   0.15265   0.73783   0.00000  Uiso   1.00
N618   N     0.01656   0.18068   0.76217   0.00000  Uiso   1.00
O619   O     0.12975   0.24619   0.75299   0.00000  Uiso   1.00
O620   O     0.20358   0.08714   0.74702   0.00000  Uiso   1.00
O621   O     0.22613   0.23721   0.74519   0.00000  Uiso   1.00
O622   O     0.10720   0.09613   0.75482   0.00000  Uiso   1.00
O623   O     0.11847   0.17117   0.81998   0.00000  Uiso   1.00
O624   O     0.21486   0.16216   0.68002   0.00000  Uiso   1.00
O625   O     0.21485   0.16219   0.81218   0.00000  Uiso   1.00
O626   O     0.11848   0.17115   0.68783   0.00000  Uiso   1.00
Zn627  Zn    0.10231   0.17266   0.75521   0.00000  Uiso   1.00
Zn628  Zn    0.23102   0.16067   0.74479   0.00000  Uiso   1.00
C629   C     0.11401   0.08213   0.61952   0.00000  Uiso   1.00
N630   N     0.10214   0.04539   0.63953   0.00000  Uiso   1.00
C631   C     0.21946   0.25041   0.88273   0.00000  Uiso   1.00
N632   N     0.24688   0.28158   0.86297   0.00000  Uiso   1.00
C633   C     0.23204   0.24341   0.61477   0.00000  Uiso   1.00
H634   H     0.22410   0.25720   0.64931   0.00000  Uiso   1.00
O635   O     0.27836   0.25452   0.59507   0.00000  Uiso   1.00
C636   C     0.11665   0.08090   0.87876   0.00000  Uiso   1.00
H637   H     0.14703   0.05182   0.87156   0.00000  Uiso   1.00
O638   O     0.07114   0.07764   0.86073   0.00000  Uiso   1.00
C639   C     0.19838   0.31022   0.54971   0.00000  Uiso   1.00
N640   N     0.20751   0.01531   0.56902   0.00000  Uiso   1.00
C641   C     0.04358   0.05989   0.95594   0.00000  Uiso   1.00
N642   N     0.01056   0.03211   0.93884   0.00000  Uiso   1.00
C643   C     0.17976   0.31353   0.95704   0.00000  Uiso   1.00
H644   H     0.20763   0.01278   0.96685   0.00000  Uiso   1.00
O645   O     0.14421   0.31922   0.92973   0.00000  Uiso   1.00
C646   C     0.03824   0.06271   0.55132   0.00000  Uiso   1.00
H647   H     0.01378   0.07874   0.58009   0.00000  Uiso   1.00
O648   O     0.02991   0.01741   0.54127   0.00000  Uiso   1.00
C649   C     0.25120   0.00445   0.74837   0.00000  Uiso   1.00
H650   H     0.26580   0.02749   0.77695   0.00000  Uiso   1.00
O651   O     0.28529   0.32777   0.71693   0.00000  Uiso   1.00
C652   C     0.08241   0.32860   0.74739   0.00000  Uiso   1.00
H653   H     0.06944   0.30476   0.71877   0.00000  Uiso   1.00
O654   O     0.04673   0.00564   0.77757   0.00000  Uiso   1.00
C655   C     0.00266   0.14752   0.69199   0.00000  Uiso   1.00
H656   H     0.02116   0.18045   0.67383   0.00000  Uiso   1.00
O657   O     0.32742   0.10685   0.67167   0.00000  Uiso   1.00
C658   C     0.33145   0.18447   0.80827   0.00000  Uiso   1.00
H659   H     0.31109   0.15154   0.82538   0.00000  Uiso   1.00
O660   O     0.01021   0.22342   0.83010   0.00000  Uiso   1.00
C661   C     0.51497   0.26451   0.74767   0.00000  Uiso   1.00
C662   C     0.48501   0.06876   0.75164   0.00000  Uiso   1.00
C663   C     0.51532   0.26330   0.97844   0.00000  Uiso   1.00
C664   C     0.41583   0.09577   0.52577   0.00000  Uiso   1.00
C665   C     0.52326   0.31852   0.74745   0.00000  Uiso   1.00
C666   C     0.47678   0.01469   0.75007   0.00000  Uiso   1.00
C667   C     0.50059   0.16677   0.83636   0.00000  Uiso   1.00
C668   C     0.49911   0.16655   0.66364   0.00000  Uiso   1.00
C669   C     0.46273   0.12845   0.59458   0.00000  Uiso   1.00
C670   C     0.51782   0.21144   0.90750   0.00000  Uiso   1.00
C671   C     0.49600   0.16740   0.61564   0.00000  Uiso   1.00
C672   C     0.49940   0.16662   0.88469   0.00000  Uiso   1.00
C673   C     0.52153   0.20937   0.59246   0.00000  Uiso   1.00
C674   C     0.46645   0.12703   0.90652   0.00000  Uiso   1.00
C675   C     0.50855   0.21538   0.54748   0.00000  Uiso   1.00
C676   C     0.45435   0.13080   0.95375   0.00000  Uiso   1.00
C677   C     0.47889   0.17412   0.52470   0.00000  Uiso   1.00
C678   C     0.47861   0.17399   0.97750   0.00000  Uiso   1.00
C679   C     0.45218   0.13212   0.54865   0.00000  Uiso   1.00
C680   C     0.50429   0.21673   0.95410   0.00000  Uiso   1.00
C681   C     0.52067   0.26214   0.52503   0.00000  Uiso   1.00
C682   C     0.41778   0.09457   0.97821   0.00000  Uiso   1.00
N683   N     0.65011   0.15265   0.73783   0.00000  Uiso   1.00
N684   N     0.34989   0.18068   0.76217   0.00000  Uiso   1.00
O685   O     0.46308   0.24619   0.75299   0.00000  Uiso   1.00
O686   O     0.53692   0.08714   0.74702   0.00000  Uiso   1.00
O687   O     0.55946   0.23721   0.74519   0.00000  Uiso   1.00
O688   O     0.44054   0.09613   0.75482   0.00000  Uiso   1.00
O689   O     0.45181   0.17117   0.81998   0.00000  Uiso   1.00
O690   O     0.54819   0.16216   0.68002   0.00000  Uiso   1.00
O691   O     0.54819   0.16219   0.81218   0.00000  Uiso   1.00
O692   O     0.45181   0.17115   0.68783   0.00000  Uiso   1.00
Zn693  Zn    0.43565   0.17266   0.75521   0.00000  Uiso   1.00
Zn694  Zn    0.56435   0.16067   0.74479   0.00000  Uiso   1.00
C695   C     0.44734   0.08213   0.61952   0.00000  Uiso   1.00
N696   N     0.43548   0.04539   0.63953   0.00000  Uiso   1.00
C697   C     0.55279   0.25041   0.88273   0.00000  Uiso   1.00
N698   N     0.58021   0.28158   0.86297   0.00000  Uiso   1.00
C699   C     0.56538   0.24341   0.61477   0.00000  Uiso   1.00
H700   H     0.55743   0.25720   0.64931   0.00000  Uiso   1.00
O701   O     0.61169   0.25452   0.59507   0.00000  Uiso   1.00
C702   C     0.44998   0.08090   0.87876   0.00000  Uiso   1.00
H703   H     0.48036   0.05182   0.87156   0.00000  Uiso   1.00
O704   O     0.40448   0.07764   0.86073   0.00000  Uiso   1.00
C705   C     0.53171   0.31022   0.54971   0.00000  Uiso   1.00
N706   N     0.54084   0.01531   0.56902   0.00000  Uiso   1.00
C707   C     0.37691   0.05989   0.95594   0.00000  Uiso   1.00
N708   N     0.34390   0.03211   0.93884   0.00000  Uiso   1.00
C709   C     0.51309   0.31353   0.95704   0.00000  Uiso   1.00
H710   H     0.54097   0.01278   0.96685   0.00000  Uiso   1.00
O711   O     0.47755   0.31922   0.92973   0.00000  Uiso   1.00
C712   C     0.37157   0.06271   0.55132   0.00000  Uiso   1.00
H713   H     0.34712   0.07874   0.58009   0.00000  Uiso   1.00
O714   O     0.36325   0.01741   0.54127   0.00000  Uiso   1.00
C715   C     0.58453   0.00445   0.74837   0.00000  Uiso   1.00
H716   H     0.59914   0.02749   0.77695   0.00000  Uiso   1.00
O717   O     0.61862   0.32777   0.71693   0.00000  Uiso   1.00
C718   C     0.41574   0.32860   0.74739   0.00000  Uiso   1.00
H719   H     0.40277   0.30476   0.71877   0.00000  Uiso   1.00
O720   O     0.38007   0.00564   0.77757   0.00000  Uiso   1.00
C721   C     0.33600   0.14752   0.69199   0.00000  Uiso   1.00
H722   H     0.35449   0.18045   0.67383   0.00000  Uiso   1.00
O723   O     0.66075   0.10685   0.67167   0.00000  Uiso   1.00
C724   C     0.66478   0.18447   0.80827   0.00000  Uiso   1.00
H725   H     0.64443   0.15154   0.82538   0.00000  Uiso   1.00
O726   O     0.34354   0.22342   0.83010   0.00000  Uiso   1.00
C727   C     0.84830   0.26451   0.74767   0.00000  Uiso   1.00
C728   C     0.81834   0.06876   0.75164   0.00000  Uiso   1.00
C729   C     0.84865   0.26330   0.97844   0.00000  Uiso   1.00
C730   C     0.74916   0.09577   0.52577   0.00000  Uiso   1.00
C731   C     0.85660   0.31852   0.74745   0.00000  Uiso   1.00
C732   C     0.81011   0.01469   0.75007   0.00000  Uiso   1.00
C733   C     0.83392   0.16677   0.83636   0.00000  Uiso   1.00
C734   C     0.83245   0.16655   0.66364   0.00000  Uiso   1.00
C735   C     0.79606   0.12845   0.59458   0.00000  Uiso   1.00
C736   C     0.85116   0.21144   0.90750   0.00000  Uiso   1.00
C737   C     0.82934   0.16740   0.61564   0.00000  Uiso   1.00
C738   C     0.83273   0.16662   0.88469   0.00000  Uiso   1.00
C739   C     0.85487   0.20937   0.59246   0.00000  Uiso   1.00
C740   C     0.79978   0.12703   0.90652   0.00000  Uiso   1.00
C741   C     0.84189   0.21538   0.54748   0.00000  Uiso   1.00
C742   C     0.78768   0.13080   0.95375   0.00000  Uiso   1.00
C743   C     0.81222   0.17412   0.52470   0.00000  Uiso   1.00
C744   C     0.81195   0.17399   0.97750   0.00000  Uiso   1.00
C745   C     0.78551   0.13212   0.54865   0.00000  Uiso   1.00
C746   C     0.83763   0.21673   0.95410   0.00000  Uiso   1.00
C747   C     0.85400   0.26214   0.52503   0.00000  Uiso   1.00
C748   C     0.75111   0.09457   0.97821   0.00000  Uiso   1.00
N749   N     0.98344   0.15265   0.73783   0.00000  Uiso   1.00
N750   N     0.68322   0.18068   0.76217   0.00000  Uiso   1.00
O751   O     0.79642   0.24619   0.75299   0.00000  Uiso   1.00
O752   O     0.87025   0.08714   0.74702   0.00000  Uiso   1.00
O753   O     0.89280   0.23721   0.74519   0.00000  Uiso   1.00
O754   O     0.77387   0.09613   0.75482   0.00000  Uiso   1.00
O755   O     0.78514   0.17117   0.81998   0.00000  Uiso   1.00
O756   O     0.88153   0.16216   0.68002   0.00000  Uiso   1.00
O757   O     0.88152   0.16219   0.81218   0.00000  Uiso   1.00
O758   O     0.78515   0.17115   0.68783   0.00000  Uiso   1.00
Zn759  Zn    0.76898   0.17266   0.75521   0.00000  Uiso   1.00
Zn760  Zn    0.89769   0.16067   0.74479   0.00000  Uiso   1.00
C761   C     0.78067   0.08213   0.61952   0.00000  Uiso   1.00
N762   N     0.76881   0.04539   0.63953   0.00000  Uiso   1.00
C763   C     0.88612   0.25041   0.88273   0.00000  Uiso   1.00
N764   N     0.91354   0.28158   0.86297   0.00000  Uiso   1.00
C765   C     0.89871   0.24341   0.61477   0.00000  Uiso   1.00
H766   H     0.89076   0.25720   0.64931   0.00000  Uiso   1.00
O767   O     0.94503   0.25452   0.59507   0.00000  Uiso   1.00
C768   C     0.78331   0.08090   0.87876   0.00000  Uiso   1.00
H769   H     0.81369   0.05182   0.87156   0.00000  Uiso   1.00
O770   O     0.73781   0.07764   0.86073   0.00000  Uiso   1.00
C771   C     0.86505   0.31022   0.54971   0.00000  Uiso   1.00
N772   N     0.87418   0.01531   0.56902   0.00000  Uiso   1.00
C773   C     0.71025   0.05989   0.95594   0.00000  Uiso   1.00
N774   N     0.67723   0.03211   0.93884   0.00000  Uiso   1.00
C775   C     0.84642   0.31353   0.95704   0.00000  Uiso   1.00
H776   H     0.87430   0.01278   0.96685   0.00000  Uiso   1.00
O777   O     0.81088   0.31922   0.92973   0.00000  Uiso   1.00
C778   C     0.70490   0.06271   0.55132   0.00000  Uiso   1.00
H779   H     0.68045   0.07874   0.58009   0.00000  Uiso   1.00
O780   O     0.69658   0.01741   0.54127   0.00000  Uiso   1.00
C781   C     0.91787   0.00445   0.74837   0.00000  Uiso   1.00
H782   H     0.93247   0.02749   0.77695   0.00000  Uiso   1.00
O783   O     0.95195   0.32777   0.71693   0.00000  Uiso   1.00
C784   C     0.74907   0.32860   0.74739   0.00000  Uiso   1.00
H785   H     0.73611   0.30476   0.71877   0.00000  Uiso   1.00
O786   O     0.71340   0.00564   0.77757   0.00000  Uiso   1.00
C787   C     0.66933   0.14752   0.69199   0.00000  Uiso   1.00
H788   H     0.68782   0.18045   0.67383   0.00000  Uiso   1.00
O789   O     0.99408   0.10685   0.67167   0.00000  Uiso   1.00
C790   C     0.99812   0.18447   0.80827   0.00000  Uiso   1.00
H791   H     0.97776   0.15154   0.82538   0.00000  Uiso   1.00
O792   O     0.67688   0.22342   0.83010   0.00000  Uiso   1.00
C793   C     0.18164   0.59784   0.74767   0.00000  Uiso   1.00
C794   C     0.15167   0.40209   0.75164   0.00000  Uiso   1.00
C795   C     0.18198   0.59664   0.97844   0.00000  Uiso   1.00
C796   C     0.08250   0.42910   0.52577   0.00000  Uiso   1.00
C797   C     0.18993   0.65185   0.74745   0.00000  Uiso   1.00
C798   C     0.14345   0.34802   0.75007   0.00000  Uiso   1.00
C799   C     0.16725   0.50010   0.83636   0.00000  Uiso   1.00
C800   C     0.16578   0.49988   0.66364   0.00000  Uiso   1.00
C801   C     0.12940   0.46178   0.59458   0.00000  Uiso   1.00
C802   C     0.18449   0.54478   0.90750   0.00000  Uiso   1.00
C803   C     0.16267   0.50073   0.61564   0.00000  Uiso   1.00
C804   C     0.16606   0.49996   0.88469   0.00000  Uiso   1.00
C805   C     0.18820   0.54270   0.59246   0.00000  Uiso   1.00
C806   C     0.13311   0.46036   0.90652   0.00000  Uiso   1.00
C807   C     0.17522   0.54871   0.54748   0.00000  Uiso   1.00
C808   C     0.12101   0.46413   0.95375   0.00000  Uiso   1.00
C809   C     0.14555   0.50745   0.52470   0.00000  Uiso   1.00
C810   C     0.14528   0.50732   0.97750   0.00000  Uiso   1.00
C811   C     0.11884   0.46545   0.54865   0.00000  Uiso   1.00
C812   C     0.17096   0.55006   0.95410   0.00000  Uiso   1.00
C813   C     0.18734   0.59547   0.52503   0.00000  Uiso   1.00
C814   C     0.08445   0.42790   0.97821   0.00000  Uiso   1.00
N815   N     0.31678   0.48598   0.73783   0.00000  Uiso   1.00
N816   N     0.01656   0.51402   0.76217   0.00000  Uiso   1.00
O817   O     0.12975   0.57952   0.75299   0.00000  Uiso   1.00
O818   O     0.20358   0.42048   0.74702   0.00000  Uiso   1.00
O819   O     0.22613   0.57054   0.74519   0.00000  Uiso   1.00
O820   O     0.10720   0.42946   0.75482   0.00000  Uiso   1.00
O821   O     0.11847   0.50450   0.81998   0.00000  Uiso   1.00
O822   O     0.21486   0.49550   0.68002   0.00000  Uiso   1.00
O823   O     0.21485   0.49552   0.81218   0.00000  Uiso   1.00
O824   O     0.11848   0.50448   0.68783   0.00000  Uiso   1.00
Zn825  Zn    0.10231   0.50600   0.75521   0.00000  Uiso   1.00
Zn826  Zn    0.23102   0.49400   0.74479   0.00000  Uiso   1.00
C827   C     0.11401   0.41547   0.61952   0.00000  Uiso   1.00
N828   N     0.10214   0.37873   0.63953   0.00000  Uiso   1.00
C829   C     0.21946   0.58374   0.88273   0.00000  Uiso   1.00
N830   N     0.24688   0.61491   0.86297   0.00000  Uiso   1.00
C831   C     0.23204   0.57675   0.61477   0.00000  Uiso   1.00
H832   H     0.22410   0.59054   0.64931   0.00000  Uiso   1.00
O833   O     0.27836   0.58786   0.59507   0.00000  Uiso   1.00
C834   C     0.11665   0.41423   0.87876   0.00000  Uiso   1.00
H835   H     0.14703   0.38515   0.87156   0.00000  Uiso   1.00
O836   O     0.07114   0.41098   0.86073   0.00000  Uiso   1.00
C837   C     0.19838   0.64355   0.54971   0.00000  Uiso   1.00
N838   N     0.20751   0.34865   0.56902   0.00000  Uiso   1.00
C839   C     0.04358   0.39323   0.95594   0.00000  Uiso   1.00
N840   N     0.01056   0.36544   0.93884   0.00000  Uiso   1.00
C841   C     0.17976   0.64686   0.95704   0.00000  Uiso   1.00
H842   H     0.20763   0.34611   0.96685   0.00000  Uiso   1.00
O843   O     0.14421   0.65255   0.92973   0.00000  Uiso   1.00
C844   C     0.03824   0.39604   0.55132   0.00000  Uiso   1.00
H845   H     0.01378   0.41207   0.58009   0.00000  Uiso   1.00
O846   O     0.02991   0.35074   0.54127   0.00000  Uiso   1.00
C847   C     0.25120   0.33778   0.74837   0.00000  Uiso   1.00
H848   H     0.26580   0.36082   0.77695   0.00000  Uiso   1.00
O849   O     0.28529   0.66110   0.71693   0.00000  Uiso   1.00
C850   C     0.08241   0.66193   0.74739   0.00000  Uiso   1.00
H851   H     0.06944   0.63809   0.71877   0.00000  Uiso   1.00
O852   O     0.04673   0.33898   0.77757   0.00000  Uiso   1.00
C853   C     0.00266   0.48085   0.69199   0.00000  Uiso   1.00
H854   H     0.02116   0.51379   0.67383   0.00000  Uiso   1.00
O855   O     0.32742   0.44019   0.67167   0.00000  Uiso   1.00
C856   C     0.33145   0.51780   0.80827   0.00000  Uiso   1.00
H857   H     0.31109   0.48487   0.82538   0.00000  Uiso   1.00
O858   O     0.01021   0.55676   0.83010   0.00000  Uiso   1.00
C859   C     0.51497   0.59784   0.74767   0.00000  Uiso   1.00
C860   C     0.48501   0.40209   0.75164   0.00000  Uiso   1.00
C861   C     0.51532   0.59664   0.97844   0.00000  Uiso   1.00
C862   C     0.41583   0.42910   0.52577   0.00000  Uiso   1.00
C863   C     0.52326   0.65185   0.74745   0.00000  Uiso   1.00
C864   C     0.47678   0.34802   0.75007   0.00000  Uiso   1.00
C865   C     0.50059   0.50010   0.83636   0.00000  Uiso   1.00
C866   C     0.49911   0.49988   0.66364   0.00000  Uiso   1.00
C867   C     0.46273   0.46178   0.59458   0.00000  Uiso   1.00
C868   C     0.51782   0.54478   0.90750   0.00000  Uiso   1.00
C869   C     0.49600   0.50073   0.61564   0.00000  Uiso   1.00
C870   C     0.49940   0.49996   0.88469   0.00000  Uiso   1.00
C871   C     0.52153   0.54270   0.59246   0.00000  Uiso   1.00
C872   C     0.46645   0.46036   0.90652   0.00000  Uiso   1.00
C873   C     0.50855   0.54871   0.54748   0.00000  Uiso   1.00
C874   C     0.45435   0.46413   0.95375   0.00000  Uiso   1.00
C875   C     0.47889   0.50745   0.52470   0.00000  Uiso   1.00
C876   C     0.47861   0.50732   0.97750   0.00000  Uiso   1.00
C877   C     0.45218   0.46545   0.54865   0.00000  Uiso   1.00
C878   C     0.50429   0.55006   0.95410   0.00000  Uiso   1.00
C879   C     0.52067   0.59547   0.52503   0.00000  Uiso   1.00
C880   C     0.41778   0.42790   0.97821   0.00000  Uiso   1.00
N881   N     0.65011   0.48598   0.73783   0.00000  Uiso   1.00
N882   N     0.34989   0.51402   0.76217   0.00000  Uiso   1.00
O883   O     0.46308   0.57952   0.75299   0.00000  Uiso   1.00
O884   O     0.53692   0.42048   0.74702   0.00000  Uiso   1.00
O885   O     0.55946   0.57054   0.74519   0.00000  Uiso   1.00
O886   O     0.44054   0.42946   0.75482   0.00000  Uiso   1.00
O887   O     0.45181   0.50450   0.81998   0.00000  Uiso   1.00
O888   O     0.54819   0.49550   0.68002   0.00000  Uiso   1.00
O889   O     0.54819   0.49552   0.81218   0.00000  Uiso   1.00
O890   O     0.45181   0.50448   0.68783   0.00000  Uiso   1.00
Zn891  Zn    0.43565   0.50600   0.75521   0.00000  Uiso   1.00
Zn892  Zn    0.56435   0.49400   0.74479   0.00000  Uiso   1.00
C893   C     0.44734   0.41547   0.61952   0.00000  Uiso   1.00
N894   N     0.43548   0.37873   0.63953   0.00000  Uiso   1.00
C895   C     0.55279   0.58374   0.88273   0.00000  Uiso   1.00
N896   N     0.58021   0.61491   0.86297   0.00000  Uiso   1.00
C897   C     0.56538   0.57675   0.61477   0.00000  Uiso   1.00
H898   H     0.55743   0.59054   0.64931   0.00000  Uiso   1.00
O899   O     0.61169   0.58786   0.59507   0.00000  Uiso   1.00
C900   C     0.44998   0.41423   0.87876   0.00000  Uiso   1.00
H901   H     0.48036   0.38515   0.87156   0.00000  Uiso   1.00
O902   O     0.40448   0.41098   0.86073   0.00000  Uiso   1.00
C903   C     0.53171   0.64355   0.54971   0.00000  Uiso   1.00
N904   N     0.54084   0.34865   0.56902   0.00000  Uiso   1.00
C905   C     0.37691   0.39323   0.95594   0.00000  Uiso   1.00
N906   N     0.34390   0.36544   0.93884   0.00000  Uiso   1.00
C907   C     0.51309   0.64686   0.95704   0.00000  Uiso   1.00
H908   H     0.54097   0.34611   0.96685   0.00000  Uiso   1.00
O909   O     0.47755   0.65255   0.92973   0.00000  Uiso   1.00
C910   C     0.37157   0.39604   0.55132   0.00000  Uiso   1.00
H911   H     0.34712   0.41207   0.58009   0.00000  Uiso   1.00
O912   O     0.36325   0.35074   0.54127   0.00000  Uiso   1.00
C913   C     0.58453   0.33778   0.74837   0.00000  Uiso   1.00
H914   H     0.59914   0.36082   0.77695   0.00000  Uiso   1.00
O915   O     0.61862   0.66110   0.71693   0.00000  Uiso   1.00
C916   C     0.41574   0.66193   0.74739   0.00000  Uiso   1.00
H917   H     0.40277   0.63809   0.71877   0.00000  Uiso   1.00
O918   O     0.38007   0.33898   0.77757   0.00000  Uiso   1.00
C919   C     0.33600   0.48085   0.69199   0.00000  Uiso   1.00
H920   H     0.35449   0.51379   0.67383   0.00000  Uiso   1.00
O921   O     0.66075   0.44019   0.67167   0.00000  Uiso   1.00
C922   C     0.66478   0.51780   0.80827   0.00000  Uiso   1.00
H923   H     0.64443   0.48487   0.82538   0.00000  Uiso   1.00
O924   O     0.34354   0.55676   0.83010   0.00000  Uiso   1.00
C925   C     0.84830   0.59784   0.74767   0.00000  Uiso   1.00
C926   C     0.81834   0.40209   0.75164   0.00000  Uiso   1.00
C927   C     0.84865   0.59664   0.97844   0.00000  Uiso   1.00
C928   C     0.74916   0.42910   0.52577   0.00000  Uiso   1.00
C929   C     0.85660   0.65185   0.74745   0.00000  Uiso   1.00
C930   C     0.81011   0.34802   0.75007   0.00000  Uiso   1.00
C931   C     0.83392   0.50010   0.83636   0.00000  Uiso   1.00
C932   C     0.83245   0.49988   0.66364   0.00000  Uiso   1.00
C933   C     0.79606   0.46178   0.59458   0.00000  Uiso   1.00
C934   C     0.85116   0.54478   0.90750   0.00000  Uiso   1.00
C935   C     0.82934   0.50073   0.61564   0.00000  Uiso   1.00
C936   C     0.83273   0.49996   0.88469   0.00000  Uiso   1.00
C937   C     0.85487   0.54270   0.59246   0.00000  Uiso   1.00
C938   C     0.79978   0.46036   0.90652   0.00000  Uiso   1.00
C939   C     0.84189   0.54871   0.54748   0.00000  Uiso   1.00
C940   C     0.78768   0.46413   0.95375   0.00000  Uiso   1.00
C941   C     0.81222   0.50745   0.52470   0.00000  Uiso   1.00
C942   C     0.81195   0.50732   0.97750   0.00000  Uiso   1.00
C943   C     0.78551   0.46545   0.54865   0.00000  Uiso   1.00
C944   C     0.83763   0.55006   0.95410   0.00000  Uiso   1.00
C945   C     0.85400   0.59547   0.52503   0.00000  Uiso   1.00
C946   C     0.75111   0.42790   0.97821   0.00000  Uiso   1.00
N947   N     0.98344   0.48598   0.73783   0.00000  Uiso   1.00
N948   N     0.68322   0.51402   0.76217   0.00000  Uiso   1.00
O949   O     0.79642   0.57952   0.75299   0.00000  Uiso   1.00
O950   O     0.87025   0.42048   0.74702   0.00000  Uiso   1.00
O951   O     0.89280   0.57054   0.74519   0.00000  Uiso   1.00
O952   O     0.77387   0.42946   0.75482   0.00000  Uiso   1.00
O953   O     0.78514   0.50450   0.81998   0.00000  Uiso   1.00
O954   O     0.88153   0.49550   0.68002   0.00000  Uiso   1.00
O955   O     0.88152   0.49552   0.81218   0.00000  Uiso   1.00
O956   O     0.78515   0.50448   0.68783   0.00000  Uiso   1.00
Zn957  Zn    0.76898   0.50600   0.75521   0.00000  Uiso   1.00
Zn958  Zn    0.89769   0.49400   0.74479   0.00000  Uiso   1.00
C959   C     0.78067   0.41547   0.61952   0.00000  Uiso   1.00
N960   N     0.76881   0.37873   0.63953   0.00000  Uiso   1.00
C961   C     0.88612   0.58374   0.88273   0.00000  Uiso   1.00
N962   N     0.91354   0.61491   0.86297   0.00000  Uiso   1.00
C963   C     0.89871   0.57675   0.61477   0.00000  Uiso   1.00
H964   H     0.89076   0.59054   0.64931   0.00000  Uiso   1.00
O965   O     0.94503   0.58786   0.59507   0.00000  Uiso   1.00
C966   C     0.78331   0.41423   0.87876   0.00000  Uiso   1.00
H967   H     0.81369   0.38515   0.87156   0.00000  Uiso   1.00
O968   O     0.73781   0.41098   0.86073   0.00000  Uiso   1.00
C969   C     0.86505   0.64355   0.54971   0.00000  Uiso   1.00
N970   N     0.87418   0.34865   0.56902   0.00000  Uiso   1.00
C971   C     0.71025   0.39323   0.95594   0.00000  Uiso   1.00
N972   N     0.67723   0.36544   0.93884   0.00000  Uiso   1.00
C973   C     0.84642   0.64686   0.95704   0.00000  Uiso   1.00
H974   H     0.87430   0.34611   0.96685   0.00000  Uiso   1.00
O975   O     0.81088   0.65255   0.92973   0.00000  Uiso   1.00
C976   C     0.70490   0.39604   0.55132   0.00000  Uiso   1.00
H977   H     0.68045   0.41207   0.58009   0.00000  Uiso   1.00
O978   O     0.69658   0.35074   0.54127   0.00000  Uiso   1.00
C979   C     0.91787   0.33778   0.74837   0.00000  Uiso   1.00
H980   H     0.93247   0.36082   0.77695   0.00000  Uiso   1.00
O981   O     0.95195   0.66110   0.71693   0.00000  Uiso   1.00
C982   C     0.74907   0.66193   0.74739   0.00000  Uiso   1.00
H983   H     0.73611   0.63809   0.71877   0.00000  Uiso   1.00
O984   O     0.71340   0.33898   0.77757   0.00000  Uiso   1.00
C985   C     0.66933   0.48085   0.69199   0.00000  Uiso   1.00
H986   H     0.68782   0.51379   0.67383   0.00000  Uiso   1.00
O987   O     0.99408   0.44019   0.67167   0.00000  Uiso   1.00
C988   C     0.99812   0.51780   0.80827   0.00000  Uiso   1.00
H989   H     0.97776   0.48487   0.82538   0.00000  Uiso   1.00
O990   O     0.67688   0.55676   0.83010   0.00000  Uiso   1.00
C991   C     0.18164   0.93118   0.74767   0.00000  Uiso   1.00
C992   C     0.15167   0.73542   0.75164   0.00000  Uiso   1.00
C993   C     0.18198   0.92997   0.97844   0.00000  Uiso   1.00
C994   C     0.08250   0.76243   0.52577   0.00000  Uiso   1.00
C995   C     0.18993   0.98519   0.74745   0.00000  Uiso   1.00
C996   C     0.14345   0.68136   0.75007   0.00000  Uiso   1.00
C997   C     0.16725   0.83344   0.83636   0.00000  Uiso   1.00
C998   C     0.16578   0.83322   0.66364   0.00000  Uiso   1.00
C999   C     0.12940   0.79511   0.59458   0.00000  Uiso   1.00
C1000  C     0.18449   0.87811   0.90750   0.00000  Uiso   1.00
C1001  C     0.16267   0.83406   0.61564   0.00000  Uiso   1.00
C1002  C     0.16606   0.83329   0.88469   0.00000  Uiso   1.00
C1003  C     0.18820   0.87603   0.59246   0.00000  Uiso   1.00
C1004  C     0.13311   0.79369   0.90652   0.00000  Uiso   1.00
C1005  C     0.17522   0.88204   0.54748   0.00000  Uiso   1.00
C1006  C     0.12101   0.79746   0.95375   0.00000  Uiso   1.00
C1007  C     0.14555   0.84078   0.52470   0.00000  Uiso   1.00
C1008  C     0.14528   0.84066   0.97750   0.00000  Uiso   1.00
C1009  C     0.11884   0.79879   0.54865   0.00000  Uiso   1.00
C1010  C     0.17096   0.88339   0.95410   0.00000  Uiso   1.00
C1011  C     0.18734   0.92881   0.52503   0.00000  Uiso   1.00
C1012  C     0.08445   0.76123   0.97821   0.00000  Uiso   1.00
N1013  N     0.31678   0.81932   0.73783   0.00000  Uiso   1.00
N1014  N     0.01656   0.84735   0.76217   0.00000  Uiso   1.00
O1015  O     0.12975   0.91286   0.75299   0.00000  Uiso   1.00
O1016  O     0.20358   0.75381   0.74702   0.00000  Uiso   1.00
O1017  O     0.22613   0.90387   0.74519   0.00000  Uiso   1.00
O1018  O     0.10720   0.76279   0.75482   0.00000  Uiso   1.00
O1019  O     0.11847   0.83784   0.81998   0.00000  Uiso   1.00
O1020  O     0.21486   0.82883   0.68002   0.00000  Uiso   1.00
O1021  O     0.21485   0.82885   0.81218   0.00000  Uiso   1.00
O1022  O     0.11848   0.83781   0.68783   0.00000  Uiso   1.00
Zn1023 Zn    0.10231   0.83933   0.75521   0.00000  Uiso   1.00
Zn1024 Zn    0.23102   0.82734   0.74479   0.00000  Uiso   1.00
C1025  C     0.11401   0.74880   0.61952   0.00000  Uiso   1.00
N1026  N     0.10214   0.71206   0.63953   0.00000  Uiso   1.00
C1027  C     0.21946   0.91708   0.88273   0.00000  Uiso   1.00
N1028  N     0.24688   0.94825   0.86297   0.00000  Uiso   1.00
C1029  C     0.23204   0.91008   0.61477   0.00000  Uiso   1.00
H1030  H     0.22410   0.92387   0.64931   0.00000  Uiso   1.00
O1031  O     0.27836   0.92119   0.59507   0.00000  Uiso   1.00
C1032  C     0.11665   0.74757   0.87876   0.00000  Uiso   1.00
H1033  H     0.14703   0.71848   0.87156   0.00000  Uiso   1.00
O1034  O     0.07114   0.74431   0.86073   0.00000  Uiso   1.00
C1035  C     0.19838   0.97689   0.54971   0.00000  Uiso   1.00
N1036  N     0.20751   0.68198   0.56902   0.00000  Uiso   1.00
C1037  C     0.04358   0.72656   0.95594   0.00000  Uiso   1.00
N1038  N     0.01056   0.69878   0.93884   0.00000  Uiso   1.00
C1039  C     0.17976   0.98019   0.95704   0.00000  Uiso   1.00
H1040  H     0.20763   0.67944   0.96685   0.00000  Uiso   1.00
O1041  O     0.14421   0.98589   0.92973   0.00000  Uiso   1.00
C1042  C     0.03824   0.72938   0.55132   0.00000  Uiso   1.00
H1043  H     0.01378   0.74540   0.58009   0.00000  Uiso   1.00
O1044  O     0.02991   0.68408   0.54127   0.00000  Uiso   1.00
C1045  C     0.25120   0.67111   0.74837   0.00000  Uiso   1.00
H1046  H     0.26580   0.69415   0.77695   0.00000  Uiso   1.00
O1047  O     0.28529   0.99444   0.71693   0.00000  Uiso   1.00
C1048  C     0.08241   0.99527   0.74739   0.00000  Uiso   1.00
H1049  H     0.06944   0.97143   0.71877   0.00000  Uiso   1.00
O1050  O     0.04673   0.67231   0.77757   0.00000  Uiso   1.00
C1051  C     0.00266   0.81418   0.69199   0.00000  Uiso   1.00
H1052  H     0.02116   0.84712   0.67383   0.00000  Uiso   1.00
O1053  O     0.32742   0.77352   0.67167   0.00000  Uiso   1.00
C1054  C     0.33145   0.85114   0.80827   0.00000  Uiso   1.00
H1055  H     0.31109   0.81821   0.82538   0.00000  Uiso   1.00
O1056  O     0.01021   0.89009   0.83010   0.00000  Uiso   1.00
C1057  C     0.51497   0.93118   0.74767   0.00000  Uiso   1.00
C1058  C     0.48501   0.73542   0.75164   0.00000  Uiso   1.00
C1059  C     0.51532   0.92997   0.97844   0.00000  Uiso   1.00
C1060  C     0.41583   0.76243   0.52577   0.00000  Uiso   1.00
C1061  C     0.52326   0.98519   0.74745   0.00000  Uiso   1.00
C1062  C     0.47678   0.68136   0.75007   0.00000  Uiso   1.00
C1063  C     0.50059   0.83344   0.83636   0.00000  Uiso   1.00
C1064  C     0.49911   0.83322   0.66364   0.00000  Uiso   1.00
C1065  C     0.46273   0.79511   0.59458   0.00000  Uiso   1.00
C1066  C     0.51782   0.87811   0.90750   0.00000  Uiso   1.00
C1067  C     0.49600   0.83406   0.61564   0.00000  Uiso   1.00
C1068  C     0.49940   0.83329   0.88469   0.00000  Uiso   1.00
C1069  C     0.52153   0.87603   0.59246   0.00000  Uiso   1.00
C1070  C     0.46645   0.79369   0.90652   0.00000  Uiso   1.00
C1071  C     0.50855   0.88204   0.54748   0.00000  Uiso   1.00
C1072  C     0.45435   0.79746   0.95375   0.00000  Uiso   1.00
C1073  C     0.47889   0.84078   0.52470   0.00000  Uiso   1.00
C1074  C     0.47861   0.84066   0.97750   0.00000  Uiso   1.00
C1075  C     0.45218   0.79879   0.54865   0.00000  Uiso   1.00
C1076  C     0.50429   0.88339   0.95410   0.00000  Uiso   1.00
C1077  C     0.52067   0.92881   0.52503   0.00000  Uiso   1.00
C1078  C     0.41778   0.76123   0.97821   0.00000  Uiso   1.00
N1079  N     0.65011   0.81932   0.73783   0.00000  Uiso   1.00
N1080  N     0.34989   0.84735   0.76217   0.00000  Uiso   1.00
O1081  O     0.46308   0.91286   0.75299   0.00000  Uiso   1.00
O1082  O     0.53692   0.75381   0.74702   0.00000  Uiso   1.00
O1083  O     0.55946   0.90387   0.74519   0.00000  Uiso   1.00
O1084  O     0.44054   0.76279   0.75482   0.00000  Uiso   1.00
O1085  O     0.45181   0.83784   0.81998   0.00000  Uiso   1.00
O1086  O     0.54819   0.82883   0.68002   0.00000  Uiso   1.00
O1087  O     0.54819   0.82885   0.81218   0.00000  Uiso   1.00
O1088  O     0.45181   0.83781   0.68783   0.00000  Uiso   1.00
Zn1089 Zn    0.43565   0.83933   0.75521   0.00000  Uiso   1.00
Zn1090 Zn    0.56435   0.82734   0.74479   0.00000  Uiso   1.00
C1091  C     0.44734   0.74880   0.61952   0.00000  Uiso   1.00
N1092  N     0.43548   0.71206   0.63953   0.00000  Uiso   1.00
C1093  C     0.55279   0.91708   0.88273   0.00000  Uiso   1.00
N1094  N     0.58021   0.94825   0.86297   0.00000  Uiso   1.00
C1095  C     0.56538   0.91008   0.61477   0.00000  Uiso   1.00
H1096  H     0.55743   0.92387   0.64931   0.00000  Uiso   1.00
O1097  O     0.61169   0.92119   0.59507   0.00000  Uiso   1.00
C1098  C     0.44998   0.74757   0.87876   0.00000  Uiso   1.00
H1099  H     0.48036   0.71848   0.87156   0.00000  Uiso   1.00
O1100  O     0.40448   0.74431   0.86073   0.00000  Uiso   1.00
C1101  C     0.53171   0.97689   0.54971   0.00000  Uiso   1.00
N1102  N     0.54084   0.68198   0.56902   0.00000  Uiso   1.00
C1103  C     0.37691   0.72656   0.95594   0.00000  Uiso   1.00
N1104  N     0.34390   0.69878   0.93884   0.00000  Uiso   1.00
C1105  C     0.51309   0.98019   0.95704   0.00000  Uiso   1.00
H1106  H     0.54097   0.67944   0.96685   0.00000  Uiso   1.00
O1107  O     0.47755   0.98589   0.92973   0.00000  Uiso   1.00
C1108  C     0.37157   0.72938   0.55132   0.00000  Uiso   1.00
H1109  H     0.34712   0.74540   0.58009   0.00000  Uiso   1.00
O1110  O     0.36325   0.68408   0.54127   0.00000  Uiso   1.00
C1111  C     0.58453   0.67111   0.74837   0.00000  Uiso   1.00
H1112  H     0.59914   0.69415   0.77695   0.00000  Uiso   1.00
O1113  O     0.61862   0.99444   0.71693   0.00000  Uiso   1.00
C1114  C     0.41574   0.99527   0.74739   0.00000  Uiso   1.00
H1115  H     0.40277   0.97143   0.71877   0.00000  Uiso   1.00
O1116  O     0.38007   0.67231   0.77757   0.00000  Uiso   1.00
C1117  C     0.33600   0.81418   0.69199   0.00000  Uiso   1.00
H1118  H     0.35449   0.84712   0.67383   0.00000  Uiso   1.00
O1119  O     0.66075   0.77352   0.67167   0.00000  Uiso   1.00
C1120  C     0.66478   0.85114   0.80827   0.00000  Uiso   1.00
H1121  H     0.64443   0.81821   0.82538   0.00000  Uiso   1.00
O1122  O     0.34354   0.89009   0.83010   0.00000  Uiso   1.00
C1123  C     0.84830   0.93118   0.74767   0.00000  Uiso   1.00
C1124  C     0.81834   0.73542   0.75164   0.00000  Uiso   1.00
C1125  C     0.84865   0.92997   0.97844   0.00000  Uiso   1.00
C1126  C     0.74916   0.76243   0.52577   0.00000  Uiso   1.00
C1127  C     0.85660   0.98519   0.74745   0.00000  Uiso   1.00
C1128  C     0.81011   0.68136   0.75007   0.00000  Uiso   1.00
C1129  C     0.83392   0.83344   0.83636   0.00000  Uiso   1.00
C1130  C     0.83245   0.83322   0.66364   0.00000  Uiso   1.00
C1131  C     0.79606   0.79511   0.59458   0.00000  Uiso   1.00
C1132  C     0.85116   0.87811   0.90750   0.00000  Uiso   1.00
C1133  C     0.82934   0.83406   0.61564   0.00000  Uiso   1.00
C1134  C     0.83273   0.83329   0.88469   0.00000  Uiso   1.00
C1135  C     0.85487   0.87603   0.59246   0.00000  Uiso   1.00
C1136  C     0.79978   0.79369   0.90652   0.00000  Uiso   1.00
C1137  C     0.84189   0.88204   0.54748   0.00000  Uiso   1.00
C1138  C     0.78768   0.79746   0.95375   0.00000  Uiso   1.00
C1139  C     0.81222   0.84078   0.52470   0.00000  Uiso   1.00
C1140  C     0.81195   0.84066   0.97750   0.00000  Uiso   1.00
C1141  C     0.78551   0.79879   0.54865   0.00000  Uiso   1.00
C1142  C     0.83763   0.88339   0.95410   0.00000  Uiso   1.00
C1143  C     0.85400   0.92881   0.52503   0.00000  Uiso   1.00
C1144  C     0.75111   0.76123   0.97821   0.00000  Uiso   1.00
N1145  N     0.98344   0.81932   0.73783   0.00000  Uiso   1.00
N1146  N     0.68322   0.84735   0.76217   0.00000  Uiso   1.00
O1147  O     0.79642   0.91286   0.75299   0.00000  Uiso   1.00
O1148  O     0.87025   0.75381   0.74702   0.00000  Uiso   1.00
O1149  O     0.89280   0.90387   0.74519   0.00000  Uiso   1.00
O1150  O     0.77387   0.76279   0.75482   0.00000  Uiso   1.00
O1151  O     0.78514   0.83784   0.81998   0.00000  Uiso   1.00
O1152  O     0.88153   0.82883   0.68002   0.00000  Uiso   1.00
O1153  O     0.88152   0.82885   0.81218   0.00000  Uiso   1.00
O1154  O     0.78515   0.83781   0.68783   0.00000  Uiso   1.00
Zn1155 Zn    0.76898   0.83933   0.75521   0.00000  Uiso   1.00
Zn1156 Zn    0.89769   0.82734   0.74479   0.00000  Uiso   1.00
C1157  C     0.78067   0.74880   0.61952   0.00000  Uiso   1.00
N1158  N     0.76881   0.71206   0.63953   0.00000  Uiso   1.00
C1159  C     0.88612   0.91708   0.88273   0.00000  Uiso   1.00
N1160  N     0.91354   0.94825   0.86297   0.00000  Uiso   1.00
C1161  C     0.89871   0.91008   0.61477   0.00000  Uiso   1.00
H1162  H     0.89076   0.92387   0.64931   0.00000  Uiso   1.00
O1163  O     0.94503   0.92119   0.59507   0.00000  Uiso   1.00
C1164  C     0.78331   0.74757   0.87876   0.00000  Uiso   1.00
H1165  H     0.81369   0.71848   0.87156   0.00000  Uiso   1.00
O1166  O     0.73781   0.74431   0.86073   0.00000  Uiso   1.00
C1167  C     0.86505   0.97689   0.54971   0.00000  Uiso   1.00
N1168  N     0.87418   0.68198   0.56902   0.00000  Uiso   1.00
C1169  C     0.71025   0.72656   0.95594   0.00000  Uiso   1.00
N1170  N     0.67723   0.69878   0.93884   0.00000  Uiso   1.00
C1171  C     0.84642   0.98019   0.95704   0.00000  Uiso   1.00
H1172  H     0.87430   0.67944   0.96685   0.00000  Uiso   1.00
O1173  O     0.81088   0.98589   0.92973   0.00000  Uiso   1.00
C1174  C     0.70490   0.72938   0.55132   0.00000  Uiso   1.00
H1175  H     0.68045   0.74540   0.58009   0.00000  Uiso   1.00
O1176  O     0.69658   0.68408   0.54127   0.00000  Uiso   1.00
C1177  C     0.91787   0.67111   0.74837   0.00000  Uiso   1.00
H1178  H     0.93247   0.69415   0.77695   0.00000  Uiso   1.00
O1179  O     0.95195   0.99444   0.71693   0.00000  Uiso   1.00
C1180  C     0.74907   0.99527   0.74739   0.00000  Uiso   1.00
H1181  H     0.73611   0.97143   0.71877   0.00000  Uiso   1.00
O1182  O     0.71340   0.67231   0.77757   0.00000  Uiso   1.00
C1183  C     0.66933   0.81418   0.69199   0.00000  Uiso   1.00
H1184  H     0.68782   0.84712   0.67383   0.00000  Uiso   1.00
O1185  O     0.99408   0.77352   0.67167   0.00000  Uiso   1.00
C1186  C     0.99812   0.85114   0.80827   0.00000  Uiso   1.00
H1187  H     0.97776   0.81821   0.82538   0.00000  Uiso   1.00
O1188  O     0.67688   0.89009   0.83010   0.00000  Uiso   1.00
loop_
_geom_bond_atom_site_label_1
_geom_bond_atom_site_label_2
_geom_bond_distance
_geom_bond_site_symmetry_2
_ccdc_geom_bond_type
C1     O25     1.280   .     A
C1     C5      1.417   .     S
C1     O27     1.299   .     A
C2     O28     1.299   .     A
C2     O26     1.280   .     A
C2     C6      1.418   .     S
C3     C49     1.486   .     S
C3     C20     1.416   .     A
C3     C615    1.399   .     S
C4     C52     1.493   .     S
C4     C19     1.423   .     A
C4     C616    1.409   1_554 S
C5     C204    1.372   .     S
C5     C253    1.493   .     S
C6     C401    1.372   1_545 S
C6     C454    1.493   1_545 S
C7     O29     1.284   .     A
C7     C12     1.434   .     S
C7     O31     1.296   .     A
C8     C11     1.433   .     S
C8     O30     1.291   .     A
C8     O32     1.290   .     A
C9     C11     1.400   .     A
C9     C35     1.457   .     S
C9     C19     1.409   .     A
C10    C37     1.456   .     S
C10    C12     1.395   .     A
C10    C20     1.403   .     A
C11    C13     1.398   .     A
C12    C14     1.404   .     A
C13    C15     1.405   .     A
C13    C39     1.491   .     S
C14    C42     1.485   .     S
C14    C16     1.414   .     A
C15    C21     1.419   .     A
C15    C17     1.424   .     A
C16    C18     1.421   .     A
C16    C22     1.423   .     A
C17    C19     1.420   .     A
C17    C612    1.402   1_554 S
C18    C20     1.418   .     A
C18    C611    1.402   .     S
C21    C45     1.454   .     S
C21    C597    1.399   1_554 S
C22    C47     1.453   .     S
C22    C598    1.409   .     S
N23    Zn34    2.030   .     S
N23    N90     1.276   .     S
N23    C127    1.410   .     S
N24    Zn33    2.030   .     S
N24    N155    1.276   1_455 S
N24    C196    1.410   1_455 S
O25    Zn33    1.994   .     S
O26    Zn34    1.994   .     S
O27    Zn34    2.017   .     S
O28    Zn33    2.017   .     S
O29    Zn33    1.986   .     S
O30    Zn34    1.986   .     S
O31    Zn34    2.011   .     S
O32    Zn33    2.011   .     S
C35    N36     1.158   .     T
C37    N38     1.158   .     T
C39    O41     1.221   .     D
C39    H40     1.085   .     S
C42    O44     1.221   .     D
C42    H43     1.083   .     S
C45    N244    1.157   .     S
N46    C441    1.157   1_545 S
C47    N48     1.158   .     T
C49    O51     1.219   .     D
C49    H248    1.085   .     S
H50    C445    1.085   1_545 S
C52    O54     1.221   .     D
C52    H53     1.085   .     S
C55    H56     1.086   .     S
C55    C401    1.493   1_545 S
C55    O453    1.221   1_545 S
O57    C253    1.221   .     S
C58    H59     1.086   .     S
C58    C204    1.493   .     S
C58    O258    1.221   .     S
O60    C454    1.221   1_545 S
C61    H62     1.085   .     S
C61    N155    1.410   1_455 S
C61    O195    1.219   1_455 S
O63    C127    1.219   .     S
C64    H65     1.084   .     S
C64    N90     1.410   .     S
C64    O132    1.219   .     S
O66    C196    1.219   1_455 S
C67    O91     1.280   .     A
C67    C71     1.417   .     S
C67    O93     1.299   .     A
C68    O94     1.299   .     A
C68    O92     1.280   .     A
C68    C72     1.418   .     S
C69    C115    1.486   .     S
C69    C86     1.416   .     A
C69    C681    1.399   .     S
C70    C118    1.493   .     S
C70    C85     1.423   .     A
C70    C682    1.409   1_554 S
C71    C270    1.372   .     S
C71    C319    1.493   .     S
C72    C467    1.372   1_545 S
C72    C520    1.493   1_545 S
C73    O95     1.284   .     A
C73    C78     1.434   .     S
C73    O97     1.296   .     A
C74    C77     1.433   .     S
C74    O96     1.291   .     A
C74    O98     1.290   .     A
C75    C77     1.400   .     A
C75    C101    1.457   .     S
C75    C85     1.409   .     A
C76    C103    1.456   .     S
C76    C78     1.395   .     A
C76    C86     1.403   .     A
C77    C79     1.398   .     A
C78    C80     1.404   .     A
C79    C81     1.405   .     A
C79    C105    1.491   .     S
C80    C108    1.485   .     S
C80    C82     1.414   .     A
C81    C87     1.419   .     A
C81    C83     1.424   .     A
C82    C84     1.421   .     A
C82    C88     1.423   .     A
C83    C85     1.420   .     A
C83    C678    1.402   1_554 S
C84    C86     1.418   .     A
C84    C677    1.402   .     S
C87    C111    1.454   .     S
C87    C663    1.399   1_554 S
C88    C113    1.453   .     S
C88    C664    1.409   .     S
N89    Zn100   2.030   .     S
N89    N156    1.276   .     S
N89    C193    1.410   .     S
N90    Zn99    2.030   .     S
O91    Zn99    1.994   .     S
O92    Zn100   1.994   .     S
O93    Zn100   2.017   .     S
O94    Zn99    2.017   .     S
O95    Zn99    1.986   .     S
O96    Zn100   1.986   .     S
O97    Zn100   2.011   .     S
O98    Zn99    2.011   .     S
C101   N102    1.158   .     T
C103   N104    1.158   .     T
C105   O107    1.221   .     D
C105   H106    1.085   .     S
C108   O110    1.221   .     D
C108   H109    1.083   .     S
C111   N310    1.157   .     S
N112   C507    1.157   1_545 S
C113   N114    1.158   .     T
C115   O117    1.219   .     D
C115   H314    1.085   .     S
H116   C511    1.085   1_545 S
C118   O120    1.221   .     D
C118   H119    1.085   .     S
C121   H122    1.086   .     S
C121   C467    1.493   1_545 S
C121   O519    1.221   1_545 S
O123   C319    1.221   .     S
C124   H125    1.086   .     S
C124   C270    1.493   .     S
C124   O324    1.221   .     S
O126   C520    1.221   1_545 S
C127   H128    1.085   .     S
O129   C193    1.219   .     S
C130   H131    1.084   .     S
C130   N156    1.410   .     S
C130   O198    1.219   .     S
C133   O157    1.280   .     A
C133   C137    1.417   .     S
C133   O159    1.299   .     A
C134   O160    1.299   .     A
C134   O158    1.280   .     A
C134   C138    1.418   .     S
C135   C181    1.486   .     S
C135   C152    1.416   .     A
C135   C747    1.399   .     S
C136   C184    1.493   .     S
C136   C151    1.423   .     A
C136   C748    1.409   1_554 S
C137   C336    1.372   .     S
C137   C385    1.493   .     S
C138   C533    1.372   1_545 S
C138   C586    1.493   1_545 S
C139   O161    1.284   .     A
C139   C144    1.434   .     S
C139   O163    1.296   .     A
C140   C143    1.433   .     S
C140   O162    1.291   .     A
C140   O164    1.290   .     A
C141   C143    1.400   .     A
C141   C167    1.457   .     S
C141   C151    1.409   .     A
C142   C169    1.456   .     S
C142   C144    1.395   .     A
C142   C152    1.403   .     A
C143   C145    1.398   .     A
C144   C146    1.404   .     A
C145   C147    1.405   .     A
C145   C171    1.491   .     S
C146   C174    1.485   .     S
C146   C148    1.414   .     A
C147   C153    1.419   .     A
C147   C149    1.424   .     A
C148   C150    1.421   .     A
C148   C154    1.423   .     A
C149   C151    1.420   .     A
C149   C744    1.402   1_554 S
C150   C152    1.418   .     A
C150   C743    1.402   .     S
C153   C177    1.454   .     S
C153   C729    1.399   1_554 S
C154   C179    1.453   .     S
C154   C730    1.409   .     S
N155   Zn166   2.030   .     S
N155   N24     1.276   1_655 S
N155   C61     1.410   1_655 S
N156   Zn165   2.030   .     S
O157   Zn165   1.994   .     S
O158   Zn166   1.994   .     S
O159   Zn166   2.017   .     S
O160   Zn165   2.017   .     S
O161   Zn165   1.986   .     S
O162   Zn166   1.986   .     S
O163   Zn166   2.011   .     S
O164   Zn165   2.011   .     S
C167   N168    1.158   .     T
C169   N170    1.158   .     T
C171   O173    1.221   .     D
C171   H172    1.085   .     S
C174   O176    1.221   .     D
C174   H175    1.083   .     S
C177   N376    1.157   .     S
N178   C573    1.157   1_545 S
C179   N180    1.158   .     T
C181   O183    1.219   .     D
C181   H380    1.085   .     S
H182   C577    1.085   1_545 S
C184   O186    1.221   .     D
C184   H185    1.085   .     S
C187   H188    1.086   .     S
C187   C533    1.493   1_545 S
C187   O585    1.221   1_545 S
O189   C385    1.221   .     S
C190   H191    1.086   .     S
C190   C336    1.493   .     S
C190   O390    1.221   .     S
O192   C586    1.221   1_545 S
C193   H194    1.085   .     S
O195   C61     1.219   1_655 S
C196   H197    1.084   .     S
C196   N24     1.410   1_655 S
C196   O66     1.219   1_655 S
C199   O223    1.280   .     A
C199   C203    1.417   .     S
C199   O225    1.299   .     A
C200   O226    1.299   .     A
C200   O224    1.280   .     A
C200   C204    1.418   .     S
C201   C247    1.486   .     S
C201   C218    1.416   .     A
C201   C813    1.399   .     S
C202   C250    1.493   .     S
C202   C217    1.423   .     A
C202   C814    1.409   1_554 S
C203   C402    1.372   .     S
C203   C451    1.493   .     S
C205   O227    1.284   .     A
C205   C210    1.434   .     S
C205   O229    1.296   .     A
C206   C209    1.433   .     S
C206   O228    1.291   .     A
C206   O230    1.290   .     A
C207   C209    1.400   .     A
C207   C233    1.457   .     S
C207   C217    1.409   .     A
C208   C235    1.456   .     S
C208   C210    1.395   .     A
C208   C218    1.403   .     A
C209   C211    1.398   .     A
C210   C212    1.404   .     A
C211   C213    1.405   .     A
C211   C237    1.491   .     S
C212   C240    1.485   .     S
C212   C214    1.414   .     A
C213   C219    1.419   .     A
C213   C215    1.424   .     A
C214   C216    1.421   .     A
C214   C220    1.423   .     A
C215   C217    1.420   .     A
C215   C810    1.402   1_554 S
C216   C218    1.418   .     A
C216   C809    1.402   .     S
C219   C243    1.454   .     S
C219   C795    1.399   1_554 S
C220   C245    1.453   .     S
C220   C796    1.409   .     S
N221   Zn232   2.030   .     S
N221   N288    1.276   .     S
N221   C325    1.410   .     S
N222   Zn231   2.030   .     S
N222   N353    1.276   1_455 S
N222   C394    1.410   1_455 S
O223   Zn231   1.994   .     S
O224   Zn232   1.994   .     S
O225   Zn232   2.017   .     S
O226   Zn231   2.017   .     S
O227   Zn231   1.986   .     S
O228   Zn232   1.986   .     S
O229   Zn232   2.011   .     S
O230   Zn231   2.011   .     S
C233   N234    1.158   .     T
C235   N236    1.158   .     T
C237   O239    1.221   .     D
C237   H238    1.085   .     S
C240   O242    1.221   .     D
C240   H241    1.083   .     S
C243   N442    1.157   .     S
C245   N246    1.158   .     T
C247   O249    1.219   .     D
C247   H446    1.085   .     S
C250   O252    1.221   .     D
C250   H251    1.085   .     S
C253   H254    1.086   .     S
O255   C451    1.221   .     S
C256   H257    1.086   .     S
C256   C402    1.493   .     S
C256   O456    1.221   .     S
C259   H260    1.085   .     S
C259   N353    1.410   1_455 S
C259   O393    1.219   1_455 S
O261   C325    1.219   .     S
C262   H263    1.084   .     S
C262   N288    1.410   .     S
C262   O330    1.219   .     S
O264   C394    1.219   1_455 S
C265   O289    1.280   .     A
C265   C269    1.417   .     S
C265   O291    1.299   .     A
C266   O292    1.299   .     A
C266   O290    1.280   .     A
C266   C270    1.418   .     S
C267   C313    1.486   .     S
C267   C284    1.416   .     A
C267   C879    1.399   .     S
C268   C316    1.493   .     S
C268   C283    1.423   .     A
C268   C880    1.409   1_554 S
C269   C468    1.372   .     S
C269   C517    1.493   .     S
C271   O293    1.284   .     A
C271   C276    1.434   .     S
C271   O295    1.296   .     A
C272   C275    1.433   .     S
C272   O294    1.291   .     A
C272   O296    1.290   .     A
C273   C275    1.400   .     A
C273   C299    1.457   .     S
C273   C283    1.409   .     A
C274   C301    1.456   .     S
C274   C276    1.395   .     A
C274   C284    1.403   .     A
C275   C277    1.398   .     A
C276   C278    1.404   .     A
C277   C279    1.405   .     A
C277   C303    1.491   .     S
C278   C306    1.485   .     S
C278   C280    1.414   .     A
C279   C285    1.419   .     A
C279   C281    1.424   .     A
C280   C282    1.421   .     A
C280   C286    1.423   .     A
C281   C283    1.420   .     A
C281   C876    1.402   1_554 S
C282   C284    1.418   .     A
C282   C875    1.402   .     S
C285   C309    1.454   .     S
C285   C861    1.399   1_554 S
C286   C311    1.453   .     S
C286   C862    1.409   .     S
N287   Zn298   2.030   .     S
N287   N354    1.276   .     S
N287   C391    1.410   .     S
N288   Zn297   2.030   .     S
O289   Zn297   1.994   .     S
O290   Zn298   1.994   .     S
O291   Zn298   2.017   .     S
O292   Zn297   2.017   .     S
O293   Zn297   1.986   .     S
O294   Zn298   1.986   .     S
O295   Zn298   2.011   .     S
O296   Zn297   2.011   .     S
C299   N300    1.158   .     T
C301   N302    1.158   .     T
C303   O305    1.221   .     D
C303   H304    1.085   .     S
C306   O308    1.221   .     D
C306   H307    1.083   .     S
C309   N508    1.157   .     S
C311   N312    1.158   .     T
C313   O315    1.219   .     D
C313   H512    1.085   .     S
C316   O318    1.221   .     D
C316   H317    1.085   .     S
C319   H320    1.086   .     S
O321   C517    1.221   .     S
C322   H323    1.086   .     S
C322   C468    1.493   .     S
C322   O522    1.221   .     S
C325   H326    1.085   .     S
O327   C391    1.219   .     S
C328   H329    1.084   .     S
C328   N354    1.410   .     S
C328   O396    1.219   .     S
C331   O355    1.280   .     A
C331   C335    1.417   .     S
C331   O357    1.299   .     A
C332   O358    1.299   .     A
C332   O356    1.280   .     A
C332   C336    1.418   .     S
C333   C379    1.486   .     S
C333   C350    1.416   .     A
C333   C945    1.399   .     S
C334   C382    1.493   .     S
C334   C349    1.423   .     A
C334   C946    1.409   1_554 S
C335   C534    1.372   .     S
C335   C583    1.493   .     S
C337   O359    1.284   .     A
C337   C342    1.434   .     S
C337   O361    1.296   .     A
C338   C341    1.433   .     S
C338   O360    1.291   .     A
C338   O362    1.290   .     A
C339   C341    1.400   .     A
C339   C365    1.457   .     S
C339   C349    1.409   .     A
C340   C367    1.456   .     S
C340   C342    1.395   .     A
C340   C350    1.403   .     A
C341   C343    1.398   .     A
C342   C344    1.404   .     A
C343   C345    1.405   .     A
C343   C369    1.491   .     S
C344   C372    1.485   .     S
C344   C346    1.414   .     A
C345   C351    1.419   .     A
C345   C347    1.424   .     A
C346   C348    1.421   .     A
C346   C352    1.423   .     A
C347   C349    1.420   .     A
C347   C942    1.402   1_554 S
C348   C350    1.418   .     A
C348   C941    1.402   .     S
C351   C375    1.454   .     S
C351   C927    1.399   1_554 S
C352   C377    1.453   .     S
C352   C928    1.409   .     S
N353   Zn364   2.030   .     S
N353   N222    1.276   1_655 S
N353   C259    1.410   1_655 S
N354   Zn363   2.030   .     S
O355   Zn363   1.994   .     S
O356   Zn364   1.994   .     S
O357   Zn364   2.017   .     S
O358   Zn363   2.017   .     S
O359   Zn363   1.986   .     S
O360   Zn364   1.986   .     S
O361   Zn364   2.011   .     S
O362   Zn363   2.011   .     S
C365   N366    1.158   .     T
C367   N368    1.158   .     T
C369   O371    1.221   .     D
C369   H370    1.085   .     S
C372   O374    1.221   .     D
C372   H373    1.083   .     S
C375   N574    1.157   .     S
C377   N378    1.158   .     T
C379   O381    1.219   .     D
C379   H578    1.085   .     S
C382   O384    1.221   .     D
C382   H383    1.085   .     S
C385   H386    1.086   .     S
O387   C583    1.221   .     S
C388   H389    1.086   .     S
C388   C534    1.493   .     S
C388   O588    1.221   .     S
C391   H392    1.085   .     S
O393   C259    1.219   1_655 S
C394   H395    1.084   .     S
C394   N222    1.410   1_655 S
C394   O264    1.219   1_655 S
C397   O421    1.280   .     A
C397   C401    1.417   .     S
C397   O423    1.299   .     A
C398   O424    1.299   .     A
C398   O422    1.280   .     A
C398   C402    1.418   .     S
C399   C445    1.486   .     S
C399   C416    1.416   .     A
C399   C1011   1.399   .     S
C400   C448    1.493   .     S
C400   C415    1.423   .     A
C400   C1012   1.409   1_554 S
C401   C6      1.372   1_565 S
C401   C55     1.493   1_565 S
C403   O425    1.284   .     A
C403   C408    1.434   .     S
C403   O427    1.296   .     A
C404   C407    1.433   .     S
C404   O426    1.291   .     A
C404   O428    1.290   .     A
C405   C407    1.400   .     A
C405   C431    1.457   .     S
C405   C415    1.409   .     A
C406   C433    1.456   .     S
C406   C408    1.395   .     A
C406   C416    1.403   .     A
C407   C409    1.398   .     A
C408   C410    1.404   .     A
C409   C411    1.405   .     A
C409   C435    1.491   .     S
C410   C438    1.485   .     S
C410   C412    1.414   .     A
C411   C417    1.419   .     A
C411   C413    1.424   .     A
C412   C414    1.421   .     A
C412   C418    1.423   .     A
C413   C415    1.420   .     A
C413   C1008   1.402   1_554 S
C414   C416    1.418   .     A
C414   C1007   1.402   .     S
C417   C441    1.454   .     S
C417   C993    1.399   1_554 S
C418   C443    1.453   .     S
C418   C994    1.409   .     S
N419   Zn430   2.030   .     S
N419   N486    1.276   .     S
N419   C523    1.410   .     S
N420   Zn429   2.030   .     S
N420   N551    1.276   1_455 S
N420   C592    1.410   1_455 S
O421   Zn429   1.994   .     S
O422   Zn430   1.994   .     S
O423   Zn430   2.017   .     S
O424   Zn429   2.017   .     S
O425   Zn429   1.986   .     S
O426   Zn430   1.986   .     S
O427   Zn430   2.011   .     S
O428   Zn429   2.011   .     S
C431   N432    1.158   .     T
C433   N434    1.158   .     T
C435   O437    1.221   .     D
C435   H436    1.085   .     S
C438   O440    1.221   .     D
C438   H439    1.083   .     S
C441   N46     1.157   1_565 S
C443   N444    1.158   .     T
C445   O447    1.219   .     D
C445   H50     1.085   1_565 S
C448   O450    1.221   .     D
C448   H449    1.085   .     S
C451   H452    1.086   .     S
O453   C55     1.221   1_565 S
C454   H455    1.086   .     S
C454   C6      1.493   1_565 S
C454   O60     1.221   1_565 S
C457   H458    1.085   .     S
C457   N551    1.410   1_455 S
C457   O591    1.219   1_455 S
O459   C523    1.219   .     S
C460   H461    1.084   .     S
C460   N486    1.410   .     S
C460   O528    1.219   .     S
O462   C592    1.219   1_455 S
C463   O487    1.280   .     A
C463   C467    1.417   .     S
C463   O489    1.299   .     A
C464   O490    1.299   .     A
C464   O488    1.280   .     A
C464   C468    1.418   .     S
C465   C511    1.486   .     S
C465   C482    1.416   .     A
C465   C1077   1.399   .     S
C466   C514    1.493   .     S
C466   C481    1.423   .     A
C466   C1078   1.409   1_554 S
C467   C72     1.372   1_565 S
C467   C121    1.493   1_565 S
C469   O491    1.284   .     A
C469   C474    1.434   .     S
C469   O493    1.296   .     A
C470   C473    1.433   .     S
C470   O492    1.291   .     A
C470   O494    1.290   .     A
C471   C473    1.400   .     A
C471   C497    1.457   .     S
C471   C481    1.409   .     A
C472   C499    1.456   .     S
C472   C474    1.395   .     A
C472   C482    1.403   .     A
C473   C475    1.398   .     A
C474   C476    1.404   .     A
C475   C477    1.405   .     A
C475   C501    1.491   .     S
C476   C504    1.485   .     S
C476   C478    1.414   .     A
C477   C483    1.419   .     A
C477   C479    1.424   .     A
C478   C480    1.421   .     A
C478   C484    1.423   .     A
C479   C481    1.420   .     A
C479   C1074   1.402   1_554 S
C480   C482    1.418   .     A
C480   C1073   1.402   .     S
C483   C507    1.454   .     S
C483   C1059   1.399   1_554 S
C484   C509    1.453   .     S
C484   C1060   1.409   .     S
N485   Zn496   2.030   .     S
N485   N552    1.276   .     S
N485   C589    1.410   .     S
N486   Zn495   2.030   .     S
O487   Zn495   1.994   .     S
O488   Zn496   1.994   .     S
O489   Zn496   2.017   .     S
O490   Zn495   2.017   .     S
O491   Zn495   1.986   .     S
O492   Zn496   1.986   .     S
O493   Zn496   2.011   .     S
O494   Zn495   2.011   .     S
C497   N498    1.158   .     T
C499   N500    1.158   .     T
C501   O503    1.221   .     D
C501   H502    1.085   .     S
C504   O506    1.221   .     D
C504   H505    1.083   .     S
C507   N112    1.157   1_565 S
C509   N510    1.158   .     T
C511   O513    1.219   .     D
C511   H116    1.085   1_565 S
C514   O516    1.221   .     D
C514   H515    1.085   .     S
C517   H518    1.086   .     S
O519   C121    1.221   1_565 S
C520   H521    1.086   .     S
C520   C72     1.493   1_565 S
C520   O126    1.221   1_565 S
C523   H524    1.085   .     S
O525   C589    1.219   .     S
C526   H527    1.084   .     S
C526   N552    1.410   .     S
C526   O594    1.219   .     S
C529   O553    1.280   .     A
C529   C533    1.417   .     S
C529   O555    1.299   .     A
C530   O556    1.299   .     A
C530   O554    1.280   .     A
C530   C534    1.418   .     S
C531   C577    1.486   .     S
C531   C548    1.416   .     A
C531   C1143   1.399   .     S
C532   C580    1.493   .     S
C532   C547    1.423   .     A
C532   C1144   1.409   1_554 S
C533   C138    1.372   1_565 S
C533   C187    1.493   1_565 S
C535   O557    1.284   .     A
C535   C540    1.434   .     S
C535   O559    1.296   .     A
C536   C539    1.433   .     S
C536   O558    1.291   .     A
C536   O560    1.290   .     A
C537   C539    1.400   .     A
C537   C563    1.457   .     S
C537   C547    1.409   .     A
C538   C565    1.456   .     S
C538   C540    1.395   .     A
C538   C548    1.403   .     A
C539   C541    1.398   .     A
C540   C542    1.404   .     A
C541   C543    1.405   .     A
C541   C567    1.491   .     S
C542   C570    1.485   .     S
C542   C544    1.414   .     A
C543   C549    1.419   .     A
C543   C545    1.424   .     A
C544   C546    1.421   .     A
C544   C550    1.423   .     A
C545   C547    1.420   .     A
C545   C1140   1.402   1_554 S
C546   C548    1.418   .     A
C546   C1139   1.402   .     S
C549   C573    1.454   .     S
C549   C1125   1.399   1_554 S
C550   C575    1.453   .     S
C550   C1126   1.409   .     S
N551   Zn562   2.030   .     S
N551   N420    1.276   1_655 S
N551   C457    1.410   1_655 S
N552   Zn561   2.030   .     S
O553   Zn561   1.994   .     S
O554   Zn562   1.994   .     S
O555   Zn562   2.017   .     S
O556   Zn561   2.017   .     S
O557   Zn561   1.986   .     S
O558   Zn562   1.986   .     S
O559   Zn562   2.011   .     S
O560   Zn561   2.011   .     S
C563   N564    1.158   .     T
C565   N566    1.158   .     T
C567   O569    1.221   .     D
C567   H568    1.085   .     S
C570   O572    1.221   .     D
C570   H571    1.083   .     S
C573   N178    1.157   1_565 S
C575   N576    1.158   .     T
C577   O579    1.219   .     D
C577   H182    1.085   1_565 S
C580   O582    1.221   .     D
C580   H581    1.085   .     S
C583   H584    1.086   .     S
O585   C187    1.221   1_565 S
C586   H587    1.086   .     S
C586   C138    1.493   1_565 S
C586   O192    1.221   1_565 S
C589   H590    1.085   .     S
O591   C457    1.219   1_655 S
C592   H593    1.084   .     S
C592   N420    1.410   1_655 S
C592   O462    1.219   1_655 S
C595   O619    1.280   .     A
C595   C599    1.417   .     S
C595   O621    1.299   .     A
C596   O622    1.299   .     A
C596   O620    1.280   .     A
C596   C600    1.418   .     S
C597   C643    1.486   .     S
C597   C614    1.416   .     A
C597   C21     1.399   1_556 S
C598   C646    1.493   .     S
C598   C613    1.423   .     A
C599   C798    1.372   .     S
C599   C847    1.493   .     S
C600   C995    1.372   1_545 S
C600   C1048   1.493   1_545 S
C601   O623    1.284   .     A
C601   C606    1.434   .     S
C601   O625    1.296   .     A
C602   C605    1.433   .     S
C602   O624    1.291   .     A
C602   O626    1.290   .     A
C603   C605    1.400   .     A
C603   C629    1.457   .     S
C603   C613    1.409   .     A
C604   C631    1.456   .     S
C604   C606    1.395   .     A
C604   C614    1.403   .     A
C605   C607    1.398   .     A
C606   C608    1.404   .     A
C607   C609    1.405   .     A
C607   C633    1.491   .     S
C608   C636    1.485   .     S
C608   C610    1.414   .     A
C609   C615    1.419   .     A
C609   C611    1.424   .     A
C610   C612    1.421   .     A
C610   C616    1.423   .     A
C611   C613    1.420   .     A
C612   C614    1.418   .     A
C612   C17     1.402   1_556 S
C615   C639    1.454   .     S
C616   C641    1.453   .     S
C616   C4      1.409   1_556 S
N617   Zn628   2.030   .     S
N617   N684    1.276   .     S
N617   C721    1.410   .     S
N618   Zn627   2.030   .     S
N618   N749    1.276   1_455 S
N618   C790    1.410   1_455 S
O619   Zn627   1.994   .     S
O620   Zn628   1.994   .     S
O621   Zn628   2.017   .     S
O622   Zn627   2.017   .     S
O623   Zn627   1.986   .     S
O624   Zn628   1.986   .     S
O625   Zn628   2.011   .     S
O626   Zn627   2.011   .     S
C629   N630    1.158   .     T
C631   N632    1.158   .     T
C633   O635    1.221   .     D
C633   H634    1.085   .     S
C636   O638    1.221   .     D
C636   H637    1.083   .     S
C639   N838    1.157   .     S
N640   C1035   1.157   1_545 S
C641   N642    1.158   .     T
C643   O645    1.219   .     D
C643   H842    1.085   .     S
H644   C1039   1.085   1_545 S
C646   O648    1.221   .     D
C646   H647    1.085   .     S
C649   H650    1.086   .     S
C649   C995    1.493   1_545 S
C649   O1047   1.221   1_545 S
O651   C847    1.221   .     S
C652   H653    1.086   .     S
C652   C798    1.493   .     S
C652   O852    1.221   .     S
O654   C1048   1.221   1_545 S
C655   H656    1.085   .     S
C655   N749    1.410   1_455 S
C655   O789    1.219   1_455 S
O657   C721    1.219   .     S
C658   H659    1.084   .     S
C658   N684    1.410   .     S
C658   O726    1.219   .     S
O660   C790    1.219   1_455 S
C661   O685    1.280   .     A
C661   C665    1.417   .     S
C661   O687    1.299   .     A
C662   O688    1.299   .     A
C662   O686    1.280   .     A
C662   C666    1.418   .     S
C663   C709    1.486   .     S
C663   C680    1.416   .     A
C663   C87     1.399   1_556 S
C664   C712    1.493   .     S
C664   C679    1.423   .     A
C665   C864    1.372   .     S
C665   C913    1.493   .     S
C666   C1061   1.372   1_545 S
C666   C1114   1.493   1_545 S
C667   O689    1.284   .     A
C667   C672    1.434   .     S
C667   O691    1.296   .     A
C668   C671    1.433   .     S
C668   O690    1.291   .     A
C668   O692    1.290   .     A
C669   C671    1.400   .     A
C669   C695    1.457   .     S
C669   C679    1.409   .     A
C670   C697    1.456   .     S
C670   C672    1.395   .     A
C670   C680    1.403   .     A
C671   C673    1.398   .     A
C672   C674    1.404   .     A
C673   C675    1.405   .     A
C673   C699    1.491   .     S
C674   C702    1.485   .     S
C674   C676    1.414   .     A
C675   C681    1.419   .     A
C675   C677    1.424   .     A
C676   C678    1.421   .     A
C676   C682    1.423   .     A
C677   C679    1.420   .     A
C678   C680    1.418   .     A
C678   C83     1.402   1_556 S
C681   C705    1.454   .     S
C682   C707    1.453   .     S
C682   C70     1.409   1_556 S
N683   Zn694   2.030   .     S
N683   N750    1.276   .     S
N683   C787    1.410   .     S
N684   Zn693   2.030   .     S
O685   Zn693   1.994   .     S
O686   Zn694   1.994   .     S
O687   Zn694   2.017   .     S
O688   Zn693   2.017   .     S
O689   Zn693   1.986   .     S
O690   Zn694   1.986   .     S
O691   Zn694   2.011   .     S
O692   Zn693   2.011   .     S
C695   N696    1.158   .     T
C697   N698    1.158   .     T
C699   O701    1.221   .     D
C699   H700    1.085   .     S
C702   O704    1.221   .     D
C702   H703    1.083   .     S
C705   N904    1.157   .     S
N706   C1101   1.157   1_545 S
C707   N708    1.158   .     T
C709   O711    1.219   .     D
C709   H908    1.085   .     S
H710   C1105   1.085   1_545 S
C712   O714    1.221   .     D
C712   H713    1.085   .     S
C715   H716    1.086   .     S
C715   C1061   1.493   1_545 S
C715   O1113   1.221   1_545 S
O717   C913    1.221   .     S
C718   H719    1.086   .     S
C718   C864    1.493   .     S
C718   O918    1.221   .     S
O720   C1114   1.221   1_545 S
C721   H722    1.085   .     S
O723   C787    1.219   .     S
C724   H725    1.084   .     S
C724   N750    1.410   .     S
C724   O792    1.219   .     S
C727   O751    1.280   .     A
C727   C731    1.417   .     S
C727   O753    1.299   .     A
C728   O754    1.299   .     A
C728   O752    1.280   .     A
C728   C732    1.418   .     S
C729   C775    1.486   .     S
C729   C746    1.416   .     A
C729   C153    1.399   1_556 S
C730   C778    1.493   .     S
C730   C745    1.423   .     A
C731   C930    1.372   .     S
C731   C979    1.493   .     S
C732   C1127   1.372   1_545 S
C732   C1180   1.493   1_545 S
C733   O755    1.284   .     A
C733   C738    1.434   .     S
C733   O757    1.296   .     A
C734   C737    1.433   .     S
C734   O756    1.291   .     A
C734   O758    1.290   .     A
C735   C737    1.400   .     A
C735   C761    1.457   .     S
C735   C745    1.409   .     A
C736   C763    1.456   .     S
C736   C738    1.395   .     A
C736   C746    1.403   .     A
C737   C739    1.398   .     A
C738   C740    1.404   .     A
C739   C741    1.405   .     A
C739   C765    1.491   .     S
C740   C768    1.485   .     S
C740   C742    1.414   .     A
C741   C747    1.419   .     A
C741   C743    1.424   .     A
C742   C744    1.421   .     A
C742   C748    1.423   .     A
C743   C745    1.420   .     A
C744   C746    1.418   .     A
C744   C149    1.402   1_556 S
C747   C771    1.454   .     S
C748   C773    1.453   .     S
C748   C136    1.409   1_556 S
N749   Zn760   2.030   .     S
N749   N618    1.276   1_655 S
N749   C655    1.410   1_655 S
N750   Zn759   2.030   .     S
O751   Zn759   1.994   .     S
O752   Zn760   1.994   .     S
O753   Zn760   2.017   .     S
O754   Zn759   2.017   .     S
O755   Zn759   1.986   .     S
O756   Zn760   1.986   .     S
O757   Zn760   2.011   .     S
O758   Zn759   2.011   .     S
C761   N762    1.158   .     T
C763   N764    1.158   .     T
C765   O767    1.221   .     D
C765   H766    1.085   .     S
C768   O770    1.221   .     D
C768   H769    1.083   .     S
C771   N970    1.157   .     S
N772   C1167   1.157   1_545 S
C773   N774    1.158   .     T
C775   O777    1.219   .     D
C775   H974    1.085   .     S
H776   C1171   1.085   1_545 S
C778   O780    1.221   .     D
C778   H779    1.085   .     S
C781   H782    1.086   .     S
C781   C1127   1.493   1_545 S
C781   O1179   1.221   1_545 S
O783   C979    1.221   .     S
C784   H785    1.086   .     S
C784   C930    1.493   .     S
C784   O984    1.221   .     S
O786   C1180   1.221   1_545 S
C787   H788    1.085   .     S
O789   C655    1.219   1_655 S
C790   H791    1.084   .     S
C790   N618    1.410   1_655 S
C790   O660    1.219   1_655 S
C793   O817    1.280   .     A
C793   C797    1.417   .     S
C793   O819    1.299   .     A
C794   O820    1.299   .     A
C794   O818    1.280   .     A
C794   C798    1.418   .     S
C795   C841    1.486   .     S
C795   C812    1.416   .     A
C795   C219    1.399   1_556 S
C796   C844    1.493   .     S
C796   C811    1.423   .     A
C797   C996    1.372   .     S
C797   C1045   1.493   .     S
C799   O821    1.284   .     A
C799   C804    1.434   .     S
C799   O823    1.296   .     A
C800   C803    1.433   .     S
C800   O822    1.291   .     A
C800   O824    1.290   .     A
C801   C803    1.400   .     A
C801   C827    1.457   .     S
C801   C811    1.409   .     A
C802   C829    1.456   .     S
C802   C804    1.395   .     A
C802   C812    1.403   .     A
C803   C805    1.398   .     A
C804   C806    1.404   .     A
C805   C807    1.405   .     A
C805   C831    1.491   .     S
C806   C834    1.485   .     S
C806   C808    1.414   .     A
C807   C813    1.419   .     A
C807   C809    1.424   .     A
C808   C810    1.421   .     A
C808   C814    1.423   .     A
C809   C811    1.420   .     A
C810   C812    1.418   .     A
C810   C215    1.402   1_556 S
C813   C837    1.454   .     S
C814   C839    1.453   .     S
C814   C202    1.409   1_556 S
N815   Zn826   2.030   .     S
N815   N882    1.276   .     S
N815   C919    1.410   .     S
N816   Zn825   2.030   .     S
N816   N947    1.276   1_455 S
N816   C988    1.410   1_455 S
O817   Zn825   1.994   .     S
O818   Zn826   1.994   .     S
O819   Zn826   2.017   .     S
O820   Zn825   2.017   .     S
O821   Zn825   1.986   .     S
O822   Zn826   1.986   .     S
O823   Zn826   2.011   .     S
O824   Zn825   2.011   .     S
C827   N828    1.158   .     T
C829   N830    1.158   .     T
C831   O833    1.221   .     D
C831   H832    1.085   .     S
C834   O836    1.221   .     D
C834   H835    1.083   .     S
C837   N1036   1.157   .     S
C839   N840    1.158   .     T
C841   O843    1.219   .     D
C841   H1040   1.085   .     S
C844   O846    1.221   .     D
C844   H845    1.085   .     S
C847   H848    1.086   .     S
O849   C1045   1.221   .     S
C850   H851    1.086   .     S
C850   C996    1.493   .     S
C850   O1050   1.221   .     S
C853   H854    1.085   .     S
C853   N947    1.410   1_455 S
C853   O987    1.219   1_455 S
O855   C919    1.219   .     S
C856   H857    1.084   .     S
C856   N882    1.410   .     S
C856   O924    1.219   .     S
O858   C988    1.219   1_455 S
C859   O883    1.280   .     A
C859   C863    1.417   .     S
C859   O885    1.299   .     A
C860   O886    1.299   .     A
C860   O884    1.280   .     A
C860   C864    1.418   .     S
C861   C907    1.486   .     S
C861   C878    1.416   .     A
C861   C285    1.399   1_556 S
C862   C910    1.493   .     S
C862   C877    1.423   .     A
C863   C1062   1.372   .     S
C863   C1111   1.493   .     S
C865   O887    1.284   .     A
C865   C870    1.434   .     S
C865   O889    1.296   .     A
C866   C869    1.433   .     S
C866   O888    1.291   .     A
C866   O890    1.290   .     A
C867   C869    1.400   .     A
C867   C893    1.457   .     S
C867   C877    1.409   .     A
C868   C895    1.456   .     S
C868   C870    1.395   .     A
C868   C878    1.403   .     A
C869   C871    1.398   .     A
C870   C872    1.404   .     A
C871   C873    1.405   .     A
C871   C897    1.491   .     S
C872   C900    1.485   .     S
C872   C874    1.414   .     A
C873   C879    1.419   .     A
C873   C875    1.424   .     A
C874   C876    1.421   .     A
C874   C880    1.423   .     A
C875   C877    1.420   .     A
C876   C878    1.418   .     A
C876   C281    1.402   1_556 S
C879   C903    1.454   .     S
C880   C905    1.453   .     S
C880   C268    1.409   1_556 S
N881   Zn892   2.030   .     S
N881   N948    1.276   .     S
N881   C985    1.410   .     S
N882   Zn891   2.030   .     S
O883   Zn891   1.994   .     S
O884   Zn892   1.994   .     S
O885   Zn892   2.017   .     S
O886   Zn891   2.017   .     S
O887   Zn891   1.986   .     S
O888   Zn892   1.986   .     S
O889   Zn892   2.011   .     S
O890   Zn891   2.011   .     S
C893   N894    1.158   .     T
C895   N896    1.158   .     T
C897   O899    1.221   .     D
C897   H898    1.085   .     S
C900   O902    1.221   .     D
C900   H901    1.083   .     S
C903   N1102   1.157   .     S
C905   N906    1.158   .     T
C907   O909    1.219   .     D
C907   H1106   1.085   .     S
C910   O912    1.221   .     D
C910   H911    1.085   .     S
C913   H914    1.086   .     S
O915   C1111   1.221   .     S
C916   H917    1.086   .     S
C916   C1062   1.493   .     S
C916   O1116   1.221   .     S
C919   H920    1.085   .     S
O921   C985    1.219   .     S
C922   H923    1.084   .     S
C922   N948    1.410   .     S
C922   O990    1.219   .     S
C925   O949    1.280   .     A
C925   C929    1.417   .     S
C925   O951    1.299   .     A
C926   O952    1.299   .     A
C926   O950    1.280   .     A
C926   C930    1.418   .     S
C927   C973    1.486   .     S
C927   C944    1.416   .     A
C927   C351    1.399   1_556 S
C928   C976    1.493   .     S
C928   C943    1.423   .     A
C929   C1128   1.372   .     S
C929   C1177   1.493   .     S
C931   O953    1.284   .     A
C931   C936    1.434   .     S
C931   O955    1.296   .     A
C932   C935    1.433   .     S
C932   O954    1.291   .     A
C932   O956    1.290   .     A
C933   C935    1.400   .     A
C933   C959    1.457   .     S
C933   C943    1.409   .     A
C934   C961    1.456   .     S
C934   C936    1.395   .     A
C934   C944    1.403   .     A
C935   C937    1.398   .     A
C936   C938    1.404   .     A
C937   C939    1.405   .     A
C937   C963    1.491   .     S
C938   C966    1.485   .     S
C938   C940    1.414   .     A
C939   C945    1.419   .     A
C939   C941    1.424   .     A
C940   C942    1.421   .     A
C940   C946    1.423   .     A
C941   C943    1.420   .     A
C942   C944    1.418   .     A
C942   C347    1.402   1_556 S
C945   C969    1.454   .     S
C946   C971    1.453   .     S
C946   C334    1.409   1_556 S
N947   Zn958   2.030   .     S
N947   N816    1.276   1_655 S
N947   C853    1.410   1_655 S
N948   Zn957   2.030   .     S
O949   Zn957   1.994   .     S
O950   Zn958   1.994   .     S
O951   Zn958   2.017   .     S
O952   Zn957   2.017   .     S
O953   Zn957   1.986   .     S
O954   Zn958   1.986   .     S
O955   Zn958   2.011   .     S
O956   Zn957   2.011   .     S
C959   N960    1.158   .     T
C961   N962    1.158   .     T
C963   O965    1.221   .     D
C963   H964    1.085   .     S
C966   O968    1.221   .     D
C966   H967    1.083   .     S
C969   N1168   1.157   .     S
C971   N972    1.158   .     T
C973   O975    1.219   .     D
C973   H1172   1.085   .     S
C976   O978    1.221   .     D
C976   H977    1.085   .     S
C979   H980    1.086   .     S
O981   C1177   1.221   .     S
C982   H983    1.086   .     S
C982   C1128   1.493   .     S
C982   O1182   1.221   .     S
C985   H986    1.085   .     S
O987   C853    1.219   1_655 S
C988   H989    1.084   .     S
C988   N816    1.410   1_655 S
C988   O858    1.219   1_655 S
C991   O1015   1.280   .     A
C991   C995    1.417   .     S
C991   O1017   1.299   .     A
C992   O1018   1.299   .     A
C992   O1016   1.280   .     A
C992   C996    1.418   .     S
C993   C1039   1.486   .     S
C993   C1010   1.416   .     A
C993   C417    1.399   1_556 S
C994   C1042   1.493   .     S
C994   C1009   1.423   .     A
C995   C600    1.372   1_565 S
C995   C649    1.493   1_565 S
C997   O1019   1.284   .     A
C997   C1002   1.434   .     S
C997   O1021   1.296   .     A
C998   C1001   1.433   .     S
C998   O1020   1.291   .     A
C998   O1022   1.290   .     A
C999   C1001   1.400   .     A
C999   C1025   1.457   .     S
C999   C1009   1.409   .     A
C1000  C1027   1.456   .     S
C1000  C1002   1.395   .     A
C1000  C1010   1.403   .     A
C1001  C1003   1.398   .     A
C1002  C1004   1.404   .     A
C1003  C1005   1.405   .     A
C1003  C1029   1.491   .     S
C1004  C1032   1.485   .     S
C1004  C1006   1.414   .     A
C1005  C1011   1.419   .     A
C1005  C1007   1.424   .     A
C1006  C1008   1.421   .     A
C1006  C1012   1.423   .     A
C1007  C1009   1.420   .     A
C1008  C1010   1.418   .     A
C1008  C413    1.402   1_556 S
C1011  C1035   1.454   .     S
C1012  C1037   1.453   .     S
C1012  C400    1.409   1_556 S
N1013  Zn1024  2.030   .     S
N1013  N1080   1.276   .     S
N1013  C1117   1.410   .     S
N1014  Zn1023  2.030   .     S
N1014  N1145   1.276   1_455 S
N1014  C1186   1.410   1_455 S
O1015  Zn1023  1.994   .     S
O1016  Zn1024  1.994   .     S
O1017  Zn1024  2.017   .     S
O1018  Zn1023  2.017   .     S
O1019  Zn1023  1.986   .     S
O1020  Zn1024  1.986   .     S
O1021  Zn1024  2.011   .     S
O1022  Zn1023  2.011   .     S
C1025  N1026   1.158   .     T
C1027  N1028   1.158   .     T
C1029  O1031   1.221   .     D
C1029  H1030   1.085   .     S
C1032  O1034   1.221   .     D
C1032  H1033   1.083   .     S
C1035  N640    1.157   1_565 S
C1037  N1038   1.158   .     T
C1039  O1041   1.219   .     D
C1039  H644    1.085   1_565 S
C1042  O1044   1.221   .     D
C1042  H1043   1.085   .     S
C1045  H1046   1.086   .     S
O1047  C649    1.221   1_565 S
C1048  H1049   1.086   .     S
C1048  C600    1.493   1_565 S
C1048  O654    1.221   1_565 S
C1051  H1052   1.085   .     S
C1051  N1145   1.410   1_455 S
C1051  O1185   1.219   1_455 S
O1053  C1117   1.219   .     S
C1054  H1055   1.084   .     S
C1054  N1080   1.410   .     S
C1054  O1122   1.219   .     S
O1056  C1186   1.219   1_455 S
C1057  O1081   1.280   .     A
C1057  C1061   1.417   .     S
C1057  O1083   1.299   .     A
C1058  O1084   1.299   .     A
C1058  O1082   1.280   .     A
C1058  C1062   1.418   .     S
C1059  C1105   1.486   .     S
C1059  C1076   1.416   .     A
C1059  C483    1.399   1_556 S
C1060  C1108   1.493   .     S
C1060  C1075   1.423   .     A
C1061  C666    1.372   1_565 S
C1061  C715    1.493   1_565 S
C1063  O1085   1.284   .     A
C1063  C1068   1.434   .     S
C1063  O1087   1.296   .     A
C1064  C1067   1.433   .     S
C1064  O1086   1.291   .     A
C1064  O1088   1.290   .     A
C1065  C1067   1.400   .     A
C1065  C1091   1.457   .     S
C1065  C1075   1.409   .     A
C1066  C1093   1.456   .     S
C1066  C1068   1.395   .     A
C1066  C1076   1.403   .     A
C1067  C1069   1.398   .     A
C1068  C1070   1.404   .     A
C1069  C1071   1.405   .     A
C1069  C1095   1.491   .     S
C1070  C1098   1.485   .     S
C1070  C1072   1.414   .     A
C1071  C1077   1.419   .     A
C1071  C1073   1.424   .     A
C1072  C1074   1.421   .     A
C1072  C1078   1.423   .     A
C1073  C1075   1.420   .     A
C1074  C1076   1.418   .     A
C1074  C479    1.402   1_556 S
C1077  C1101   1.454   .     S
C1078  C1103   1.453   .     S
C1078  C466    1.409   1_556 S
N1079  Zn1090  2.030   .     S
N1079  N1146   1.276   .     S
N1079  C1183   1.410   .     S
N1080  Zn1089  2.030   .     S
O1081  Zn1089  1.994   .     S
O1082  Zn1090  1.994   .     S
O1083  Zn1090  2.017   .     S
O1084  Zn1089  2.017   .     S
O1085  Zn1089  1.986   .     S
O1086  Zn1090  1.986   .     S
O1087  Zn1090  2.011   .     S
O1088  Zn1089  2.011   .     S
C1091  N1092   1.158   .     T
C1093  N1094   1.158   .     T
C1095  O1097   1.221   .     D
C1095  H1096   1.085   .     S
C1098  O1100   1.221   .     D
C1098  H1099   1.083   .     S
C1101  N706    1.157   1_565 S
C1103  N1104   1.158   .     T
C1105  O1107   1.219   .     D
C1105  H710    1.085   1_565 S
C1108  O1110   1.221   .     D
C1108  H1109   1.085   .     S
C1111  H1112   1.086   .     S
O1113  C715    1.221   1_565 S
C1114  H1115   1.086   .     S
C1114  C666    1.493   1_565 S
C1114  O720    1.221   1_565 S
C1117  H1118   1.085   .     S
O1119  C1183   1.219   .     S
C1120  H1121   1.084   .     S
C1120  N1146   1.410   .     S
C1120  O1188   1.219   .     S
C1123  O1147   1.280   .     A
C1123  C1127   1.417   .     S
C1123  O1149   1.299   .     A
C1124  O1150   1.299   .     A
C1124  O1148   1.280   .     A
C1124  C1128   1.418   .     S
C1125  C1171   1.486   .     S
C1125  C1142   1.416   .     A
C1125  C549    1.399   1_556 S
C1126  C1174   1.493   .     S
C1126  C1141   1.423   .     A
C1127  C732    1.372   1_565 S
C1127  C781    1.493   1_565 S
C1129  O1151   1.284   .     A
C1129  C1134   1.434   .     S
C1129  O1153   1.296   .     A
C1130  C1133   1.433   .     S
C1130  O1152   1.291   .     A
C1130  O1154   1.290   .     A
C1131  C1133   1.400   .     A
C1131  C1157   1.457   .     S
C1131  C1141   1.409   .     A
C1132  C1159   1.456   .     S
C1132  C1134   1.395   .     A
C1132  C1142   1.403   .     A
C1133  C1135   1.398   .     A
C1134  C1136   1.404   .     A
C1135  C1137   1.405   .     A
C1135  C1161   1.491   .     S
C1136  C1164   1.485   .     S
C1136  C1138   1.414   .     A
C1137  C1143   1.419   .     A
C1137  C1139   1.424   .     A
C1138  C1140   1.421   .     A
C1138  C1144   1.423   .     A
C1139  C1141   1.420   .     A
C1140  C1142   1.418   .     A
C1140  C545    1.402   1_556 S
C1143  C1167   1.454   .     S
C1144  C1169   1.453   .     S
C1144  C532    1.409   1_556 S
N1145  Zn1156  2.030   .     S
N1145  N1014   1.276   1_655 S
N1145  C1051   1.410   1_655 S
N1146  Zn1155  2.030   .     S
O1147  Zn1155  1.994   .     S
O1148  Zn1156  1.994   .     S
O1149  Zn1156  2.017   .     S
O1150  Zn1155  2.017   .     S
O1151  Zn1155  1.986   .     S
O1152  Zn1156  1.986   .     S
O1153  Zn1156  2.011   .     S
O1154  Zn1155  2.011   .     S
C1157  N1158   1.158   .     T
C1159  N1160   1.158   .     T
C1161  O1163   1.221   .     D
C1161  H1162   1.085   .     S
C1164  O1166   1.221   .     D
C1164  H1165   1.083   .     S
C1167  N772    1.157   1_565 S
C1169  N1170   1.158   .     T
C1171  O1173   1.219   .     D
C1171  H776    1.085   1_565 S
C1174  O1176   1.221   .     D
C1174  H1175   1.085   .     S
C1177  H1178   1.086   .     S
O1179  C781    1.221   1_565 S
C1180  H1181   1.086   .     S
C1180  C732    1.493   1_565 S
C1180  O786    1.221   1_565 S
C1183  H1184   1.085   .     S
O1185  C1051   1.219   1_655 S
C1186  H1187   1.084   .     S
C1186  N1014   1.410   1_655 S
C1186  O1056   1.219   1_655 S
