data_str_m3_o1_o16_pcu_sym.135
_audit_creation_date              2020-01-03
_audit_creation_method            'Materials Studio'
_symmetry_space_group_name_H-M    'P1'
_symmetry_Int_Tables_number       1
_symmetry_cell_setting            triclinic
loop_
_symmetry_equiv_pos_as_xyz
  x,y,z
_cell_length_a                    29.7200
_cell_length_b                    31.9754
_cell_length_c                    26.3964
_cell_angle_alpha                 91.3199
_cell_angle_beta                  71.7906
_cell_angle_gamma                 90.1940
loop_
_atom_site_label
_atom_site_type_symbol
_atom_site_fract_x
_atom_site_fract_y
_atom_site_fract_z
_atom_site_U_iso_or_equiv
_atom_site_adp_type
_atom_site_occupancy
C1     C     0.16708   0.24658   0.24849   0.00000  Uiso   1.00
C2     C     0.14867   0.15353   0.48968   0.00000  Uiso   1.00
C3     C     0.15889   0.14592   0.43468   0.00000  Uiso   1.00
C4     C     0.18374   0.14463   0.01336   0.00000  Uiso   1.00
C5     C     0.23105   0.13693   0.48186   0.00000  Uiso   1.00
C6     C     0.23981   0.12512   0.42822   0.00000  Uiso   1.00
C7     C     0.20253   0.12601   0.40661   0.00000  Uiso   1.00
C8     C     0.17262   0.14303   0.06804   0.00000  Uiso   1.00
C9     C     0.25517   0.15049   0.06044   0.00000  Uiso   1.00
C10    C     0.12650   0.16055   0.40922   0.00000  Uiso   1.00
C11    C     0.19013   0.31251   0.27830   0.00000  Uiso   1.00
C12    C     0.14104   0.16408   0.35142   0.00000  Uiso   1.00
C13    C     0.19017   0.02201   0.27894   0.00000  Uiso   1.00
C14    C     0.16676   0.04274   0.24874   0.00000  Uiso   1.00
C15    C     0.14399   0.02146   0.21710   0.00000  Uiso   1.00
C16    C     0.14458   0.31176   0.21539   0.00000  Uiso   1.00
C17    C     0.16737   0.29081   0.24688   0.00000  Uiso   1.00
C18    C     0.31755   0.13797   0.22017   0.00000  Uiso   1.00
C19    C     0.03158   0.13736   0.22134   0.00000  Uiso   1.00
C20    C     0.01534   0.19451   0.28163   0.00000  Uiso   1.00
C21    C     0.30066   0.19410   0.28221   0.00000  Uiso   1.00
C22    C     0.16666   0.08679   0.24969   0.00000  Uiso   1.00
C23    C     0.19248   0.16307   0.14858   0.00000  Uiso   1.00
C24    C     0.26705   0.13991   0.00604   0.00000  Uiso   1.00
C25    C     0.20734   0.15281   0.09163   0.00000  Uiso   1.00
C26    C     0.08339   0.17901   0.43931   0.00000  Uiso   1.00
C27    C     0.07366   0.18641   0.49368   0.00000  Uiso   1.00
C28    C     0.10604   0.17414   0.01872   0.00000  Uiso   1.00
H29    H     0.20752   0.03891   0.30365   0.00000  Uiso   1.00
H30    H     0.12681   0.03829   0.19300   0.00000  Uiso   1.00
H31    H     0.30398   0.13563   0.48324   0.00000  Uiso   1.00
H32    H     0.09884   0.18313   0.06028   0.00000  Uiso   1.00
H33    H     0.20917   0.11259   0.36701   0.00000  Uiso   1.00
N34    N     0.04760   0.16668   0.25001   0.00000  Uiso   1.00
N35    N     0.28573   0.16665   0.25000   0.00000  Uiso   1.00
O36    O     0.12846   0.22775   0.25000   0.00000  Uiso   1.00
O37    O     0.20490   0.22774   0.25000   0.00000  Uiso   1.00
O38    O     0.10947   0.16666   0.32681   0.00000  Uiso   1.00
O39    O     0.18591   0.16665   0.32681   0.00000  Uiso   1.00
O40    O     0.12843   0.10559   0.24999   0.00000  Uiso   1.00
O41    O     0.20488   0.10558   0.24999   0.00000  Uiso   1.00
O42    O     0.14742   0.16668   0.17319   0.00000  Uiso   1.00
O43    O     0.22387   0.16667   0.17319   0.00000  Uiso   1.00
Zn44   Zn    0.11562   0.16667   0.25000   0.00000  Uiso   1.00
Zn45   Zn    0.21771   0.16666   0.25000   0.00000  Uiso   1.00
H46    H     0.28293   0.15473   0.07854   0.00000  Uiso   1.00
Br47   Br    0.11639   0.28389   0.16742   0.00000  Uiso   1.00
H48    H     0.30614   0.11479   0.19634   0.00000  Uiso   1.00
H49    H     0.05489   0.11260   0.20057   0.00000  Uiso   1.00
Br50   Br    0.03398   0.23274   0.32858   0.00000  Uiso   1.00
Br51   Br    0.25627   0.23062   0.33175   0.00000  Uiso   1.00
Br52   Br    0.30086   0.10627   0.38335   0.00000  Uiso   1.00
Br53   Br    0.11976   0.10794   0.10335   0.00000  Uiso   1.00
H54    H     0.05899   0.19088   0.42000   0.00000  Uiso   1.00
Br55   Br    0.01963   0.21910   0.03222   0.00000  Uiso   1.00
H56    H     0.20701   0.29647   0.30308   0.00000  Uiso   1.00
C57    C     0.50041   0.24658   0.24849   0.00000  Uiso   1.00
C58    C     0.48200   0.15353   0.48968   0.00000  Uiso   1.00
C59    C     0.49222   0.14592   0.43468   0.00000  Uiso   1.00
C60    C     0.51707   0.14463   0.01336   0.00000  Uiso   1.00
C61    C     0.56438   0.13693   0.48186   0.00000  Uiso   1.00
C62    C     0.57314   0.12512   0.42822   0.00000  Uiso   1.00
C63    C     0.53586   0.12601   0.40661   0.00000  Uiso   1.00
C64    C     0.50595   0.14303   0.06804   0.00000  Uiso   1.00
C65    C     0.58851   0.15049   0.06044   0.00000  Uiso   1.00
C66    C     0.45984   0.16055   0.40922   0.00000  Uiso   1.00
C67    C     0.52346   0.31251   0.27830   0.00000  Uiso   1.00
C68    C     0.47437   0.16408   0.35142   0.00000  Uiso   1.00
C69    C     0.52350   0.02201   0.27894   0.00000  Uiso   1.00
C70    C     0.50009   0.04274   0.24874   0.00000  Uiso   1.00
C71    C     0.47732   0.02146   0.21710   0.00000  Uiso   1.00
C72    C     0.47791   0.31176   0.21539   0.00000  Uiso   1.00
C73    C     0.50070   0.29081   0.24688   0.00000  Uiso   1.00
C74    C     0.65088   0.13797   0.22017   0.00000  Uiso   1.00
C75    C     0.36491   0.13736   0.22134   0.00000  Uiso   1.00
C76    C     0.34868   0.19451   0.28163   0.00000  Uiso   1.00
C77    C     0.63400   0.19410   0.28221   0.00000  Uiso   1.00
C78    C     0.49999   0.08679   0.24969   0.00000  Uiso   1.00
C79    C     0.52582   0.16307   0.14858   0.00000  Uiso   1.00
C80    C     0.60038   0.13991   0.00604   0.00000  Uiso   1.00
C81    C     0.54068   0.15281   0.09163   0.00000  Uiso   1.00
C82    C     0.41673   0.17901   0.43931   0.00000  Uiso   1.00
C83    C     0.40699   0.18641   0.49368   0.00000  Uiso   1.00
C84    C     0.43937   0.17414   0.01872   0.00000  Uiso   1.00
H85    H     0.54086   0.03891   0.30365   0.00000  Uiso   1.00
H86    H     0.46014   0.03829   0.19300   0.00000  Uiso   1.00
H87    H     0.63731   0.13563   0.48324   0.00000  Uiso   1.00
H88    H     0.43217   0.18313   0.06028   0.00000  Uiso   1.00
H89    H     0.54251   0.11259   0.36701   0.00000  Uiso   1.00
N90    N     0.38093   0.16668   0.25001   0.00000  Uiso   1.00
N91    N     0.61906   0.16665   0.25000   0.00000  Uiso   1.00
O92    O     0.46179   0.22775   0.25000   0.00000  Uiso   1.00
O93    O     0.53823   0.22774   0.25000   0.00000  Uiso   1.00
O94    O     0.44280   0.16666   0.32681   0.00000  Uiso   1.00
O95    O     0.51924   0.16665   0.32681   0.00000  Uiso   1.00
O96    O     0.46177   0.10559   0.24999   0.00000  Uiso   1.00
O97    O     0.53821   0.10558   0.24999   0.00000  Uiso   1.00
O98    O     0.48076   0.16668   0.17319   0.00000  Uiso   1.00
O99    O     0.55720   0.16667   0.17319   0.00000  Uiso   1.00
Zn100  Zn    0.44896   0.16667   0.25000   0.00000  Uiso   1.00
Zn101  Zn    0.55104   0.16666   0.25000   0.00000  Uiso   1.00
H102   H     0.61627   0.15473   0.07854   0.00000  Uiso   1.00
Br103  Br    0.44973   0.28389   0.16742   0.00000  Uiso   1.00
H104   H     0.63947   0.11479   0.19634   0.00000  Uiso   1.00
H105   H     0.38822   0.11260   0.20057   0.00000  Uiso   1.00
Br106  Br    0.36731   0.23274   0.32858   0.00000  Uiso   1.00
Br107  Br    0.58961   0.23062   0.33175   0.00000  Uiso   1.00
Br108  Br    0.63419   0.10627   0.38335   0.00000  Uiso   1.00
Br109  Br    0.45309   0.10794   0.10335   0.00000  Uiso   1.00
H110   H     0.39233   0.19088   0.42000   0.00000  Uiso   1.00
Br111  Br    0.35297   0.21910   0.03222   0.00000  Uiso   1.00
H112   H     0.54035   0.29647   0.30308   0.00000  Uiso   1.00
C113   C     0.83374   0.24658   0.24849   0.00000  Uiso   1.00
C114   C     0.81534   0.15353   0.48968   0.00000  Uiso   1.00
C115   C     0.82555   0.14592   0.43468   0.00000  Uiso   1.00
C116   C     0.85040   0.14463   0.01336   0.00000  Uiso   1.00
C117   C     0.89772   0.13693   0.48186   0.00000  Uiso   1.00
C118   C     0.90647   0.12512   0.42822   0.00000  Uiso   1.00
C119   C     0.86920   0.12601   0.40661   0.00000  Uiso   1.00
C120   C     0.83928   0.14303   0.06804   0.00000  Uiso   1.00
C121   C     0.92184   0.15049   0.06044   0.00000  Uiso   1.00
C122   C     0.79317   0.16055   0.40922   0.00000  Uiso   1.00
C123   C     0.85680   0.31251   0.27830   0.00000  Uiso   1.00
C124   C     0.80770   0.16408   0.35142   0.00000  Uiso   1.00
C125   C     0.85684   0.02201   0.27894   0.00000  Uiso   1.00
C126   C     0.83343   0.04274   0.24874   0.00000  Uiso   1.00
C127   C     0.81066   0.02146   0.21710   0.00000  Uiso   1.00
C128   C     0.81125   0.31176   0.21539   0.00000  Uiso   1.00
C129   C     0.83404   0.29081   0.24688   0.00000  Uiso   1.00
C130   C     0.98421   0.13797   0.22017   0.00000  Uiso   1.00
C131   C     0.69825   0.13736   0.22134   0.00000  Uiso   1.00
C132   C     0.68201   0.19451   0.28163   0.00000  Uiso   1.00
C133   C     0.96733   0.19410   0.28221   0.00000  Uiso   1.00
C134   C     0.83332   0.08679   0.24969   0.00000  Uiso   1.00
C135   C     0.85915   0.16307   0.14858   0.00000  Uiso   1.00
C136   C     0.93371   0.13991   0.00604   0.00000  Uiso   1.00
C137   C     0.87401   0.15281   0.09163   0.00000  Uiso   1.00
C138   C     0.75006   0.17901   0.43931   0.00000  Uiso   1.00
C139   C     0.74032   0.18641   0.49368   0.00000  Uiso   1.00
C140   C     0.77270   0.17414   0.01872   0.00000  Uiso   1.00
H141   H     0.87419   0.03891   0.30365   0.00000  Uiso   1.00
H142   H     0.79347   0.03829   0.19300   0.00000  Uiso   1.00
H143   H     0.97065   0.13563   0.48324   0.00000  Uiso   1.00
H144   H     0.76550   0.18313   0.06028   0.00000  Uiso   1.00
H145   H     0.87584   0.11259   0.36701   0.00000  Uiso   1.00
N146   N     0.71426   0.16668   0.25001   0.00000  Uiso   1.00
N147   N     0.95239   0.16665   0.25000   0.00000  Uiso   1.00
O148   O     0.79512   0.22775   0.25000   0.00000  Uiso   1.00
O149   O     0.87157   0.22774   0.25000   0.00000  Uiso   1.00
O150   O     0.77613   0.16666   0.32681   0.00000  Uiso   1.00
O151   O     0.85258   0.16665   0.32681   0.00000  Uiso   1.00
O152   O     0.79510   0.10559   0.24999   0.00000  Uiso   1.00
O153   O     0.87154   0.10558   0.24999   0.00000  Uiso   1.00
O154   O     0.81409   0.16668   0.17319   0.00000  Uiso   1.00
O155   O     0.89053   0.16667   0.17319   0.00000  Uiso   1.00
Zn156  Zn    0.78229   0.16667   0.25000   0.00000  Uiso   1.00
Zn157  Zn    0.88438   0.16666   0.25000   0.00000  Uiso   1.00
H158   H     0.94960   0.15473   0.07854   0.00000  Uiso   1.00
Br159  Br    0.78306   0.28389   0.16742   0.00000  Uiso   1.00
H160   H     0.97281   0.11479   0.19634   0.00000  Uiso   1.00
H161   H     0.72156   0.11260   0.20057   0.00000  Uiso   1.00
Br162  Br    0.70065   0.23274   0.32858   0.00000  Uiso   1.00
Br163  Br    0.92294   0.23062   0.33175   0.00000  Uiso   1.00
Br164  Br    0.96752   0.10627   0.38335   0.00000  Uiso   1.00
Br165  Br    0.78643   0.10794   0.10335   0.00000  Uiso   1.00
H166   H     0.72566   0.19088   0.42000   0.00000  Uiso   1.00
Br167  Br    0.68630   0.21910   0.03222   0.00000  Uiso   1.00
H168   H     0.87368   0.29647   0.30308   0.00000  Uiso   1.00
C169   C     0.16708   0.57992   0.24849   0.00000  Uiso   1.00
C170   C     0.14867   0.48686   0.48968   0.00000  Uiso   1.00
C171   C     0.15889   0.47926   0.43468   0.00000  Uiso   1.00
C172   C     0.18374   0.47796   0.01336   0.00000  Uiso   1.00
C173   C     0.23105   0.47027   0.48186   0.00000  Uiso   1.00
C174   C     0.23981   0.45845   0.42822   0.00000  Uiso   1.00
C175   C     0.20253   0.45934   0.40661   0.00000  Uiso   1.00
C176   C     0.17262   0.47636   0.06804   0.00000  Uiso   1.00
C177   C     0.25517   0.48383   0.06044   0.00000  Uiso   1.00
C178   C     0.12650   0.49388   0.40922   0.00000  Uiso   1.00
C179   C     0.19013   0.64585   0.27830   0.00000  Uiso   1.00
C180   C     0.14104   0.49741   0.35142   0.00000  Uiso   1.00
C181   C     0.19017   0.35534   0.27894   0.00000  Uiso   1.00
C182   C     0.16676   0.37608   0.24874   0.00000  Uiso   1.00
C183   C     0.14399   0.35479   0.21710   0.00000  Uiso   1.00
C184   C     0.14458   0.64509   0.21539   0.00000  Uiso   1.00
C185   C     0.16737   0.62415   0.24688   0.00000  Uiso   1.00
C186   C     0.31755   0.47130   0.22017   0.00000  Uiso   1.00
C187   C     0.03158   0.47070   0.22134   0.00000  Uiso   1.00
C188   C     0.01534   0.52784   0.28163   0.00000  Uiso   1.00
C189   C     0.30066   0.52743   0.28221   0.00000  Uiso   1.00
C190   C     0.16666   0.42013   0.24969   0.00000  Uiso   1.00
C191   C     0.19248   0.49641   0.14858   0.00000  Uiso   1.00
C192   C     0.26705   0.47324   0.00604   0.00000  Uiso   1.00
C193   C     0.20734   0.48614   0.09163   0.00000  Uiso   1.00
C194   C     0.08339   0.51234   0.43931   0.00000  Uiso   1.00
C195   C     0.07366   0.51975   0.49368   0.00000  Uiso   1.00
C196   C     0.10604   0.50747   0.01872   0.00000  Uiso   1.00
H197   H     0.20752   0.37225   0.30365   0.00000  Uiso   1.00
H198   H     0.12681   0.37162   0.19300   0.00000  Uiso   1.00
H199   H     0.30398   0.46897   0.48324   0.00000  Uiso   1.00
H200   H     0.09884   0.51647   0.06028   0.00000  Uiso   1.00
H201   H     0.20917   0.44593   0.36701   0.00000  Uiso   1.00
N202   N     0.04760   0.50001   0.25001   0.00000  Uiso   1.00
N203   N     0.28573   0.49998   0.25000   0.00000  Uiso   1.00
O204   O     0.12846   0.56108   0.25000   0.00000  Uiso   1.00
O205   O     0.20490   0.56107   0.25000   0.00000  Uiso   1.00
O206   O     0.10947   0.50000   0.32681   0.00000  Uiso   1.00
O207   O     0.18591   0.49999   0.32681   0.00000  Uiso   1.00
O208   O     0.12843   0.43893   0.24999   0.00000  Uiso   1.00
O209   O     0.20488   0.43892   0.24999   0.00000  Uiso   1.00
O210   O     0.14742   0.50001   0.17319   0.00000  Uiso   1.00
O211   O     0.22387   0.50000   0.17319   0.00000  Uiso   1.00
Zn212  Zn    0.11562   0.50001   0.25000   0.00000  Uiso   1.00
Zn213  Zn    0.21771   0.49999   0.25000   0.00000  Uiso   1.00
H214   H     0.28293   0.48806   0.07854   0.00000  Uiso   1.00
Br215  Br    0.11639   0.61723   0.16742   0.00000  Uiso   1.00
H216   H     0.30614   0.44812   0.19634   0.00000  Uiso   1.00
H217   H     0.05489   0.44594   0.20057   0.00000  Uiso   1.00
Br218  Br    0.03398   0.56607   0.32858   0.00000  Uiso   1.00
Br219  Br    0.25627   0.56396   0.33175   0.00000  Uiso   1.00
Br220  Br    0.30086   0.43960   0.38335   0.00000  Uiso   1.00
Br221  Br    0.11976   0.44127   0.10335   0.00000  Uiso   1.00
H222   H     0.05899   0.52422   0.42000   0.00000  Uiso   1.00
Br223  Br    0.01963   0.55243   0.03222   0.00000  Uiso   1.00
H224   H     0.20701   0.62980   0.30308   0.00000  Uiso   1.00
C225   C     0.50041   0.57992   0.24849   0.00000  Uiso   1.00
C226   C     0.48200   0.48686   0.48968   0.00000  Uiso   1.00
C227   C     0.49222   0.47926   0.43468   0.00000  Uiso   1.00
C228   C     0.51707   0.47796   0.01336   0.00000  Uiso   1.00
C229   C     0.56438   0.47027   0.48186   0.00000  Uiso   1.00
C230   C     0.57314   0.45845   0.42822   0.00000  Uiso   1.00
C231   C     0.53586   0.45934   0.40661   0.00000  Uiso   1.00
C232   C     0.50595   0.47636   0.06804   0.00000  Uiso   1.00
C233   C     0.58851   0.48383   0.06044   0.00000  Uiso   1.00
C234   C     0.45984   0.49388   0.40922   0.00000  Uiso   1.00
C235   C     0.52346   0.64585   0.27830   0.00000  Uiso   1.00
C236   C     0.47437   0.49741   0.35142   0.00000  Uiso   1.00
C237   C     0.52350   0.35534   0.27894   0.00000  Uiso   1.00
C238   C     0.50009   0.37608   0.24874   0.00000  Uiso   1.00
C239   C     0.47732   0.35479   0.21710   0.00000  Uiso   1.00
C240   C     0.47791   0.64509   0.21539   0.00000  Uiso   1.00
C241   C     0.50070   0.62415   0.24688   0.00000  Uiso   1.00
C242   C     0.65088   0.47130   0.22017   0.00000  Uiso   1.00
C243   C     0.36491   0.47070   0.22134   0.00000  Uiso   1.00
C244   C     0.34868   0.52784   0.28163   0.00000  Uiso   1.00
C245   C     0.63400   0.52743   0.28221   0.00000  Uiso   1.00
C246   C     0.49999   0.42013   0.24969   0.00000  Uiso   1.00
C247   C     0.52582   0.49641   0.14858   0.00000  Uiso   1.00
C248   C     0.60038   0.47324   0.00604   0.00000  Uiso   1.00
C249   C     0.54068   0.48614   0.09163   0.00000  Uiso   1.00
C250   C     0.41673   0.51234   0.43931   0.00000  Uiso   1.00
C251   C     0.40699   0.51975   0.49368   0.00000  Uiso   1.00
C252   C     0.43937   0.50747   0.01872   0.00000  Uiso   1.00
H253   H     0.54086   0.37225   0.30365   0.00000  Uiso   1.00
H254   H     0.46014   0.37162   0.19300   0.00000  Uiso   1.00
H255   H     0.63731   0.46897   0.48324   0.00000  Uiso   1.00
H256   H     0.43217   0.51647   0.06028   0.00000  Uiso   1.00
H257   H     0.54251   0.44593   0.36701   0.00000  Uiso   1.00
N258   N     0.38093   0.50001   0.25001   0.00000  Uiso   1.00
N259   N     0.61906   0.49998   0.25000   0.00000  Uiso   1.00
O260   O     0.46179   0.56108   0.25000   0.00000  Uiso   1.00
O261   O     0.53823   0.56107   0.25000   0.00000  Uiso   1.00
O262   O     0.44280   0.50000   0.32681   0.00000  Uiso   1.00
O263   O     0.51924   0.49999   0.32681   0.00000  Uiso   1.00
O264   O     0.46177   0.43893   0.24999   0.00000  Uiso   1.00
O265   O     0.53821   0.43892   0.24999   0.00000  Uiso   1.00
O266   O     0.48076   0.50001   0.17319   0.00000  Uiso   1.00
O267   O     0.55720   0.50000   0.17319   0.00000  Uiso   1.00
Zn268  Zn    0.44896   0.50001   0.25000   0.00000  Uiso   1.00
Zn269  Zn    0.55104   0.49999   0.25000   0.00000  Uiso   1.00
H270   H     0.61627   0.48806   0.07854   0.00000  Uiso   1.00
Br271  Br    0.44973   0.61723   0.16742   0.00000  Uiso   1.00
H272   H     0.63947   0.44812   0.19634   0.00000  Uiso   1.00
H273   H     0.38822   0.44594   0.20057   0.00000  Uiso   1.00
Br274  Br    0.36731   0.56607   0.32858   0.00000  Uiso   1.00
Br275  Br    0.58961   0.56396   0.33175   0.00000  Uiso   1.00
Br276  Br    0.63419   0.43960   0.38335   0.00000  Uiso   1.00
Br277  Br    0.45309   0.44127   0.10335   0.00000  Uiso   1.00
H278   H     0.39233   0.52422   0.42000   0.00000  Uiso   1.00
Br279  Br    0.35297   0.55243   0.03222   0.00000  Uiso   1.00
H280   H     0.54035   0.62980   0.30308   0.00000  Uiso   1.00
C281   C     0.83374   0.57992   0.24849   0.00000  Uiso   1.00
C282   C     0.81534   0.48686   0.48968   0.00000  Uiso   1.00
C283   C     0.82555   0.47926   0.43468   0.00000  Uiso   1.00
C284   C     0.85040   0.47796   0.01336   0.00000  Uiso   1.00
C285   C     0.89772   0.47027   0.48186   0.00000  Uiso   1.00
C286   C     0.90647   0.45845   0.42822   0.00000  Uiso   1.00
C287   C     0.86920   0.45934   0.40661   0.00000  Uiso   1.00
C288   C     0.83928   0.47636   0.06804   0.00000  Uiso   1.00
C289   C     0.92184   0.48383   0.06044   0.00000  Uiso   1.00
C290   C     0.79317   0.49388   0.40922   0.00000  Uiso   1.00
C291   C     0.85680   0.64585   0.27830   0.00000  Uiso   1.00
C292   C     0.80770   0.49741   0.35142   0.00000  Uiso   1.00
C293   C     0.85684   0.35534   0.27894   0.00000  Uiso   1.00
C294   C     0.83343   0.37608   0.24874   0.00000  Uiso   1.00
C295   C     0.81066   0.35479   0.21710   0.00000  Uiso   1.00
C296   C     0.81125   0.64509   0.21539   0.00000  Uiso   1.00
C297   C     0.83404   0.62415   0.24688   0.00000  Uiso   1.00
C298   C     0.98421   0.47130   0.22017   0.00000  Uiso   1.00
C299   C     0.69825   0.47070   0.22134   0.00000  Uiso   1.00
C300   C     0.68201   0.52784   0.28163   0.00000  Uiso   1.00
C301   C     0.96733   0.52743   0.28221   0.00000  Uiso   1.00
C302   C     0.83332   0.42013   0.24969   0.00000  Uiso   1.00
C303   C     0.85915   0.49641   0.14858   0.00000  Uiso   1.00
C304   C     0.93371   0.47324   0.00604   0.00000  Uiso   1.00
C305   C     0.87401   0.48614   0.09163   0.00000  Uiso   1.00
C306   C     0.75006   0.51234   0.43931   0.00000  Uiso   1.00
C307   C     0.74032   0.51975   0.49368   0.00000  Uiso   1.00
C308   C     0.77270   0.50747   0.01872   0.00000  Uiso   1.00
H309   H     0.87419   0.37225   0.30365   0.00000  Uiso   1.00
H310   H     0.79347   0.37162   0.19300   0.00000  Uiso   1.00
H311   H     0.97065   0.46897   0.48324   0.00000  Uiso   1.00
H312   H     0.76550   0.51647   0.06028   0.00000  Uiso   1.00
H313   H     0.87584   0.44593   0.36701   0.00000  Uiso   1.00
N314   N     0.71426   0.50001   0.25001   0.00000  Uiso   1.00
N315   N     0.95239   0.49998   0.25000   0.00000  Uiso   1.00
O316   O     0.79512   0.56108   0.25000   0.00000  Uiso   1.00
O317   O     0.87157   0.56107   0.25000   0.00000  Uiso   1.00
O318   O     0.77613   0.50000   0.32681   0.00000  Uiso   1.00
O319   O     0.85258   0.49999   0.32681   0.00000  Uiso   1.00
O320   O     0.79510   0.43893   0.24999   0.00000  Uiso   1.00
O321   O     0.87154   0.43892   0.24999   0.00000  Uiso   1.00
O322   O     0.81409   0.50001   0.17319   0.00000  Uiso   1.00
O323   O     0.89053   0.50000   0.17319   0.00000  Uiso   1.00
Zn324  Zn    0.78229   0.50001   0.25000   0.00000  Uiso   1.00
Zn325  Zn    0.88438   0.49999   0.25000   0.00000  Uiso   1.00
H326   H     0.94960   0.48806   0.07854   0.00000  Uiso   1.00
Br327  Br    0.78306   0.61723   0.16742   0.00000  Uiso   1.00
H328   H     0.97281   0.44812   0.19634   0.00000  Uiso   1.00
H329   H     0.72156   0.44594   0.20057   0.00000  Uiso   1.00
Br330  Br    0.70065   0.56607   0.32858   0.00000  Uiso   1.00
Br331  Br    0.92294   0.56396   0.33175   0.00000  Uiso   1.00
Br332  Br    0.96752   0.43960   0.38335   0.00000  Uiso   1.00
Br333  Br    0.78643   0.44127   0.10335   0.00000  Uiso   1.00
H334   H     0.72566   0.52422   0.42000   0.00000  Uiso   1.00
Br335  Br    0.68630   0.55243   0.03222   0.00000  Uiso   1.00
H336   H     0.87368   0.62980   0.30308   0.00000  Uiso   1.00
C337   C     0.16708   0.91325   0.24849   0.00000  Uiso   1.00
C338   C     0.14867   0.82019   0.48968   0.00000  Uiso   1.00
C339   C     0.15889   0.81259   0.43468   0.00000  Uiso   1.00
C340   C     0.18374   0.81130   0.01336   0.00000  Uiso   1.00
C341   C     0.23105   0.80360   0.48186   0.00000  Uiso   1.00
C342   C     0.23981   0.79179   0.42822   0.00000  Uiso   1.00
C343   C     0.20253   0.79267   0.40661   0.00000  Uiso   1.00
C344   C     0.17262   0.80969   0.06804   0.00000  Uiso   1.00
C345   C     0.25517   0.81716   0.06044   0.00000  Uiso   1.00
C346   C     0.12650   0.82721   0.40922   0.00000  Uiso   1.00
C347   C     0.19013   0.97918   0.27830   0.00000  Uiso   1.00
C348   C     0.14104   0.83074   0.35142   0.00000  Uiso   1.00
C349   C     0.19017   0.68867   0.27894   0.00000  Uiso   1.00
C350   C     0.16676   0.70941   0.24874   0.00000  Uiso   1.00
C351   C     0.14399   0.68813   0.21710   0.00000  Uiso   1.00
C352   C     0.14458   0.97842   0.21539   0.00000  Uiso   1.00
C353   C     0.16737   0.95748   0.24688   0.00000  Uiso   1.00
C354   C     0.31755   0.80463   0.22017   0.00000  Uiso   1.00
C355   C     0.03158   0.80403   0.22134   0.00000  Uiso   1.00
C356   C     0.01534   0.86118   0.28163   0.00000  Uiso   1.00
C357   C     0.30066   0.86077   0.28221   0.00000  Uiso   1.00
C358   C     0.16666   0.75346   0.24969   0.00000  Uiso   1.00
C359   C     0.19248   0.82974   0.14858   0.00000  Uiso   1.00
C360   C     0.26705   0.80658   0.00604   0.00000  Uiso   1.00
C361   C     0.20734   0.81948   0.09163   0.00000  Uiso   1.00
C362   C     0.08339   0.84567   0.43931   0.00000  Uiso   1.00
C363   C     0.07366   0.85308   0.49368   0.00000  Uiso   1.00
C364   C     0.10604   0.84080   0.01872   0.00000  Uiso   1.00
H365   H     0.20752   0.70558   0.30365   0.00000  Uiso   1.00
H366   H     0.12681   0.70496   0.19300   0.00000  Uiso   1.00
H367   H     0.30398   0.80230   0.48324   0.00000  Uiso   1.00
H368   H     0.09884   0.84980   0.06028   0.00000  Uiso   1.00
H369   H     0.20917   0.77926   0.36701   0.00000  Uiso   1.00
N370   N     0.04760   0.83334   0.25001   0.00000  Uiso   1.00
N371   N     0.28573   0.83331   0.25000   0.00000  Uiso   1.00
O372   O     0.12846   0.89442   0.25000   0.00000  Uiso   1.00
O373   O     0.20490   0.89441   0.25000   0.00000  Uiso   1.00
O374   O     0.10947   0.83333   0.32681   0.00000  Uiso   1.00
O375   O     0.18591   0.83332   0.32681   0.00000  Uiso   1.00
O376   O     0.12843   0.77226   0.24999   0.00000  Uiso   1.00
O377   O     0.20488   0.77225   0.24999   0.00000  Uiso   1.00
O378   O     0.14742   0.83335   0.17319   0.00000  Uiso   1.00
O379   O     0.22387   0.83334   0.17319   0.00000  Uiso   1.00
Zn380  Zn    0.11562   0.83334   0.25000   0.00000  Uiso   1.00
Zn381  Zn    0.21771   0.83333   0.25000   0.00000  Uiso   1.00
H382   H     0.28293   0.82140   0.07854   0.00000  Uiso   1.00
Br383  Br    0.11639   0.95056   0.16742   0.00000  Uiso   1.00
H384   H     0.30614   0.78145   0.19634   0.00000  Uiso   1.00
H385   H     0.05489   0.77927   0.20057   0.00000  Uiso   1.00
Br386  Br    0.03398   0.89940   0.32858   0.00000  Uiso   1.00
Br387  Br    0.25627   0.89729   0.33175   0.00000  Uiso   1.00
Br388  Br    0.30086   0.77293   0.38335   0.00000  Uiso   1.00
Br389  Br    0.11976   0.77460   0.10335   0.00000  Uiso   1.00
H390   H     0.05899   0.85755   0.42000   0.00000  Uiso   1.00
Br391  Br    0.01963   0.88576   0.03222   0.00000  Uiso   1.00
H392   H     0.20701   0.96313   0.30308   0.00000  Uiso   1.00
C393   C     0.50041   0.91325   0.24849   0.00000  Uiso   1.00
C394   C     0.48200   0.82019   0.48968   0.00000  Uiso   1.00
C395   C     0.49222   0.81259   0.43468   0.00000  Uiso   1.00
C396   C     0.51707   0.81130   0.01336   0.00000  Uiso   1.00
C397   C     0.56438   0.80360   0.48186   0.00000  Uiso   1.00
C398   C     0.57314   0.79179   0.42822   0.00000  Uiso   1.00
C399   C     0.53586   0.79267   0.40661   0.00000  Uiso   1.00
C400   C     0.50595   0.80969   0.06804   0.00000  Uiso   1.00
C401   C     0.58851   0.81716   0.06044   0.00000  Uiso   1.00
C402   C     0.45984   0.82721   0.40922   0.00000  Uiso   1.00
C403   C     0.52346   0.97918   0.27830   0.00000  Uiso   1.00
C404   C     0.47437   0.83074   0.35142   0.00000  Uiso   1.00
C405   C     0.52350   0.68867   0.27894   0.00000  Uiso   1.00
C406   C     0.50009   0.70941   0.24874   0.00000  Uiso   1.00
C407   C     0.47732   0.68813   0.21710   0.00000  Uiso   1.00
C408   C     0.47791   0.97842   0.21539   0.00000  Uiso   1.00
C409   C     0.50070   0.95748   0.24688   0.00000  Uiso   1.00
C410   C     0.65088   0.80463   0.22017   0.00000  Uiso   1.00
C411   C     0.36491   0.80403   0.22134   0.00000  Uiso   1.00
C412   C     0.34868   0.86118   0.28163   0.00000  Uiso   1.00
C413   C     0.63400   0.86077   0.28221   0.00000  Uiso   1.00
C414   C     0.49999   0.75346   0.24969   0.00000  Uiso   1.00
C415   C     0.52582   0.82974   0.14858   0.00000  Uiso   1.00
C416   C     0.60038   0.80658   0.00604   0.00000  Uiso   1.00
C417   C     0.54068   0.81948   0.09163   0.00000  Uiso   1.00
C418   C     0.41673   0.84567   0.43931   0.00000  Uiso   1.00
C419   C     0.40699   0.85308   0.49368   0.00000  Uiso   1.00
C420   C     0.43937   0.84080   0.01872   0.00000  Uiso   1.00
H421   H     0.54086   0.70558   0.30365   0.00000  Uiso   1.00
H422   H     0.46014   0.70496   0.19300   0.00000  Uiso   1.00
H423   H     0.63731   0.80230   0.48324   0.00000  Uiso   1.00
H424   H     0.43217   0.84980   0.06028   0.00000  Uiso   1.00
H425   H     0.54251   0.77926   0.36701   0.00000  Uiso   1.00
N426   N     0.38093   0.83334   0.25001   0.00000  Uiso   1.00
N427   N     0.61906   0.83331   0.25000   0.00000  Uiso   1.00
O428   O     0.46179   0.89442   0.25000   0.00000  Uiso   1.00
O429   O     0.53823   0.89441   0.25000   0.00000  Uiso   1.00
O430   O     0.44280   0.83333   0.32681   0.00000  Uiso   1.00
O431   O     0.51924   0.83332   0.32681   0.00000  Uiso   1.00
O432   O     0.46177   0.77226   0.24999   0.00000  Uiso   1.00
O433   O     0.53821   0.77225   0.24999   0.00000  Uiso   1.00
O434   O     0.48076   0.83335   0.17319   0.00000  Uiso   1.00
O435   O     0.55720   0.83334   0.17319   0.00000  Uiso   1.00
Zn436  Zn    0.44896   0.83334   0.25000   0.00000  Uiso   1.00
Zn437  Zn    0.55104   0.83333   0.25000   0.00000  Uiso   1.00
H438   H     0.61627   0.82140   0.07854   0.00000  Uiso   1.00
Br439  Br    0.44973   0.95056   0.16742   0.00000  Uiso   1.00
H440   H     0.63947   0.78145   0.19634   0.00000  Uiso   1.00
H441   H     0.38822   0.77927   0.20057   0.00000  Uiso   1.00
Br442  Br    0.36731   0.89940   0.32858   0.00000  Uiso   1.00
Br443  Br    0.58961   0.89729   0.33175   0.00000  Uiso   1.00
Br444  Br    0.63419   0.77293   0.38335   0.00000  Uiso   1.00
Br445  Br    0.45309   0.77460   0.10335   0.00000  Uiso   1.00
H446   H     0.39233   0.85755   0.42000   0.00000  Uiso   1.00
Br447  Br    0.35297   0.88576   0.03222   0.00000  Uiso   1.00
H448   H     0.54035   0.96313   0.30308   0.00000  Uiso   1.00
C449   C     0.83374   0.91325   0.24849   0.00000  Uiso   1.00
C450   C     0.81534   0.82019   0.48968   0.00000  Uiso   1.00
C451   C     0.82555   0.81259   0.43468   0.00000  Uiso   1.00
C452   C     0.85040   0.81130   0.01336   0.00000  Uiso   1.00
C453   C     0.89772   0.80360   0.48186   0.00000  Uiso   1.00
C454   C     0.90647   0.79179   0.42822   0.00000  Uiso   1.00
C455   C     0.86920   0.79267   0.40661   0.00000  Uiso   1.00
C456   C     0.83928   0.80969   0.06804   0.00000  Uiso   1.00
C457   C     0.92184   0.81716   0.06044   0.00000  Uiso   1.00
C458   C     0.79317   0.82721   0.40922   0.00000  Uiso   1.00
C459   C     0.85680   0.97918   0.27830   0.00000  Uiso   1.00
C460   C     0.80770   0.83074   0.35142   0.00000  Uiso   1.00
C461   C     0.85684   0.68867   0.27894   0.00000  Uiso   1.00
C462   C     0.83343   0.70941   0.24874   0.00000  Uiso   1.00
C463   C     0.81066   0.68813   0.21710   0.00000  Uiso   1.00
C464   C     0.81125   0.97842   0.21539   0.00000  Uiso   1.00
C465   C     0.83404   0.95748   0.24688   0.00000  Uiso   1.00
C466   C     0.98421   0.80463   0.22017   0.00000  Uiso   1.00
C467   C     0.69825   0.80403   0.22134   0.00000  Uiso   1.00
C468   C     0.68201   0.86118   0.28163   0.00000  Uiso   1.00
C469   C     0.96733   0.86077   0.28221   0.00000  Uiso   1.00
C470   C     0.83332   0.75346   0.24969   0.00000  Uiso   1.00
C471   C     0.85915   0.82974   0.14858   0.00000  Uiso   1.00
C472   C     0.93371   0.80658   0.00604   0.00000  Uiso   1.00
C473   C     0.87401   0.81948   0.09163   0.00000  Uiso   1.00
C474   C     0.75006   0.84567   0.43931   0.00000  Uiso   1.00
C475   C     0.74032   0.85308   0.49368   0.00000  Uiso   1.00
C476   C     0.77270   0.84080   0.01872   0.00000  Uiso   1.00
H477   H     0.87419   0.70558   0.30365   0.00000  Uiso   1.00
H478   H     0.79347   0.70496   0.19300   0.00000  Uiso   1.00
H479   H     0.97065   0.80230   0.48324   0.00000  Uiso   1.00
H480   H     0.76550   0.84980   0.06028   0.00000  Uiso   1.00
H481   H     0.87584   0.77926   0.36701   0.00000  Uiso   1.00
N482   N     0.71426   0.83334   0.25001   0.00000  Uiso   1.00
N483   N     0.95239   0.83331   0.25000   0.00000  Uiso   1.00
O484   O     0.79512   0.89442   0.25000   0.00000  Uiso   1.00
O485   O     0.87157   0.89441   0.25000   0.00000  Uiso   1.00
O486   O     0.77613   0.83333   0.32681   0.00000  Uiso   1.00
O487   O     0.85258   0.83332   0.32681   0.00000  Uiso   1.00
O488   O     0.79510   0.77226   0.24999   0.00000  Uiso   1.00
O489   O     0.87154   0.77225   0.24999   0.00000  Uiso   1.00
O490   O     0.81409   0.83335   0.17319   0.00000  Uiso   1.00
O491   O     0.89053   0.83334   0.17319   0.00000  Uiso   1.00
Zn492  Zn    0.78229   0.83334   0.25000   0.00000  Uiso   1.00
Zn493  Zn    0.88438   0.83333   0.25000   0.00000  Uiso   1.00
H494   H     0.94960   0.82140   0.07854   0.00000  Uiso   1.00
Br495  Br    0.78306   0.95056   0.16742   0.00000  Uiso   1.00
H496   H     0.97281   0.78145   0.19634   0.00000  Uiso   1.00
H497   H     0.72156   0.77927   0.20057   0.00000  Uiso   1.00
Br498  Br    0.70065   0.89940   0.32858   0.00000  Uiso   1.00
Br499  Br    0.92294   0.89729   0.33175   0.00000  Uiso   1.00
Br500  Br    0.96752   0.77293   0.38335   0.00000  Uiso   1.00
Br501  Br    0.78643   0.77460   0.10335   0.00000  Uiso   1.00
H502   H     0.72566   0.85755   0.42000   0.00000  Uiso   1.00
Br503  Br    0.68630   0.88576   0.03222   0.00000  Uiso   1.00
H504   H     0.87368   0.96313   0.30308   0.00000  Uiso   1.00
C505   C     0.16708   0.24658   0.74849   0.00000  Uiso   1.00
C506   C     0.14867   0.15353   0.98968   0.00000  Uiso   1.00
C507   C     0.15889   0.14592   0.93468   0.00000  Uiso   1.00
C508   C     0.18374   0.14463   0.51336   0.00000  Uiso   1.00
C509   C     0.23105   0.13693   0.98186   0.00000  Uiso   1.00
C510   C     0.23981   0.12512   0.92822   0.00000  Uiso   1.00
C511   C     0.20253   0.12601   0.90661   0.00000  Uiso   1.00
C512   C     0.17262   0.14303   0.56804   0.00000  Uiso   1.00
C513   C     0.25517   0.15049   0.56044   0.00000  Uiso   1.00
C514   C     0.12650   0.16055   0.90922   0.00000  Uiso   1.00
C515   C     0.19013   0.31251   0.77830   0.00000  Uiso   1.00
C516   C     0.14104   0.16408   0.85142   0.00000  Uiso   1.00
C517   C     0.19017   0.02201   0.77894   0.00000  Uiso   1.00
C518   C     0.16676   0.04274   0.74874   0.00000  Uiso   1.00
C519   C     0.14399   0.02146   0.71710   0.00000  Uiso   1.00
C520   C     0.14458   0.31176   0.71539   0.00000  Uiso   1.00
C521   C     0.16737   0.29081   0.74688   0.00000  Uiso   1.00
C522   C     0.31755   0.13797   0.72017   0.00000  Uiso   1.00
C523   C     0.03158   0.13736   0.72134   0.00000  Uiso   1.00
C524   C     0.01534   0.19451   0.78163   0.00000  Uiso   1.00
C525   C     0.30066   0.19410   0.78221   0.00000  Uiso   1.00
C526   C     0.16666   0.08679   0.74969   0.00000  Uiso   1.00
C527   C     0.19248   0.16307   0.64858   0.00000  Uiso   1.00
C528   C     0.26705   0.13991   0.50604   0.00000  Uiso   1.00
C529   C     0.20734   0.15281   0.59163   0.00000  Uiso   1.00
C530   C     0.08339   0.17901   0.93931   0.00000  Uiso   1.00
C531   C     0.07366   0.18641   0.99368   0.00000  Uiso   1.00
C532   C     0.10604   0.17414   0.51872   0.00000  Uiso   1.00
H533   H     0.20752   0.03891   0.80365   0.00000  Uiso   1.00
H534   H     0.12681   0.03829   0.69300   0.00000  Uiso   1.00
H535   H     0.30398   0.13563   0.98324   0.00000  Uiso   1.00
H536   H     0.09884   0.18313   0.56028   0.00000  Uiso   1.00
H537   H     0.20917   0.11259   0.86701   0.00000  Uiso   1.00
N538   N     0.04760   0.16668   0.75001   0.00000  Uiso   1.00
N539   N     0.28573   0.16665   0.75000   0.00000  Uiso   1.00
O540   O     0.12846   0.22775   0.75000   0.00000  Uiso   1.00
O541   O     0.20490   0.22774   0.75000   0.00000  Uiso   1.00
O542   O     0.10947   0.16666   0.82681   0.00000  Uiso   1.00
O543   O     0.18591   0.16665   0.82681   0.00000  Uiso   1.00
O544   O     0.12843   0.10559   0.74999   0.00000  Uiso   1.00
O545   O     0.20488   0.10558   0.74999   0.00000  Uiso   1.00
O546   O     0.14742   0.16668   0.67319   0.00000  Uiso   1.00
O547   O     0.22387   0.16667   0.67319   0.00000  Uiso   1.00
Zn548  Zn    0.11562   0.16667   0.75000   0.00000  Uiso   1.00
Zn549  Zn    0.21771   0.16666   0.75000   0.00000  Uiso   1.00
H550   H     0.28293   0.15473   0.57854   0.00000  Uiso   1.00
Br551  Br    0.11639   0.28389   0.66742   0.00000  Uiso   1.00
H552   H     0.30614   0.11479   0.69634   0.00000  Uiso   1.00
H553   H     0.05489   0.11260   0.70057   0.00000  Uiso   1.00
Br554  Br    0.03398   0.23274   0.82858   0.00000  Uiso   1.00
Br555  Br    0.25627   0.23062   0.83175   0.00000  Uiso   1.00
Br556  Br    0.30086   0.10627   0.88335   0.00000  Uiso   1.00
Br557  Br    0.11976   0.10794   0.60335   0.00000  Uiso   1.00
H558   H     0.05899   0.19088   0.92000   0.00000  Uiso   1.00
Br559  Br    0.01963   0.21910   0.53222   0.00000  Uiso   1.00
H560   H     0.20701   0.29647   0.80308   0.00000  Uiso   1.00
C561   C     0.50041   0.24658   0.74849   0.00000  Uiso   1.00
C562   C     0.48200   0.15353   0.98968   0.00000  Uiso   1.00
C563   C     0.49222   0.14592   0.93468   0.00000  Uiso   1.00
C564   C     0.51707   0.14463   0.51336   0.00000  Uiso   1.00
C565   C     0.56438   0.13693   0.98186   0.00000  Uiso   1.00
C566   C     0.57314   0.12512   0.92822   0.00000  Uiso   1.00
C567   C     0.53586   0.12601   0.90661   0.00000  Uiso   1.00
C568   C     0.50595   0.14303   0.56804   0.00000  Uiso   1.00
C569   C     0.58851   0.15049   0.56044   0.00000  Uiso   1.00
C570   C     0.45984   0.16055   0.90922   0.00000  Uiso   1.00
C571   C     0.52346   0.31251   0.77830   0.00000  Uiso   1.00
C572   C     0.47437   0.16408   0.85142   0.00000  Uiso   1.00
C573   C     0.52350   0.02201   0.77894   0.00000  Uiso   1.00
C574   C     0.50009   0.04274   0.74874   0.00000  Uiso   1.00
C575   C     0.47732   0.02146   0.71710   0.00000  Uiso   1.00
C576   C     0.47791   0.31176   0.71539   0.00000  Uiso   1.00
C577   C     0.50070   0.29081   0.74688   0.00000  Uiso   1.00
C578   C     0.65088   0.13797   0.72017   0.00000  Uiso   1.00
C579   C     0.36491   0.13736   0.72134   0.00000  Uiso   1.00
C580   C     0.34868   0.19451   0.78163   0.00000  Uiso   1.00
C581   C     0.63400   0.19410   0.78221   0.00000  Uiso   1.00
C582   C     0.49999   0.08679   0.74969   0.00000  Uiso   1.00
C583   C     0.52582   0.16307   0.64858   0.00000  Uiso   1.00
C584   C     0.60038   0.13991   0.50604   0.00000  Uiso   1.00
C585   C     0.54068   0.15281   0.59163   0.00000  Uiso   1.00
C586   C     0.41673   0.17901   0.93931   0.00000  Uiso   1.00
C587   C     0.40699   0.18641   0.99368   0.00000  Uiso   1.00
C588   C     0.43937   0.17414   0.51872   0.00000  Uiso   1.00
H589   H     0.54086   0.03891   0.80365   0.00000  Uiso   1.00
H590   H     0.46014   0.03829   0.69300   0.00000  Uiso   1.00
H591   H     0.63731   0.13563   0.98324   0.00000  Uiso   1.00
H592   H     0.43217   0.18313   0.56028   0.00000  Uiso   1.00
H593   H     0.54251   0.11259   0.86701   0.00000  Uiso   1.00
N594   N     0.38093   0.16668   0.75001   0.00000  Uiso   1.00
N595   N     0.61906   0.16665   0.75000   0.00000  Uiso   1.00
O596   O     0.46179   0.22775   0.75000   0.00000  Uiso   1.00
O597   O     0.53823   0.22774   0.75000   0.00000  Uiso   1.00
O598   O     0.44280   0.16666   0.82681   0.00000  Uiso   1.00
O599   O     0.51924   0.16665   0.82681   0.00000  Uiso   1.00
O600   O     0.46177   0.10559   0.74999   0.00000  Uiso   1.00
O601   O     0.53821   0.10558   0.74999   0.00000  Uiso   1.00
O602   O     0.48076   0.16668   0.67319   0.00000  Uiso   1.00
O603   O     0.55720   0.16667   0.67319   0.00000  Uiso   1.00
Zn604  Zn    0.44896   0.16667   0.75000   0.00000  Uiso   1.00
Zn605  Zn    0.55104   0.16666   0.75000   0.00000  Uiso   1.00
H606   H     0.61627   0.15473   0.57854   0.00000  Uiso   1.00
Br607  Br    0.44973   0.28389   0.66742   0.00000  Uiso   1.00
H608   H     0.63947   0.11479   0.69634   0.00000  Uiso   1.00
H609   H     0.38822   0.11260   0.70057   0.00000  Uiso   1.00
Br610  Br    0.36731   0.23274   0.82858   0.00000  Uiso   1.00
Br611  Br    0.58961   0.23062   0.83175   0.00000  Uiso   1.00
Br612  Br    0.63419   0.10627   0.88335   0.00000  Uiso   1.00
Br613  Br    0.45309   0.10794   0.60335   0.00000  Uiso   1.00
H614   H     0.39233   0.19088   0.92000   0.00000  Uiso   1.00
Br615  Br    0.35297   0.21910   0.53222   0.00000  Uiso   1.00
H616   H     0.54035   0.29647   0.80308   0.00000  Uiso   1.00
C617   C     0.83374   0.24658   0.74849   0.00000  Uiso   1.00
C618   C     0.81534   0.15353   0.98968   0.00000  Uiso   1.00
C619   C     0.82555   0.14592   0.93468   0.00000  Uiso   1.00
C620   C     0.85040   0.14463   0.51336   0.00000  Uiso   1.00
C621   C     0.89772   0.13693   0.98186   0.00000  Uiso   1.00
C622   C     0.90647   0.12512   0.92822   0.00000  Uiso   1.00
C623   C     0.86920   0.12601   0.90661   0.00000  Uiso   1.00
C624   C     0.83928   0.14303   0.56804   0.00000  Uiso   1.00
C625   C     0.92184   0.15049   0.56044   0.00000  Uiso   1.00
C626   C     0.79317   0.16055   0.90922   0.00000  Uiso   1.00
C627   C     0.85680   0.31251   0.77830   0.00000  Uiso   1.00
C628   C     0.80770   0.16408   0.85142   0.00000  Uiso   1.00
C629   C     0.85684   0.02201   0.77894   0.00000  Uiso   1.00
C630   C     0.83343   0.04274   0.74874   0.00000  Uiso   1.00
C631   C     0.81066   0.02146   0.71710   0.00000  Uiso   1.00
C632   C     0.81125   0.31176   0.71539   0.00000  Uiso   1.00
C633   C     0.83404   0.29081   0.74688   0.00000  Uiso   1.00
C634   C     0.98421   0.13797   0.72017   0.00000  Uiso   1.00
C635   C     0.69825   0.13736   0.72134   0.00000  Uiso   1.00
C636   C     0.68201   0.19451   0.78163   0.00000  Uiso   1.00
C637   C     0.96733   0.19410   0.78221   0.00000  Uiso   1.00
C638   C     0.83332   0.08679   0.74969   0.00000  Uiso   1.00
C639   C     0.85915   0.16307   0.64858   0.00000  Uiso   1.00
C640   C     0.93371   0.13991   0.50604   0.00000  Uiso   1.00
C641   C     0.87401   0.15281   0.59163   0.00000  Uiso   1.00
C642   C     0.75006   0.17901   0.93931   0.00000  Uiso   1.00
C643   C     0.74032   0.18641   0.99368   0.00000  Uiso   1.00
C644   C     0.77270   0.17414   0.51872   0.00000  Uiso   1.00
H645   H     0.87419   0.03891   0.80365   0.00000  Uiso   1.00
H646   H     0.79347   0.03829   0.69300   0.00000  Uiso   1.00
H647   H     0.97065   0.13563   0.98324   0.00000  Uiso   1.00
H648   H     0.76550   0.18313   0.56028   0.00000  Uiso   1.00
H649   H     0.87584   0.11259   0.86701   0.00000  Uiso   1.00
N650   N     0.71426   0.16668   0.75001   0.00000  Uiso   1.00
N651   N     0.95239   0.16665   0.75000   0.00000  Uiso   1.00
O652   O     0.79512   0.22775   0.75000   0.00000  Uiso   1.00
O653   O     0.87157   0.22774   0.75000   0.00000  Uiso   1.00
O654   O     0.77613   0.16666   0.82681   0.00000  Uiso   1.00
O655   O     0.85258   0.16665   0.82681   0.00000  Uiso   1.00
O656   O     0.79510   0.10559   0.74999   0.00000  Uiso   1.00
O657   O     0.87154   0.10558   0.74999   0.00000  Uiso   1.00
O658   O     0.81409   0.16668   0.67319   0.00000  Uiso   1.00
O659   O     0.89053   0.16667   0.67319   0.00000  Uiso   1.00
Zn660  Zn    0.78229   0.16667   0.75000   0.00000  Uiso   1.00
Zn661  Zn    0.88438   0.16666   0.75000   0.00000  Uiso   1.00
H662   H     0.94960   0.15473   0.57854   0.00000  Uiso   1.00
Br663  Br    0.78306   0.28389   0.66742   0.00000  Uiso   1.00
H664   H     0.97281   0.11479   0.69634   0.00000  Uiso   1.00
H665   H     0.72156   0.11260   0.70057   0.00000  Uiso   1.00
Br666  Br    0.70065   0.23274   0.82858   0.00000  Uiso   1.00
Br667  Br    0.92294   0.23062   0.83175   0.00000  Uiso   1.00
Br668  Br    0.96752   0.10627   0.88335   0.00000  Uiso   1.00
Br669  Br    0.78643   0.10794   0.60335   0.00000  Uiso   1.00
H670   H     0.72566   0.19088   0.92000   0.00000  Uiso   1.00
Br671  Br    0.68630   0.21910   0.53222   0.00000  Uiso   1.00
H672   H     0.87368   0.29647   0.80308   0.00000  Uiso   1.00
C673   C     0.16708   0.57992   0.74849   0.00000  Uiso   1.00
C674   C     0.14867   0.48686   0.98968   0.00000  Uiso   1.00
C675   C     0.15889   0.47926   0.93468   0.00000  Uiso   1.00
C676   C     0.18374   0.47796   0.51336   0.00000  Uiso   1.00
C677   C     0.23105   0.47027   0.98186   0.00000  Uiso   1.00
C678   C     0.23981   0.45845   0.92822   0.00000  Uiso   1.00
C679   C     0.20253   0.45934   0.90661   0.00000  Uiso   1.00
C680   C     0.17262   0.47636   0.56804   0.00000  Uiso   1.00
C681   C     0.25517   0.48383   0.56044   0.00000  Uiso   1.00
C682   C     0.12650   0.49388   0.90922   0.00000  Uiso   1.00
C683   C     0.19013   0.64585   0.77830   0.00000  Uiso   1.00
C684   C     0.14104   0.49741   0.85142   0.00000  Uiso   1.00
C685   C     0.19017   0.35534   0.77894   0.00000  Uiso   1.00
C686   C     0.16676   0.37608   0.74874   0.00000  Uiso   1.00
C687   C     0.14399   0.35479   0.71710   0.00000  Uiso   1.00
C688   C     0.14458   0.64509   0.71539   0.00000  Uiso   1.00
C689   C     0.16737   0.62415   0.74688   0.00000  Uiso   1.00
C690   C     0.31755   0.47130   0.72017   0.00000  Uiso   1.00
C691   C     0.03158   0.47070   0.72134   0.00000  Uiso   1.00
C692   C     0.01534   0.52784   0.78163   0.00000  Uiso   1.00
C693   C     0.30066   0.52743   0.78221   0.00000  Uiso   1.00
C694   C     0.16666   0.42013   0.74969   0.00000  Uiso   1.00
C695   C     0.19248   0.49641   0.64858   0.00000  Uiso   1.00
C696   C     0.26705   0.47324   0.50604   0.00000  Uiso   1.00
C697   C     0.20734   0.48614   0.59163   0.00000  Uiso   1.00
C698   C     0.08339   0.51234   0.93931   0.00000  Uiso   1.00
C699   C     0.07366   0.51975   0.99368   0.00000  Uiso   1.00
C700   C     0.10604   0.50747   0.51872   0.00000  Uiso   1.00
H701   H     0.20752   0.37225   0.80365   0.00000  Uiso   1.00
H702   H     0.12681   0.37162   0.69300   0.00000  Uiso   1.00
H703   H     0.30398   0.46897   0.98324   0.00000  Uiso   1.00
H704   H     0.09884   0.51647   0.56028   0.00000  Uiso   1.00
H705   H     0.20917   0.44593   0.86701   0.00000  Uiso   1.00
N706   N     0.04760   0.50001   0.75001   0.00000  Uiso   1.00
N707   N     0.28573   0.49998   0.75000   0.00000  Uiso   1.00
O708   O     0.12846   0.56108   0.75000   0.00000  Uiso   1.00
O709   O     0.20490   0.56107   0.75000   0.00000  Uiso   1.00
O710   O     0.10947   0.50000   0.82681   0.00000  Uiso   1.00
O711   O     0.18591   0.49999   0.82681   0.00000  Uiso   1.00
O712   O     0.12843   0.43893   0.74999   0.00000  Uiso   1.00
O713   O     0.20488   0.43892   0.74999   0.00000  Uiso   1.00
O714   O     0.14742   0.50001   0.67319   0.00000  Uiso   1.00
O715   O     0.22387   0.50000   0.67319   0.00000  Uiso   1.00
Zn716  Zn    0.11562   0.50001   0.75000   0.00000  Uiso   1.00
Zn717  Zn    0.21771   0.49999   0.75000   0.00000  Uiso   1.00
H718   H     0.28293   0.48806   0.57854   0.00000  Uiso   1.00
Br719  Br    0.11639   0.61723   0.66742   0.00000  Uiso   1.00
H720   H     0.30614   0.44812   0.69634   0.00000  Uiso   1.00
H721   H     0.05489   0.44594   0.70057   0.00000  Uiso   1.00
Br722  Br    0.03398   0.56607   0.82858   0.00000  Uiso   1.00
Br723  Br    0.25627   0.56396   0.83175   0.00000  Uiso   1.00
Br724  Br    0.30086   0.43960   0.88335   0.00000  Uiso   1.00
Br725  Br    0.11976   0.44127   0.60335   0.00000  Uiso   1.00
H726   H     0.05899   0.52422   0.92000   0.00000  Uiso   1.00
Br727  Br    0.01963   0.55243   0.53222   0.00000  Uiso   1.00
H728   H     0.20701   0.62980   0.80308   0.00000  Uiso   1.00
C729   C     0.50041   0.57992   0.74849   0.00000  Uiso   1.00
C730   C     0.48200   0.48686   0.98968   0.00000  Uiso   1.00
C731   C     0.49222   0.47926   0.93468   0.00000  Uiso   1.00
C732   C     0.51707   0.47796   0.51336   0.00000  Uiso   1.00
C733   C     0.56438   0.47027   0.98186   0.00000  Uiso   1.00
C734   C     0.57314   0.45845   0.92822   0.00000  Uiso   1.00
C735   C     0.53586   0.45934   0.90661   0.00000  Uiso   1.00
C736   C     0.50595   0.47636   0.56804   0.00000  Uiso   1.00
C737   C     0.58851   0.48383   0.56044   0.00000  Uiso   1.00
C738   C     0.45984   0.49388   0.90922   0.00000  Uiso   1.00
C739   C     0.52346   0.64585   0.77830   0.00000  Uiso   1.00
C740   C     0.47437   0.49741   0.85142   0.00000  Uiso   1.00
C741   C     0.52350   0.35534   0.77894   0.00000  Uiso   1.00
C742   C     0.50009   0.37608   0.74874   0.00000  Uiso   1.00
C743   C     0.47732   0.35479   0.71710   0.00000  Uiso   1.00
C744   C     0.47791   0.64509   0.71539   0.00000  Uiso   1.00
C745   C     0.50070   0.62415   0.74688   0.00000  Uiso   1.00
C746   C     0.65088   0.47130   0.72017   0.00000  Uiso   1.00
C747   C     0.36491   0.47070   0.72134   0.00000  Uiso   1.00
C748   C     0.34868   0.52784   0.78163   0.00000  Uiso   1.00
C749   C     0.63400   0.52743   0.78221   0.00000  Uiso   1.00
C750   C     0.49999   0.42013   0.74969   0.00000  Uiso   1.00
C751   C     0.52582   0.49641   0.64858   0.00000  Uiso   1.00
C752   C     0.60038   0.47324   0.50604   0.00000  Uiso   1.00
C753   C     0.54068   0.48614   0.59163   0.00000  Uiso   1.00
C754   C     0.41673   0.51234   0.93931   0.00000  Uiso   1.00
C755   C     0.40699   0.51975   0.99368   0.00000  Uiso   1.00
C756   C     0.43937   0.50747   0.51872   0.00000  Uiso   1.00
H757   H     0.54086   0.37225   0.80365   0.00000  Uiso   1.00
H758   H     0.46014   0.37162   0.69300   0.00000  Uiso   1.00
H759   H     0.63731   0.46897   0.98324   0.00000  Uiso   1.00
H760   H     0.43217   0.51647   0.56028   0.00000  Uiso   1.00
H761   H     0.54251   0.44593   0.86701   0.00000  Uiso   1.00
N762   N     0.38093   0.50001   0.75001   0.00000  Uiso   1.00
N763   N     0.61906   0.49998   0.75000   0.00000  Uiso   1.00
O764   O     0.46179   0.56108   0.75000   0.00000  Uiso   1.00
O765   O     0.53823   0.56107   0.75000   0.00000  Uiso   1.00
O766   O     0.44280   0.50000   0.82681   0.00000  Uiso   1.00
O767   O     0.51924   0.49999   0.82681   0.00000  Uiso   1.00
O768   O     0.46177   0.43893   0.74999   0.00000  Uiso   1.00
O769   O     0.53821   0.43892   0.74999   0.00000  Uiso   1.00
O770   O     0.48076   0.50001   0.67319   0.00000  Uiso   1.00
O771   O     0.55720   0.50000   0.67319   0.00000  Uiso   1.00
Zn772  Zn    0.44896   0.50001   0.75000   0.00000  Uiso   1.00
Zn773  Zn    0.55104   0.49999   0.75000   0.00000  Uiso   1.00
H774   H     0.61627   0.48806   0.57854   0.00000  Uiso   1.00
Br775  Br    0.44973   0.61723   0.66742   0.00000  Uiso   1.00
H776   H     0.63947   0.44812   0.69634   0.00000  Uiso   1.00
H777   H     0.38822   0.44594   0.70057   0.00000  Uiso   1.00
Br778  Br    0.36731   0.56607   0.82858   0.00000  Uiso   1.00
Br779  Br    0.58961   0.56396   0.83175   0.00000  Uiso   1.00
Br780  Br    0.63419   0.43960   0.88335   0.00000  Uiso   1.00
Br781  Br    0.45309   0.44127   0.60335   0.00000  Uiso   1.00
H782   H     0.39233   0.52422   0.92000   0.00000  Uiso   1.00
Br783  Br    0.35297   0.55243   0.53222   0.00000  Uiso   1.00
H784   H     0.54035   0.62980   0.80308   0.00000  Uiso   1.00
C785   C     0.83374   0.57992   0.74849   0.00000  Uiso   1.00
C786   C     0.81534   0.48686   0.98968   0.00000  Uiso   1.00
C787   C     0.82555   0.47926   0.93468   0.00000  Uiso   1.00
C788   C     0.85040   0.47796   0.51336   0.00000  Uiso   1.00
C789   C     0.89772   0.47027   0.98186   0.00000  Uiso   1.00
C790   C     0.90647   0.45845   0.92822   0.00000  Uiso   1.00
C791   C     0.86920   0.45934   0.90661   0.00000  Uiso   1.00
C792   C     0.83928   0.47636   0.56804   0.00000  Uiso   1.00
C793   C     0.92184   0.48383   0.56044   0.00000  Uiso   1.00
C794   C     0.79317   0.49388   0.90922   0.00000  Uiso   1.00
C795   C     0.85680   0.64585   0.77830   0.00000  Uiso   1.00
C796   C     0.80770   0.49741   0.85142   0.00000  Uiso   1.00
C797   C     0.85684   0.35534   0.77894   0.00000  Uiso   1.00
C798   C     0.83343   0.37608   0.74874   0.00000  Uiso   1.00
C799   C     0.81066   0.35479   0.71710   0.00000  Uiso   1.00
C800   C     0.81125   0.64509   0.71539   0.00000  Uiso   1.00
C801   C     0.83404   0.62415   0.74688   0.00000  Uiso   1.00
C802   C     0.98421   0.47130   0.72017   0.00000  Uiso   1.00
C803   C     0.69825   0.47070   0.72134   0.00000  Uiso   1.00
C804   C     0.68201   0.52784   0.78163   0.00000  Uiso   1.00
C805   C     0.96733   0.52743   0.78221   0.00000  Uiso   1.00
C806   C     0.83332   0.42013   0.74969   0.00000  Uiso   1.00
C807   C     0.85915   0.49641   0.64858   0.00000  Uiso   1.00
C808   C     0.93371   0.47324   0.50604   0.00000  Uiso   1.00
C809   C     0.87401   0.48614   0.59163   0.00000  Uiso   1.00
C810   C     0.75006   0.51234   0.93931   0.00000  Uiso   1.00
C811   C     0.74032   0.51975   0.99368   0.00000  Uiso   1.00
C812   C     0.77270   0.50747   0.51872   0.00000  Uiso   1.00
H813   H     0.87419   0.37225   0.80365   0.00000  Uiso   1.00
H814   H     0.79347   0.37162   0.69300   0.00000  Uiso   1.00
H815   H     0.97065   0.46897   0.98324   0.00000  Uiso   1.00
H816   H     0.76550   0.51647   0.56028   0.00000  Uiso   1.00
H817   H     0.87584   0.44593   0.86701   0.00000  Uiso   1.00
N818   N     0.71426   0.50001   0.75001   0.00000  Uiso   1.00
N819   N     0.95239   0.49998   0.75000   0.00000  Uiso   1.00
O820   O     0.79512   0.56108   0.75000   0.00000  Uiso   1.00
O821   O     0.87157   0.56107   0.75000   0.00000  Uiso   1.00
O822   O     0.77613   0.50000   0.82681   0.00000  Uiso   1.00
O823   O     0.85258   0.49999   0.82681   0.00000  Uiso   1.00
O824   O     0.79510   0.43893   0.74999   0.00000  Uiso   1.00
O825   O     0.87154   0.43892   0.74999   0.00000  Uiso   1.00
O826   O     0.81409   0.50001   0.67319   0.00000  Uiso   1.00
O827   O     0.89053   0.50000   0.67319   0.00000  Uiso   1.00
Zn828  Zn    0.78229   0.50001   0.75000   0.00000  Uiso   1.00
Zn829  Zn    0.88438   0.49999   0.75000   0.00000  Uiso   1.00
H830   H     0.94960   0.48806   0.57854   0.00000  Uiso   1.00
Br831  Br    0.78306   0.61723   0.66742   0.00000  Uiso   1.00
H832   H     0.97281   0.44812   0.69634   0.00000  Uiso   1.00
H833   H     0.72156   0.44594   0.70057   0.00000  Uiso   1.00
Br834  Br    0.70065   0.56607   0.82858   0.00000  Uiso   1.00
Br835  Br    0.92294   0.56396   0.83175   0.00000  Uiso   1.00
Br836  Br    0.96752   0.43960   0.88335   0.00000  Uiso   1.00
Br837  Br    0.78643   0.44127   0.60335   0.00000  Uiso   1.00
H838   H     0.72566   0.52422   0.92000   0.00000  Uiso   1.00
Br839  Br    0.68630   0.55243   0.53222   0.00000  Uiso   1.00
H840   H     0.87368   0.62980   0.80308   0.00000  Uiso   1.00
C841   C     0.16708   0.91325   0.74849   0.00000  Uiso   1.00
C842   C     0.14867   0.82019   0.98968   0.00000  Uiso   1.00
C843   C     0.15889   0.81259   0.93468   0.00000  Uiso   1.00
C844   C     0.18374   0.81130   0.51336   0.00000  Uiso   1.00
C845   C     0.23105   0.80360   0.98186   0.00000  Uiso   1.00
C846   C     0.23981   0.79179   0.92822   0.00000  Uiso   1.00
C847   C     0.20253   0.79267   0.90661   0.00000  Uiso   1.00
C848   C     0.17262   0.80969   0.56804   0.00000  Uiso   1.00
C849   C     0.25517   0.81716   0.56044   0.00000  Uiso   1.00
C850   C     0.12650   0.82721   0.90922   0.00000  Uiso   1.00
C851   C     0.19013   0.97918   0.77830   0.00000  Uiso   1.00
C852   C     0.14104   0.83074   0.85142   0.00000  Uiso   1.00
C853   C     0.19017   0.68867   0.77894   0.00000  Uiso   1.00
C854   C     0.16676   0.70941   0.74874   0.00000  Uiso   1.00
C855   C     0.14399   0.68813   0.71710   0.00000  Uiso   1.00
C856   C     0.14458   0.97842   0.71539   0.00000  Uiso   1.00
C857   C     0.16737   0.95748   0.74688   0.00000  Uiso   1.00
C858   C     0.31755   0.80463   0.72017   0.00000  Uiso   1.00
C859   C     0.03158   0.80403   0.72134   0.00000  Uiso   1.00
C860   C     0.01534   0.86118   0.78163   0.00000  Uiso   1.00
C861   C     0.30066   0.86077   0.78221   0.00000  Uiso   1.00
C862   C     0.16666   0.75346   0.74969   0.00000  Uiso   1.00
C863   C     0.19248   0.82974   0.64858   0.00000  Uiso   1.00
C864   C     0.26705   0.80658   0.50604   0.00000  Uiso   1.00
C865   C     0.20734   0.81948   0.59163   0.00000  Uiso   1.00
C866   C     0.08339   0.84567   0.93931   0.00000  Uiso   1.00
C867   C     0.07366   0.85308   0.99368   0.00000  Uiso   1.00
C868   C     0.10604   0.84080   0.51872   0.00000  Uiso   1.00
H869   H     0.20752   0.70558   0.80365   0.00000  Uiso   1.00
H870   H     0.12681   0.70496   0.69300   0.00000  Uiso   1.00
H871   H     0.30398   0.80230   0.98324   0.00000  Uiso   1.00
H872   H     0.09884   0.84980   0.56028   0.00000  Uiso   1.00
H873   H     0.20917   0.77926   0.86701   0.00000  Uiso   1.00
N874   N     0.04760   0.83334   0.75001   0.00000  Uiso   1.00
N875   N     0.28573   0.83331   0.75000   0.00000  Uiso   1.00
O876   O     0.12846   0.89442   0.75000   0.00000  Uiso   1.00
O877   O     0.20490   0.89441   0.75000   0.00000  Uiso   1.00
O878   O     0.10947   0.83333   0.82681   0.00000  Uiso   1.00
O879   O     0.18591   0.83332   0.82681   0.00000  Uiso   1.00
O880   O     0.12843   0.77226   0.74999   0.00000  Uiso   1.00
O881   O     0.20488   0.77225   0.74999   0.00000  Uiso   1.00
O882   O     0.14742   0.83335   0.67319   0.00000  Uiso   1.00
O883   O     0.22387   0.83334   0.67319   0.00000  Uiso   1.00
Zn884  Zn    0.11562   0.83334   0.75000   0.00000  Uiso   1.00
Zn885  Zn    0.21771   0.83333   0.75000   0.00000  Uiso   1.00
H886   H     0.28293   0.82140   0.57854   0.00000  Uiso   1.00
Br887  Br    0.11639   0.95056   0.66742   0.00000  Uiso   1.00
H888   H     0.30614   0.78145   0.69634   0.00000  Uiso   1.00
H889   H     0.05489   0.77927   0.70057   0.00000  Uiso   1.00
Br890  Br    0.03398   0.89940   0.82858   0.00000  Uiso   1.00
Br891  Br    0.25627   0.89729   0.83175   0.00000  Uiso   1.00
Br892  Br    0.30086   0.77293   0.88335   0.00000  Uiso   1.00
Br893  Br    0.11976   0.77460   0.60335   0.00000  Uiso   1.00
H894   H     0.05899   0.85755   0.92000   0.00000  Uiso   1.00
Br895  Br    0.01963   0.88576   0.53222   0.00000  Uiso   1.00
H896   H     0.20701   0.96313   0.80308   0.00000  Uiso   1.00
C897   C     0.50041   0.91325   0.74849   0.00000  Uiso   1.00
C898   C     0.48200   0.82019   0.98968   0.00000  Uiso   1.00
C899   C     0.49222   0.81259   0.93468   0.00000  Uiso   1.00
C900   C     0.51707   0.81130   0.51336   0.00000  Uiso   1.00
C901   C     0.56438   0.80360   0.98186   0.00000  Uiso   1.00
C902   C     0.57314   0.79179   0.92822   0.00000  Uiso   1.00
C903   C     0.53586   0.79267   0.90661   0.00000  Uiso   1.00
C904   C     0.50595   0.80969   0.56804   0.00000  Uiso   1.00
C905   C     0.58851   0.81716   0.56044   0.00000  Uiso   1.00
C906   C     0.45984   0.82721   0.90922   0.00000  Uiso   1.00
C907   C     0.52346   0.97918   0.77830   0.00000  Uiso   1.00
C908   C     0.47437   0.83074   0.85142   0.00000  Uiso   1.00
C909   C     0.52350   0.68867   0.77894   0.00000  Uiso   1.00
C910   C     0.50009   0.70941   0.74874   0.00000  Uiso   1.00
C911   C     0.47732   0.68813   0.71710   0.00000  Uiso   1.00
C912   C     0.47791   0.97842   0.71539   0.00000  Uiso   1.00
C913   C     0.50070   0.95748   0.74688   0.00000  Uiso   1.00
C914   C     0.65088   0.80463   0.72017   0.00000  Uiso   1.00
C915   C     0.36491   0.80403   0.72134   0.00000  Uiso   1.00
C916   C     0.34868   0.86118   0.78163   0.00000  Uiso   1.00
C917   C     0.63400   0.86077   0.78221   0.00000  Uiso   1.00
C918   C     0.49999   0.75346   0.74969   0.00000  Uiso   1.00
C919   C     0.52582   0.82974   0.64858   0.00000  Uiso   1.00
C920   C     0.60038   0.80658   0.50604   0.00000  Uiso   1.00
C921   C     0.54068   0.81948   0.59163   0.00000  Uiso   1.00
C922   C     0.41673   0.84567   0.93931   0.00000  Uiso   1.00
C923   C     0.40699   0.85308   0.99368   0.00000  Uiso   1.00
C924   C     0.43937   0.84080   0.51872   0.00000  Uiso   1.00
H925   H     0.54086   0.70558   0.80365   0.00000  Uiso   1.00
H926   H     0.46014   0.70496   0.69300   0.00000  Uiso   1.00
H927   H     0.63731   0.80230   0.98324   0.00000  Uiso   1.00
H928   H     0.43217   0.84980   0.56028   0.00000  Uiso   1.00
H929   H     0.54251   0.77926   0.86701   0.00000  Uiso   1.00
N930   N     0.38093   0.83334   0.75001   0.00000  Uiso   1.00
N931   N     0.61906   0.83331   0.75000   0.00000  Uiso   1.00
O932   O     0.46179   0.89442   0.75000   0.00000  Uiso   1.00
O933   O     0.53823   0.89441   0.75000   0.00000  Uiso   1.00
O934   O     0.44280   0.83333   0.82681   0.00000  Uiso   1.00
O935   O     0.51924   0.83332   0.82681   0.00000  Uiso   1.00
O936   O     0.46177   0.77226   0.74999   0.00000  Uiso   1.00
O937   O     0.53821   0.77225   0.74999   0.00000  Uiso   1.00
O938   O     0.48076   0.83335   0.67319   0.00000  Uiso   1.00
O939   O     0.55720   0.83334   0.67319   0.00000  Uiso   1.00
Zn940  Zn    0.44896   0.83334   0.75000   0.00000  Uiso   1.00
Zn941  Zn    0.55104   0.83333   0.75000   0.00000  Uiso   1.00
H942   H     0.61627   0.82140   0.57854   0.00000  Uiso   1.00
Br943  Br    0.44973   0.95056   0.66742   0.00000  Uiso   1.00
H944   H     0.63947   0.78145   0.69634   0.00000  Uiso   1.00
H945   H     0.38822   0.77927   0.70057   0.00000  Uiso   1.00
Br946  Br    0.36731   0.89940   0.82858   0.00000  Uiso   1.00
Br947  Br    0.58961   0.89729   0.83175   0.00000  Uiso   1.00
Br948  Br    0.63419   0.77293   0.88335   0.00000  Uiso   1.00
Br949  Br    0.45309   0.77460   0.60335   0.00000  Uiso   1.00
H950   H     0.39233   0.85755   0.92000   0.00000  Uiso   1.00
Br951  Br    0.35297   0.88576   0.53222   0.00000  Uiso   1.00
H952   H     0.54035   0.96313   0.80308   0.00000  Uiso   1.00
C953   C     0.83374   0.91325   0.74849   0.00000  Uiso   1.00
C954   C     0.81534   0.82019   0.98968   0.00000  Uiso   1.00
C955   C     0.82555   0.81259   0.93468   0.00000  Uiso   1.00
C956   C     0.85040   0.81130   0.51336   0.00000  Uiso   1.00
C957   C     0.89772   0.80360   0.98186   0.00000  Uiso   1.00
C958   C     0.90647   0.79179   0.92822   0.00000  Uiso   1.00
C959   C     0.86920   0.79267   0.90661   0.00000  Uiso   1.00
C960   C     0.83928   0.80969   0.56804   0.00000  Uiso   1.00
C961   C     0.92184   0.81716   0.56044   0.00000  Uiso   1.00
C962   C     0.79317   0.82721   0.90922   0.00000  Uiso   1.00
C963   C     0.85680   0.97918   0.77830   0.00000  Uiso   1.00
C964   C     0.80770   0.83074   0.85142   0.00000  Uiso   1.00
C965   C     0.85684   0.68867   0.77894   0.00000  Uiso   1.00
C966   C     0.83343   0.70941   0.74874   0.00000  Uiso   1.00
C967   C     0.81066   0.68813   0.71710   0.00000  Uiso   1.00
C968   C     0.81125   0.97842   0.71539   0.00000  Uiso   1.00
C969   C     0.83404   0.95748   0.74688   0.00000  Uiso   1.00
C970   C     0.98421   0.80463   0.72017   0.00000  Uiso   1.00
C971   C     0.69825   0.80403   0.72134   0.00000  Uiso   1.00
C972   C     0.68201   0.86118   0.78163   0.00000  Uiso   1.00
C973   C     0.96733   0.86077   0.78221   0.00000  Uiso   1.00
C974   C     0.83332   0.75346   0.74969   0.00000  Uiso   1.00
C975   C     0.85915   0.82974   0.64858   0.00000  Uiso   1.00
C976   C     0.93371   0.80658   0.50604   0.00000  Uiso   1.00
C977   C     0.87401   0.81948   0.59163   0.00000  Uiso   1.00
C978   C     0.75006   0.84567   0.93931   0.00000  Uiso   1.00
C979   C     0.74032   0.85308   0.99368   0.00000  Uiso   1.00
C980   C     0.77270   0.84080   0.51872   0.00000  Uiso   1.00
H981   H     0.87419   0.70558   0.80365   0.00000  Uiso   1.00
H982   H     0.79347   0.70496   0.69300   0.00000  Uiso   1.00
H983   H     0.97065   0.80230   0.98324   0.00000  Uiso   1.00
H984   H     0.76550   0.84980   0.56028   0.00000  Uiso   1.00
H985   H     0.87584   0.77926   0.86701   0.00000  Uiso   1.00
N986   N     0.71426   0.83334   0.75001   0.00000  Uiso   1.00
N987   N     0.95239   0.83331   0.75000   0.00000  Uiso   1.00
O988   O     0.79512   0.89442   0.75000   0.00000  Uiso   1.00
O989   O     0.87157   0.89441   0.75000   0.00000  Uiso   1.00
O990   O     0.77613   0.83333   0.82681   0.00000  Uiso   1.00
O991   O     0.85258   0.83332   0.82681   0.00000  Uiso   1.00
O992   O     0.79510   0.77226   0.74999   0.00000  Uiso   1.00
O993   O     0.87154   0.77225   0.74999   0.00000  Uiso   1.00
O994   O     0.81409   0.83335   0.67319   0.00000  Uiso   1.00
O995   O     0.89053   0.83334   0.67319   0.00000  Uiso   1.00
Zn996  Zn    0.78229   0.83334   0.75000   0.00000  Uiso   1.00
Zn997  Zn    0.88438   0.83333   0.75000   0.00000  Uiso   1.00
H998   H     0.94960   0.82140   0.57854   0.00000  Uiso   1.00
Br999  Br    0.78306   0.95056   0.66742   0.00000  Uiso   1.00
H1000  H     0.97281   0.78145   0.69634   0.00000  Uiso   1.00
H1001  H     0.72156   0.77927   0.70057   0.00000  Uiso   1.00
Br1002 Br    0.70065   0.89940   0.82858   0.00000  Uiso   1.00
Br1003 Br    0.92294   0.89729   0.83175   0.00000  Uiso   1.00
Br1004 Br    0.96752   0.77293   0.88335   0.00000  Uiso   1.00
Br1005 Br    0.78643   0.77460   0.60335   0.00000  Uiso   1.00
H1006  H     0.72566   0.85755   0.92000   0.00000  Uiso   1.00
Br1007 Br    0.68630   0.88576   0.53222   0.00000  Uiso   1.00
H1008  H     0.87368   0.96313   0.80308   0.00000  Uiso   1.00
loop_
_geom_bond_atom_site_label_1
_geom_bond_atom_site_label_2
_geom_bond_distance
_geom_bond_site_symmetry_2
_ccdc_geom_bond_type
C1     C17     1.416   .     S
C1     O37     1.289   .     A
C1     O36     1.284   .     A
C2     C3      1.403   .     A
C2     C508    1.405   .     S
C2     C532    1.415   .     S
C3     C10     1.421   .     A
C3     C7      1.421   .     A
C4     C8      1.379   .     A
C4     C506    1.405   1_554 S
C4     C509    1.411   1_554 S
C5     C6      1.400   .     A
C5     C508    1.411   .     S
C5     C528    1.409   .     S
C6     C7      1.396   .     A
C6     Br52    1.921   .     S
C7     H33     1.080   .     S
C8     Br53    1.928   .     S
C8     C25     1.393   .     A
C9     C24     1.401   .     A
C9     C25     1.404   .     A
C9     H46     1.082   .     S
C10    C26     1.403   .     A
C10    C12     1.457   .     S
C11    C17     1.396   .     A
C11    H56     1.079   .     S
C11    C181    1.369   .     S
C12    O39     1.291   .     A
C12    O38     1.301   .     A
C13    C14     1.391   .     A
C13    H29     1.084   .     S
C13    C347    1.369   1_545 S
C14    C22     1.408   .     S
C14    C15     1.394   .     A
C15    H30     1.084   .     S
C15    C352    1.376   1_545 S
C16    Br47    1.925   .     S
C16    C17     1.407   .     A
C16    C183    1.376   .     S
C18    N35     1.365   .     A
C18    H48     1.082   .     S
C18    C75     1.418   .     S
C19    H49     1.074   .     S
C19    N34     1.367   .     A
C19    C130    1.418   1_455 S
C20    Br50    1.921   .     S
C20    N34     1.371   .     A
C20    C133    1.422   1_455 S
C21    N35     1.374   .     A
C21    Br51    1.917   .     S
C21    C76     1.422   .     S
C22    O40     1.285   .     A
C22    O41     1.285   .     A
C23    C25     1.458   .     S
C23    O43     1.296   .     A
C23    O42     1.297   .     A
C24    C509    1.409   1_554 S
C24    H535    1.082   1_554 S
C26    C27     1.387   .     A
C26    H54     1.082   .     S
C27    C532    1.389   .     S
C27    Br559   1.910   .     S
C28    H32     1.082   .     S
C28    C531    1.389   1_554 S
C28    C506    1.415   1_554 S
H31    C528    1.082   .     S
N34    Zn44    2.022   .     S
N35    Zn45    2.022   .     S
O36    Zn44    1.989   .     S
O37    Zn45    1.991   .     S
O38    Zn44    1.978   .     S
O39    Zn45    1.951   .     S
O40    Zn44    1.991   .     S
O41    Zn45    1.989   .     S
O42    Zn44    1.951   .     S
O43    Zn45    1.978   .     S
Br55   C531    1.910   1_554 S
C57    C73     1.416   .     S
C57    O93     1.289   .     A
C57    O92     1.284   .     A
C58    C59     1.403   .     A
C58    C564    1.405   .     S
C58    C588    1.415   .     S
C59    C66     1.421   .     A
C59    C63     1.421   .     A
C60    C64     1.379   .     A
C60    C562    1.405   1_554 S
C60    C565    1.411   1_554 S
C61    C62     1.400   .     A
C61    C564    1.411   .     S
C61    C584    1.409   .     S
C62    C63     1.396   .     A
C62    Br108   1.921   .     S
C63    H89     1.080   .     S
C64    Br109   1.928   .     S
C64    C81     1.393   .     A
C65    C80     1.401   .     A
C65    C81     1.404   .     A
C65    H102    1.082   .     S
C66    C82     1.403   .     A
C66    C68     1.457   .     S
C67    C73     1.396   .     A
C67    H112    1.079   .     S
C67    C237    1.369   .     S
C68    O95     1.291   .     A
C68    O94     1.301   .     A
C69    C70     1.391   .     A
C69    H85     1.084   .     S
C69    C403    1.369   1_545 S
C70    C78     1.408   .     S
C70    C71     1.394   .     A
C71    H86     1.084   .     S
C71    C408    1.376   1_545 S
C72    Br103   1.925   .     S
C72    C73     1.407   .     A
C72    C239    1.376   .     S
C74    N91     1.365   .     A
C74    H104    1.082   .     S
C74    C131    1.418   .     S
C75    H105    1.074   .     S
C75    N90     1.367   .     A
C76    Br106   1.921   .     S
C76    N90     1.371   .     A
C77    N91     1.374   .     A
C77    Br107   1.917   .     S
C77    C132    1.422   .     S
C78    O96     1.285   .     A
C78    O97     1.285   .     A
C79    C81     1.458   .     S
C79    O99     1.296   .     A
C79    O98     1.297   .     A
C80    C565    1.409   1_554 S
C80    H591    1.082   1_554 S
C82    C83     1.387   .     A
C82    H110    1.082   .     S
C83    C588    1.389   .     S
C83    Br615   1.910   .     S
C84    H88     1.082   .     S
C84    C587    1.389   1_554 S
C84    C562    1.415   1_554 S
H87    C584    1.082   .     S
N90    Zn100   2.022   .     S
N91    Zn101   2.022   .     S
O92    Zn100   1.989   .     S
O93    Zn101   1.991   .     S
O94    Zn100   1.978   .     S
O95    Zn101   1.951   .     S
O96    Zn100   1.991   .     S
O97    Zn101   1.989   .     S
O98    Zn100   1.951   .     S
O99    Zn101   1.978   .     S
Br111  C587    1.910   1_554 S
C113   C129    1.416   .     S
C113   O149    1.289   .     A
C113   O148    1.284   .     A
C114   C115    1.403   .     A
C114   C620    1.405   .     S
C114   C644    1.415   .     S
C115   C122    1.421   .     A
C115   C119    1.421   .     A
C116   C120    1.379   .     A
C116   C618    1.405   1_554 S
C116   C621    1.411   1_554 S
C117   C118    1.400   .     A
C117   C620    1.411   .     S
C117   C640    1.409   .     S
C118   C119    1.396   .     A
C118   Br164   1.921   .     S
C119   H145    1.080   .     S
C120   Br165   1.928   .     S
C120   C137    1.393   .     A
C121   C136    1.401   .     A
C121   C137    1.404   .     A
C121   H158    1.082   .     S
C122   C138    1.403   .     A
C122   C124    1.457   .     S
C123   C129    1.396   .     A
C123   H168    1.079   .     S
C123   C293    1.369   .     S
C124   O151    1.291   .     A
C124   O150    1.301   .     A
C125   C126    1.391   .     A
C125   H141    1.084   .     S
C125   C459    1.369   1_545 S
C126   C134    1.408   .     S
C126   C127    1.394   .     A
C127   H142    1.084   .     S
C127   C464    1.376   1_545 S
C128   Br159   1.925   .     S
C128   C129    1.407   .     A
C128   C295    1.376   .     S
C130   N147    1.365   .     A
C130   H160    1.082   .     S
C130   C19     1.418   1_655 S
C131   H161    1.074   .     S
C131   N146    1.367   .     A
C132   Br162   1.921   .     S
C132   N146    1.371   .     A
C133   N147    1.374   .     A
C133   Br163   1.917   .     S
C133   C20     1.422   1_655 S
C134   O152    1.285   .     A
C134   O153    1.285   .     A
C135   C137    1.458   .     S
C135   O155    1.296   .     A
C135   O154    1.297   .     A
C136   C621    1.409   1_554 S
C136   H647    1.082   1_554 S
C138   C139    1.387   .     A
C138   H166    1.082   .     S
C139   C644    1.389   .     S
C139   Br671   1.910   .     S
C140   H144    1.082   .     S
C140   C643    1.389   1_554 S
C140   C618    1.415   1_554 S
H143   C640    1.082   .     S
N146   Zn156   2.022   .     S
N147   Zn157   2.022   .     S
O148   Zn156   1.989   .     S
O149   Zn157   1.991   .     S
O150   Zn156   1.978   .     S
O151   Zn157   1.951   .     S
O152   Zn156   1.991   .     S
O153   Zn157   1.989   .     S
O154   Zn156   1.951   .     S
O155   Zn157   1.978   .     S
Br167  C643    1.910   1_554 S
C169   C185    1.416   .     S
C169   O205    1.289   .     A
C169   O204    1.284   .     A
C170   C171    1.403   .     A
C170   C676    1.405   .     S
C170   C700    1.415   .     S
C171   C178    1.421   .     A
C171   C175    1.421   .     A
C172   C176    1.379   .     A
C172   C674    1.405   1_554 S
C172   C677    1.411   1_554 S
C173   C174    1.400   .     A
C173   C676    1.411   .     S
C173   C696    1.409   .     S
C174   C175    1.396   .     A
C174   Br220   1.921   .     S
C175   H201    1.080   .     S
C176   Br221   1.928   .     S
C176   C193    1.393   .     A
C177   C192    1.401   .     A
C177   C193    1.404   .     A
C177   H214    1.082   .     S
C178   C194    1.403   .     A
C178   C180    1.457   .     S
C179   C185    1.396   .     A
C179   H224    1.079   .     S
C179   C349    1.369   .     S
C180   O207    1.291   .     A
C180   O206    1.301   .     A
C181   C182    1.391   .     A
C181   H197    1.084   .     S
C182   C190    1.408   .     S
C182   C183    1.394   .     A
C183   H198    1.084   .     S
C184   Br215   1.925   .     S
C184   C185    1.407   .     A
C184   C351    1.376   .     S
C186   N203    1.365   .     A
C186   H216    1.082   .     S
C186   C243    1.418   .     S
C187   H217    1.074   .     S
C187   N202    1.367   .     A
C187   C298    1.418   1_455 S
C188   Br218   1.921   .     S
C188   N202    1.371   .     A
C188   C301    1.422   1_455 S
C189   N203    1.374   .     A
C189   Br219   1.917   .     S
C189   C244    1.422   .     S
C190   O208    1.285   .     A
C190   O209    1.285   .     A
C191   C193    1.458   .     S
C191   O211    1.296   .     A
C191   O210    1.297   .     A
C192   C677    1.409   1_554 S
C192   H703    1.082   1_554 S
C194   C195    1.387   .     A
C194   H222    1.082   .     S
C195   C700    1.389   .     S
C195   Br727   1.910   .     S
C196   H200    1.082   .     S
C196   C699    1.389   1_554 S
C196   C674    1.415   1_554 S
H199   C696    1.082   .     S
N202   Zn212   2.022   .     S
N203   Zn213   2.022   .     S
O204   Zn212   1.989   .     S
O205   Zn213   1.991   .     S
O206   Zn212   1.978   .     S
O207   Zn213   1.951   .     S
O208   Zn212   1.991   .     S
O209   Zn213   1.989   .     S
O210   Zn212   1.951   .     S
O211   Zn213   1.978   .     S
Br223  C699    1.910   1_554 S
C225   C241    1.416   .     S
C225   O261    1.289   .     A
C225   O260    1.284   .     A
C226   C227    1.403   .     A
C226   C732    1.405   .     S
C226   C756    1.415   .     S
C227   C234    1.421   .     A
C227   C231    1.421   .     A
C228   C232    1.379   .     A
C228   C730    1.405   1_554 S
C228   C733    1.411   1_554 S
C229   C230    1.400   .     A
C229   C732    1.411   .     S
C229   C752    1.409   .     S
C230   C231    1.396   .     A
C230   Br276   1.921   .     S
C231   H257    1.080   .     S
C232   Br277   1.928   .     S
C232   C249    1.393   .     A
C233   C248    1.401   .     A
C233   C249    1.404   .     A
C233   H270    1.082   .     S
C234   C250    1.403   .     A
C234   C236    1.457   .     S
C235   C241    1.396   .     A
C235   H280    1.079   .     S
C235   C405    1.369   .     S
C236   O263    1.291   .     A
C236   O262    1.301   .     A
C237   C238    1.391   .     A
C237   H253    1.084   .     S
C238   C246    1.408   .     S
C238   C239    1.394   .     A
C239   H254    1.084   .     S
C240   Br271   1.925   .     S
C240   C241    1.407   .     A
C240   C407    1.376   .     S
C242   N259    1.365   .     A
C242   H272    1.082   .     S
C242   C299    1.418   .     S
C243   H273    1.074   .     S
C243   N258    1.367   .     A
C244   Br274   1.921   .     S
C244   N258    1.371   .     A
C245   N259    1.374   .     A
C245   Br275   1.917   .     S
C245   C300    1.422   .     S
C246   O264    1.285   .     A
C246   O265    1.285   .     A
C247   C249    1.458   .     S
C247   O267    1.296   .     A
C247   O266    1.297   .     A
C248   C733    1.409   1_554 S
C248   H759    1.082   1_554 S
C250   C251    1.387   .     A
C250   H278    1.082   .     S
C251   C756    1.389   .     S
C251   Br783   1.910   .     S
C252   H256    1.082   .     S
C252   C755    1.389   1_554 S
C252   C730    1.415   1_554 S
H255   C752    1.082   .     S
N258   Zn268   2.022   .     S
N259   Zn269   2.022   .     S
O260   Zn268   1.989   .     S
O261   Zn269   1.991   .     S
O262   Zn268   1.978   .     S
O263   Zn269   1.951   .     S
O264   Zn268   1.991   .     S
O265   Zn269   1.989   .     S
O266   Zn268   1.951   .     S
O267   Zn269   1.978   .     S
Br279  C755    1.910   1_554 S
C281   C297    1.416   .     S
C281   O317    1.289   .     A
C281   O316    1.284   .     A
C282   C283    1.403   .     A
C282   C788    1.405   .     S
C282   C812    1.415   .     S
C283   C290    1.421   .     A
C283   C287    1.421   .     A
C284   C288    1.379   .     A
C284   C786    1.405   1_554 S
C284   C789    1.411   1_554 S
C285   C286    1.400   .     A
C285   C788    1.411   .     S
C285   C808    1.409   .     S
C286   C287    1.396   .     A
C286   Br332   1.921   .     S
C287   H313    1.080   .     S
C288   Br333   1.928   .     S
C288   C305    1.393   .     A
C289   C304    1.401   .     A
C289   C305    1.404   .     A
C289   H326    1.082   .     S
C290   C306    1.403   .     A
C290   C292    1.457   .     S
C291   C297    1.396   .     A
C291   H336    1.079   .     S
C291   C461    1.369   .     S
C292   O319    1.291   .     A
C292   O318    1.301   .     A
C293   C294    1.391   .     A
C293   H309    1.084   .     S
C294   C302    1.408   .     S
C294   C295    1.394   .     A
C295   H310    1.084   .     S
C296   Br327   1.925   .     S
C296   C297    1.407   .     A
C296   C463    1.376   .     S
C298   N315    1.365   .     A
C298   H328    1.082   .     S
C298   C187    1.418   1_655 S
C299   H329    1.074   .     S
C299   N314    1.367   .     A
C300   Br330   1.921   .     S
C300   N314    1.371   .     A
C301   N315    1.374   .     A
C301   Br331   1.917   .     S
C301   C188    1.422   1_655 S
C302   O320    1.285   .     A
C302   O321    1.285   .     A
C303   C305    1.458   .     S
C303   O323    1.296   .     A
C303   O322    1.297   .     A
C304   C789    1.409   1_554 S
C304   H815    1.082   1_554 S
C306   C307    1.387   .     A
C306   H334    1.082   .     S
C307   C812    1.389   .     S
C307   Br839   1.910   .     S
C308   H312    1.082   .     S
C308   C811    1.389   1_554 S
C308   C786    1.415   1_554 S
H311   C808    1.082   .     S
N314   Zn324   2.022   .     S
N315   Zn325   2.022   .     S
O316   Zn324   1.989   .     S
O317   Zn325   1.991   .     S
O318   Zn324   1.978   .     S
O319   Zn325   1.951   .     S
O320   Zn324   1.991   .     S
O321   Zn325   1.989   .     S
O322   Zn324   1.951   .     S
O323   Zn325   1.978   .     S
Br335  C811    1.910   1_554 S
C337   C353    1.416   .     S
C337   O373    1.289   .     A
C337   O372    1.284   .     A
C338   C339    1.403   .     A
C338   C844    1.405   .     S
C338   C868    1.415   .     S
C339   C346    1.421   .     A
C339   C343    1.421   .     A
C340   C344    1.379   .     A
C340   C842    1.405   1_554 S
C340   C845    1.411   1_554 S
C341   C342    1.400   .     A
C341   C844    1.411   .     S
C341   C864    1.409   .     S
C342   C343    1.396   .     A
C342   Br388   1.921   .     S
C343   H369    1.080   .     S
C344   Br389   1.928   .     S
C344   C361    1.393   .     A
C345   C360    1.401   .     A
C345   C361    1.404   .     A
C345   H382    1.082   .     S
C346   C362    1.403   .     A
C346   C348    1.457   .     S
C347   C353    1.396   .     A
C347   H392    1.079   .     S
C347   C13     1.369   1_565 S
C348   O375    1.291   .     A
C348   O374    1.301   .     A
C349   C350    1.391   .     A
C349   H365    1.084   .     S
C350   C358    1.408   .     S
C350   C351    1.394   .     A
C351   H366    1.084   .     S
C352   Br383   1.925   .     S
C352   C353    1.407   .     A
C352   C15     1.376   1_565 S
C354   N371    1.365   .     A
C354   H384    1.082   .     S
C354   C411    1.418   .     S
C355   H385    1.074   .     S
C355   N370    1.367   .     A
C355   C466    1.418   1_455 S
C356   Br386   1.921   .     S
C356   N370    1.371   .     A
C356   C469    1.422   1_455 S
C357   N371    1.374   .     A
C357   Br387   1.917   .     S
C357   C412    1.422   .     S
C358   O376    1.285   .     A
C358   O377    1.285   .     A
C359   C361    1.458   .     S
C359   O379    1.296   .     A
C359   O378    1.297   .     A
C360   C845    1.409   1_554 S
C360   H871    1.082   1_554 S
C362   C363    1.387   .     A
C362   H390    1.082   .     S
C363   C868    1.389   .     S
C363   Br895   1.910   .     S
C364   H368    1.082   .     S
C364   C867    1.389   1_554 S
C364   C842    1.415   1_554 S
H367   C864    1.082   .     S
N370   Zn380   2.022   .     S
N371   Zn381   2.022   .     S
O372   Zn380   1.989   .     S
O373   Zn381   1.991   .     S
O374   Zn380   1.978   .     S
O375   Zn381   1.951   .     S
O376   Zn380   1.991   .     S
O377   Zn381   1.989   .     S
O378   Zn380   1.951   .     S
O379   Zn381   1.978   .     S
Br391  C867    1.910   1_554 S
C393   C409    1.416   .     S
C393   O429    1.289   .     A
C393   O428    1.284   .     A
C394   C395    1.403   .     A
C394   C900    1.405   .     S
C394   C924    1.415   .     S
C395   C402    1.421   .     A
C395   C399    1.421   .     A
C396   C400    1.379   .     A
C396   C898    1.405   1_554 S
C396   C901    1.411   1_554 S
C397   C398    1.400   .     A
C397   C900    1.411   .     S
C397   C920    1.409   .     S
C398   C399    1.396   .     A
C398   Br444   1.921   .     S
C399   H425    1.080   .     S
C400   Br445   1.928   .     S
C400   C417    1.393   .     A
C401   C416    1.401   .     A
C401   C417    1.404   .     A
C401   H438    1.082   .     S
C402   C418    1.403   .     A
C402   C404    1.457   .     S
C403   C409    1.396   .     A
C403   H448    1.079   .     S
C403   C69     1.369   1_565 S
C404   O431    1.291   .     A
C404   O430    1.301   .     A
C405   C406    1.391   .     A
C405   H421    1.084   .     S
C406   C414    1.408   .     S
C406   C407    1.394   .     A
C407   H422    1.084   .     S
C408   Br439   1.925   .     S
C408   C409    1.407   .     A
C408   C71     1.376   1_565 S
C410   N427    1.365   .     A
C410   H440    1.082   .     S
C410   C467    1.418   .     S
C411   H441    1.074   .     S
C411   N426    1.367   .     A
C412   Br442   1.921   .     S
C412   N426    1.371   .     A
C413   N427    1.374   .     A
C413   Br443   1.917   .     S
C413   C468    1.422   .     S
C414   O432    1.285   .     A
C414   O433    1.285   .     A
C415   C417    1.458   .     S
C415   O435    1.296   .     A
C415   O434    1.297   .     A
C416   C901    1.409   1_554 S
C416   H927    1.082   1_554 S
C418   C419    1.387   .     A
C418   H446    1.082   .     S
C419   C924    1.389   .     S
C419   Br951   1.910   .     S
C420   H424    1.082   .     S
C420   C923    1.389   1_554 S
C420   C898    1.415   1_554 S
H423   C920    1.082   .     S
N426   Zn436   2.022   .     S
N427   Zn437   2.022   .     S
O428   Zn436   1.989   .     S
O429   Zn437   1.991   .     S
O430   Zn436   1.978   .     S
O431   Zn437   1.951   .     S
O432   Zn436   1.991   .     S
O433   Zn437   1.989   .     S
O434   Zn436   1.951   .     S
O435   Zn437   1.978   .     S
Br447  C923    1.910   1_554 S
C449   C465    1.416   .     S
C449   O485    1.289   .     A
C449   O484    1.284   .     A
C450   C451    1.403   .     A
C450   C956    1.405   .     S
C450   C980    1.415   .     S
C451   C458    1.421   .     A
C451   C455    1.421   .     A
C452   C456    1.379   .     A
C452   C954    1.405   1_554 S
C452   C957    1.411   1_554 S
C453   C454    1.400   .     A
C453   C956    1.411   .     S
C453   C976    1.409   .     S
C454   C455    1.396   .     A
C454   Br500   1.921   .     S
C455   H481    1.080   .     S
C456   Br501   1.928   .     S
C456   C473    1.393   .     A
C457   C472    1.401   .     A
C457   C473    1.404   .     A
C457   H494    1.082   .     S
C458   C474    1.403   .     A
C458   C460    1.457   .     S
C459   C465    1.396   .     A
C459   H504    1.079   .     S
C459   C125    1.369   1_565 S
C460   O487    1.291   .     A
C460   O486    1.301   .     A
C461   C462    1.391   .     A
C461   H477    1.084   .     S
C462   C470    1.408   .     S
C462   C463    1.394   .     A
C463   H478    1.084   .     S
C464   Br495   1.925   .     S
C464   C465    1.407   .     A
C464   C127    1.376   1_565 S
C466   N483    1.365   .     A
C466   H496    1.082   .     S
C466   C355    1.418   1_655 S
C467   H497    1.074   .     S
C467   N482    1.367   .     A
C468   Br498   1.921   .     S
C468   N482    1.371   .     A
C469   N483    1.374   .     A
C469   Br499   1.917   .     S
C469   C356    1.422   1_655 S
C470   O488    1.285   .     A
C470   O489    1.285   .     A
C471   C473    1.458   .     S
C471   O491    1.296   .     A
C471   O490    1.297   .     A
C472   C957    1.409   1_554 S
C472   H983    1.082   1_554 S
C474   C475    1.387   .     A
C474   H502    1.082   .     S
C475   C980    1.389   .     S
C475   Br1007  1.910   .     S
C476   H480    1.082   .     S
C476   C979    1.389   1_554 S
C476   C954    1.415   1_554 S
H479   C976    1.082   .     S
N482   Zn492   2.022   .     S
N483   Zn493   2.022   .     S
O484   Zn492   1.989   .     S
O485   Zn493   1.991   .     S
O486   Zn492   1.978   .     S
O487   Zn493   1.951   .     S
O488   Zn492   1.991   .     S
O489   Zn493   1.989   .     S
O490   Zn492   1.951   .     S
O491   Zn493   1.978   .     S
Br503  C979    1.910   1_554 S
C505   C521    1.416   .     S
C505   O541    1.289   .     A
C505   O540    1.284   .     A
C506   C507    1.403   .     A
C506   C4      1.405   1_556 S
C506   C28     1.415   1_556 S
C507   C514    1.421   .     A
C507   C511    1.421   .     A
C508   C512    1.379   .     A
C509   C510    1.400   .     A
C509   C4      1.411   1_556 S
C509   C24     1.409   1_556 S
C510   C511    1.396   .     A
C510   Br556   1.921   .     S
C511   H537    1.080   .     S
C512   Br557   1.928   .     S
C512   C529    1.393   .     A
C513   C528    1.401   .     A
C513   C529    1.404   .     A
C513   H550    1.082   .     S
C514   C530    1.403   .     A
C514   C516    1.457   .     S
C515   C521    1.396   .     A
C515   H560    1.079   .     S
C515   C685    1.369   .     S
C516   O543    1.291   .     A
C516   O542    1.301   .     A
C517   C518    1.391   .     A
C517   H533    1.084   .     S
C517   C851    1.369   1_545 S
C518   C526    1.408   .     S
C518   C519    1.394   .     A
C519   H534    1.084   .     S
C519   C856    1.376   1_545 S
C520   Br551   1.925   .     S
C520   C521    1.407   .     A
C520   C687    1.376   .     S
C522   N539    1.365   .     A
C522   H552    1.082   .     S
C522   C579    1.418   .     S
C523   H553    1.074   .     S
C523   N538    1.367   .     A
C523   C634    1.418   1_455 S
C524   Br554   1.921   .     S
C524   N538    1.371   .     A
C524   C637    1.422   1_455 S
C525   N539    1.374   .     A
C525   Br555   1.917   .     S
C525   C580    1.422   .     S
C526   O544    1.285   .     A
C526   O545    1.285   .     A
C527   C529    1.458   .     S
C527   O547    1.296   .     A
C527   O546    1.297   .     A
C530   C531    1.387   .     A
C530   H558    1.082   .     S
C531   C28     1.389   1_556 S
C531   Br55    1.910   1_556 S
C532   H536    1.082   .     S
H535   C24     1.082   1_556 S
N538   Zn548   2.022   .     S
N539   Zn549   2.022   .     S
O540   Zn548   1.989   .     S
O541   Zn549   1.991   .     S
O542   Zn548   1.978   .     S
O543   Zn549   1.951   .     S
O544   Zn548   1.991   .     S
O545   Zn549   1.989   .     S
O546   Zn548   1.951   .     S
O547   Zn549   1.978   .     S
C561   C577    1.416   .     S
C561   O597    1.289   .     A
C561   O596    1.284   .     A
C562   C563    1.403   .     A
C562   C60     1.405   1_556 S
C562   C84     1.415   1_556 S
C563   C570    1.421   .     A
C563   C567    1.421   .     A
C564   C568    1.379   .     A
C565   C566    1.400   .     A
C565   C60     1.411   1_556 S
C565   C80     1.409   1_556 S
C566   C567    1.396   .     A
C566   Br612   1.921   .     S
C567   H593    1.080   .     S
C568   Br613   1.928   .     S
C568   C585    1.393   .     A
C569   C584    1.401   .     A
C569   C585    1.404   .     A
C569   H606    1.082   .     S
C570   C586    1.403   .     A
C570   C572    1.457   .     S
C571   C577    1.396   .     A
C571   H616    1.079   .     S
C571   C741    1.369   .     S
C572   O599    1.291   .     A
C572   O598    1.301   .     A
C573   C574    1.391   .     A
C573   H589    1.084   .     S
C573   C907    1.369   1_545 S
C574   C582    1.408   .     S
C574   C575    1.394   .     A
C575   H590    1.084   .     S
C575   C912    1.376   1_545 S
C576   Br607   1.925   .     S
C576   C577    1.407   .     A
C576   C743    1.376   .     S
C578   N595    1.365   .     A
C578   H608    1.082   .     S
C578   C635    1.418   .     S
C579   H609    1.074   .     S
C579   N594    1.367   .     A
C580   Br610   1.921   .     S
C580   N594    1.371   .     A
C581   N595    1.374   .     A
C581   Br611   1.917   .     S
C581   C636    1.422   .     S
C582   O600    1.285   .     A
C582   O601    1.285   .     A
C583   C585    1.458   .     S
C583   O603    1.296   .     A
C583   O602    1.297   .     A
C586   C587    1.387   .     A
C586   H614    1.082   .     S
C587   C84     1.389   1_556 S
C587   Br111   1.910   1_556 S
C588   H592    1.082   .     S
H591   C80     1.082   1_556 S
N594   Zn604   2.022   .     S
N595   Zn605   2.022   .     S
O596   Zn604   1.989   .     S
O597   Zn605   1.991   .     S
O598   Zn604   1.978   .     S
O599   Zn605   1.951   .     S
O600   Zn604   1.991   .     S
O601   Zn605   1.989   .     S
O602   Zn604   1.951   .     S
O603   Zn605   1.978   .     S
C617   C633    1.416   .     S
C617   O653    1.289   .     A
C617   O652    1.284   .     A
C618   C619    1.403   .     A
C618   C116    1.405   1_556 S
C618   C140    1.415   1_556 S
C619   C626    1.421   .     A
C619   C623    1.421   .     A
C620   C624    1.379   .     A
C621   C622    1.400   .     A
C621   C116    1.411   1_556 S
C621   C136    1.409   1_556 S
C622   C623    1.396   .     A
C622   Br668   1.921   .     S
C623   H649    1.080   .     S
C624   Br669   1.928   .     S
C624   C641    1.393   .     A
C625   C640    1.401   .     A
C625   C641    1.404   .     A
C625   H662    1.082   .     S
C626   C642    1.403   .     A
C626   C628    1.457   .     S
C627   C633    1.396   .     A
C627   H672    1.079   .     S
C627   C797    1.369   .     S
C628   O655    1.291   .     A
C628   O654    1.301   .     A
C629   C630    1.391   .     A
C629   H645    1.084   .     S
C629   C963    1.369   1_545 S
C630   C638    1.408   .     S
C630   C631    1.394   .     A
C631   H646    1.084   .     S
C631   C968    1.376   1_545 S
C632   Br663   1.925   .     S
C632   C633    1.407   .     A
C632   C799    1.376   .     S
C634   N651    1.365   .     A
C634   H664    1.082   .     S
C634   C523    1.418   1_655 S
C635   H665    1.074   .     S
C635   N650    1.367   .     A
C636   Br666   1.921   .     S
C636   N650    1.371   .     A
C637   N651    1.374   .     A
C637   Br667   1.917   .     S
C637   C524    1.422   1_655 S
C638   O656    1.285   .     A
C638   O657    1.285   .     A
C639   C641    1.458   .     S
C639   O659    1.296   .     A
C639   O658    1.297   .     A
C642   C643    1.387   .     A
C642   H670    1.082   .     S
C643   C140    1.389   1_556 S
C643   Br167   1.910   1_556 S
C644   H648    1.082   .     S
H647   C136    1.082   1_556 S
N650   Zn660   2.022   .     S
N651   Zn661   2.022   .     S
O652   Zn660   1.989   .     S
O653   Zn661   1.991   .     S
O654   Zn660   1.978   .     S
O655   Zn661   1.951   .     S
O656   Zn660   1.991   .     S
O657   Zn661   1.989   .     S
O658   Zn660   1.951   .     S
O659   Zn661   1.978   .     S
C673   C689    1.416   .     S
C673   O709    1.289   .     A
C673   O708    1.284   .     A
C674   C675    1.403   .     A
C674   C172    1.405   1_556 S
C674   C196    1.415   1_556 S
C675   C682    1.421   .     A
C675   C679    1.421   .     A
C676   C680    1.379   .     A
C677   C678    1.400   .     A
C677   C172    1.411   1_556 S
C677   C192    1.409   1_556 S
C678   C679    1.396   .     A
C678   Br724   1.921   .     S
C679   H705    1.080   .     S
C680   Br725   1.928   .     S
C680   C697    1.393   .     A
C681   C696    1.401   .     A
C681   C697    1.404   .     A
C681   H718    1.082   .     S
C682   C698    1.403   .     A
C682   C684    1.457   .     S
C683   C689    1.396   .     A
C683   H728    1.079   .     S
C683   C853    1.369   .     S
C684   O711    1.291   .     A
C684   O710    1.301   .     A
C685   C686    1.391   .     A
C685   H701    1.084   .     S
C686   C694    1.408   .     S
C686   C687    1.394   .     A
C687   H702    1.084   .     S
C688   Br719   1.925   .     S
C688   C689    1.407   .     A
C688   C855    1.376   .     S
C690   N707    1.365   .     A
C690   H720    1.082   .     S
C690   C747    1.418   .     S
C691   H721    1.074   .     S
C691   N706    1.367   .     A
C691   C802    1.418   1_455 S
C692   Br722   1.921   .     S
C692   N706    1.371   .     A
C692   C805    1.422   1_455 S
C693   N707    1.374   .     A
C693   Br723   1.917   .     S
C693   C748    1.422   .     S
C694   O712    1.285   .     A
C694   O713    1.285   .     A
C695   C697    1.458   .     S
C695   O715    1.296   .     A
C695   O714    1.297   .     A
C698   C699    1.387   .     A
C698   H726    1.082   .     S
C699   C196    1.389   1_556 S
C699   Br223   1.910   1_556 S
C700   H704    1.082   .     S
H703   C192    1.082   1_556 S
N706   Zn716   2.022   .     S
N707   Zn717   2.022   .     S
O708   Zn716   1.989   .     S
O709   Zn717   1.991   .     S
O710   Zn716   1.978   .     S
O711   Zn717   1.951   .     S
O712   Zn716   1.991   .     S
O713   Zn717   1.989   .     S
O714   Zn716   1.951   .     S
O715   Zn717   1.978   .     S
C729   C745    1.416   .     S
C729   O765    1.289   .     A
C729   O764    1.284   .     A
C730   C731    1.403   .     A
C730   C228    1.405   1_556 S
C730   C252    1.415   1_556 S
C731   C738    1.421   .     A
C731   C735    1.421   .     A
C732   C736    1.379   .     A
C733   C734    1.400   .     A
C733   C228    1.411   1_556 S
C733   C248    1.409   1_556 S
C734   C735    1.396   .     A
C734   Br780   1.921   .     S
C735   H761    1.080   .     S
C736   Br781   1.928   .     S
C736   C753    1.393   .     A
C737   C752    1.401   .     A
C737   C753    1.404   .     A
C737   H774    1.082   .     S
C738   C754    1.403   .     A
C738   C740    1.457   .     S
C739   C745    1.396   .     A
C739   H784    1.079   .     S
C739   C909    1.369   .     S
C740   O767    1.291   .     A
C740   O766    1.301   .     A
C741   C742    1.391   .     A
C741   H757    1.084   .     S
C742   C750    1.408   .     S
C742   C743    1.394   .     A
C743   H758    1.084   .     S
C744   Br775   1.925   .     S
C744   C745    1.407   .     A
C744   C911    1.376   .     S
C746   N763    1.365   .     A
C746   H776    1.082   .     S
C746   C803    1.418   .     S
C747   H777    1.074   .     S
C747   N762    1.367   .     A
C748   Br778   1.921   .     S
C748   N762    1.371   .     A
C749   N763    1.374   .     A
C749   Br779   1.917   .     S
C749   C804    1.422   .     S
C750   O768    1.285   .     A
C750   O769    1.285   .     A
C751   C753    1.458   .     S
C751   O771    1.296   .     A
C751   O770    1.297   .     A
C754   C755    1.387   .     A
C754   H782    1.082   .     S
C755   C252    1.389   1_556 S
C755   Br279   1.910   1_556 S
C756   H760    1.082   .     S
H759   C248    1.082   1_556 S
N762   Zn772   2.022   .     S
N763   Zn773   2.022   .     S
O764   Zn772   1.989   .     S
O765   Zn773   1.991   .     S
O766   Zn772   1.978   .     S
O767   Zn773   1.951   .     S
O768   Zn772   1.991   .     S
O769   Zn773   1.989   .     S
O770   Zn772   1.951   .     S
O771   Zn773   1.978   .     S
C785   C801    1.416   .     S
C785   O821    1.289   .     A
C785   O820    1.284   .     A
C786   C787    1.403   .     A
C786   C284    1.405   1_556 S
C786   C308    1.415   1_556 S
C787   C794    1.421   .     A
C787   C791    1.421   .     A
C788   C792    1.379   .     A
C789   C790    1.400   .     A
C789   C284    1.411   1_556 S
C789   C304    1.409   1_556 S
C790   C791    1.396   .     A
C790   Br836   1.921   .     S
C791   H817    1.080   .     S
C792   Br837   1.928   .     S
C792   C809    1.393   .     A
C793   C808    1.401   .     A
C793   C809    1.404   .     A
C793   H830    1.082   .     S
C794   C810    1.403   .     A
C794   C796    1.457   .     S
C795   C801    1.396   .     A
C795   H840    1.079   .     S
C795   C965    1.369   .     S
C796   O823    1.291   .     A
C796   O822    1.301   .     A
C797   C798    1.391   .     A
C797   H813    1.084   .     S
C798   C806    1.408   .     S
C798   C799    1.394   .     A
C799   H814    1.084   .     S
C800   Br831   1.925   .     S
C800   C801    1.407   .     A
C800   C967    1.376   .     S
C802   N819    1.365   .     A
C802   H832    1.082   .     S
C802   C691    1.418   1_655 S
C803   H833    1.074   .     S
C803   N818    1.367   .     A
C804   Br834   1.921   .     S
C804   N818    1.371   .     A
C805   N819    1.374   .     A
C805   Br835   1.917   .     S
C805   C692    1.422   1_655 S
C806   O824    1.285   .     A
C806   O825    1.285   .     A
C807   C809    1.458   .     S
C807   O827    1.296   .     A
C807   O826    1.297   .     A
C810   C811    1.387   .     A
C810   H838    1.082   .     S
C811   C308    1.389   1_556 S
C811   Br335   1.910   1_556 S
C812   H816    1.082   .     S
H815   C304    1.082   1_556 S
N818   Zn828   2.022   .     S
N819   Zn829   2.022   .     S
O820   Zn828   1.989   .     S
O821   Zn829   1.991   .     S
O822   Zn828   1.978   .     S
O823   Zn829   1.951   .     S
O824   Zn828   1.991   .     S
O825   Zn829   1.989   .     S
O826   Zn828   1.951   .     S
O827   Zn829   1.978   .     S
C841   C857    1.416   .     S
C841   O877    1.289   .     A
C841   O876    1.284   .     A
C842   C843    1.403   .     A
C842   C340    1.405   1_556 S
C842   C364    1.415   1_556 S
C843   C850    1.421   .     A
C843   C847    1.421   .     A
C844   C848    1.379   .     A
C845   C846    1.400   .     A
C845   C340    1.411   1_556 S
C845   C360    1.409   1_556 S
C846   C847    1.396   .     A
C846   Br892   1.921   .     S
C847   H873    1.080   .     S
C848   Br893   1.928   .     S
C848   C865    1.393   .     A
C849   C864    1.401   .     A
C849   C865    1.404   .     A
C849   H886    1.082   .     S
C850   C866    1.403   .     A
C850   C852    1.457   .     S
C851   C857    1.396   .     A
C851   H896    1.079   .     S
C851   C517    1.369   1_565 S
C852   O879    1.291   .     A
C852   O878    1.301   .     A
C853   C854    1.391   .     A
C853   H869    1.084   .     S
C854   C862    1.408   .     S
C854   C855    1.394   .     A
C855   H870    1.084   .     S
C856   Br887   1.925   .     S
C856   C857    1.407   .     A
C856   C519    1.376   1_565 S
C858   N875    1.365   .     A
C858   H888    1.082   .     S
C858   C915    1.418   .     S
C859   H889    1.074   .     S
C859   N874    1.367   .     A
C859   C970    1.418   1_455 S
C860   Br890   1.921   .     S
C860   N874    1.371   .     A
C860   C973    1.422   1_455 S
C861   N875    1.374   .     A
C861   Br891   1.917   .     S
C861   C916    1.422   .     S
C862   O880    1.285   .     A
C862   O881    1.285   .     A
C863   C865    1.458   .     S
C863   O883    1.296   .     A
C863   O882    1.297   .     A
C866   C867    1.387   .     A
C866   H894    1.082   .     S
C867   C364    1.389   1_556 S
C867   Br391   1.910   1_556 S
C868   H872    1.082   .     S
H871   C360    1.082   1_556 S
N874   Zn884   2.022   .     S
N875   Zn885   2.022   .     S
O876   Zn884   1.989   .     S
O877   Zn885   1.991   .     S
O878   Zn884   1.978   .     S
O879   Zn885   1.951   .     S
O880   Zn884   1.991   .     S
O881   Zn885   1.989   .     S
O882   Zn884   1.951   .     S
O883   Zn885   1.978   .     S
C897   C913    1.416   .     S
C897   O933    1.289   .     A
C897   O932    1.284   .     A
C898   C899    1.403   .     A
C898   C396    1.405   1_556 S
C898   C420    1.415   1_556 S
C899   C906    1.421   .     A
C899   C903    1.421   .     A
C900   C904    1.379   .     A
C901   C902    1.400   .     A
C901   C396    1.411   1_556 S
C901   C416    1.409   1_556 S
C902   C903    1.396   .     A
C902   Br948   1.921   .     S
C903   H929    1.080   .     S
C904   Br949   1.928   .     S
C904   C921    1.393   .     A
C905   C920    1.401   .     A
C905   C921    1.404   .     A
C905   H942    1.082   .     S
C906   C922    1.403   .     A
C906   C908    1.457   .     S
C907   C913    1.396   .     A
C907   H952    1.079   .     S
C907   C573    1.369   1_565 S
C908   O935    1.291   .     A
C908   O934    1.301   .     A
C909   C910    1.391   .     A
C909   H925    1.084   .     S
C910   C918    1.408   .     S
C910   C911    1.394   .     A
C911   H926    1.084   .     S
C912   Br943   1.925   .     S
C912   C913    1.407   .     A
C912   C575    1.376   1_565 S
C914   N931    1.365   .     A
C914   H944    1.082   .     S
C914   C971    1.418   .     S
C915   H945    1.074   .     S
C915   N930    1.367   .     A
C916   Br946   1.921   .     S
C916   N930    1.371   .     A
C917   N931    1.374   .     A
C917   Br947   1.917   .     S
C917   C972    1.422   .     S
C918   O936    1.285   .     A
C918   O937    1.285   .     A
C919   C921    1.458   .     S
C919   O939    1.296   .     A
C919   O938    1.297   .     A
C922   C923    1.387   .     A
C922   H950    1.082   .     S
C923   C420    1.389   1_556 S
C923   Br447   1.910   1_556 S
C924   H928    1.082   .     S
H927   C416    1.082   1_556 S
N930   Zn940   2.022   .     S
N931   Zn941   2.022   .     S
O932   Zn940   1.989   .     S
O933   Zn941   1.991   .     S
O934   Zn940   1.978   .     S
O935   Zn941   1.951   .     S
O936   Zn940   1.991   .     S
O937   Zn941   1.989   .     S
O938   Zn940   1.951   .     S
O939   Zn941   1.978   .     S
C953   C969    1.416   .     S
C953   O989    1.289   .     A
C953   O988    1.284   .     A
C954   C955    1.403   .     A
C954   C452    1.405   1_556 S
C954   C476    1.415   1_556 S
C955   C962    1.421   .     A
C955   C959    1.421   .     A
C956   C960    1.379   .     A
C957   C958    1.400   .     A
C957   C452    1.411   1_556 S
C957   C472    1.409   1_556 S
C958   C959    1.396   .     A
C958   Br1004  1.921   .     S
C959   H985    1.080   .     S
C960   Br1005  1.928   .     S
C960   C977    1.393   .     A
C961   C976    1.401   .     A
C961   C977    1.404   .     A
C961   H998    1.082   .     S
C962   C978    1.403   .     A
C962   C964    1.457   .     S
C963   C969    1.396   .     A
C963   H1008   1.079   .     S
C963   C629    1.369   1_565 S
C964   O991    1.291   .     A
C964   O990    1.301   .     A
C965   C966    1.391   .     A
C965   H981    1.084   .     S
C966   C974    1.408   .     S
C966   C967    1.394   .     A
C967   H982    1.084   .     S
C968   Br999   1.925   .     S
C968   C969    1.407   .     A
C968   C631    1.376   1_565 S
C970   N987    1.365   .     A
C970   H1000   1.082   .     S
C970   C859    1.418   1_655 S
C971   H1001   1.074   .     S
C971   N986    1.367   .     A
C972   Br1002  1.921   .     S
C972   N986    1.371   .     A
C973   N987    1.374   .     A
C973   Br1003  1.917   .     S
C973   C860    1.422   1_655 S
C974   O992    1.285   .     A
C974   O993    1.285   .     A
C975   C977    1.458   .     S
C975   O995    1.296   .     A
C975   O994    1.297   .     A
C978   C979    1.387   .     A
C978   H1006   1.082   .     S
C979   C476    1.389   1_556 S
C979   Br503   1.910   1_556 S
C980   H984    1.082   .     S
H983   C472    1.082   1_556 S
N986   Zn996   2.022   .     S
N987   Zn997   2.022   .     S
O988   Zn996   1.989   .     S
O989   Zn997   1.991   .     S
O990   Zn996   1.978   .     S
O991   Zn997   1.951   .     S
O992   Zn996   1.991   .     S
O993   Zn997   1.989   .     S
O994   Zn996   1.951   .     S
O995   Zn997   1.978   .     S
