data_str_m3_o1_o10_pcu_sym.96
_audit_creation_date              2020-01-03
_audit_creation_method            'Materials Studio'
_symmetry_space_group_name_H-M    'P1'
_symmetry_Int_Tables_number       1
_symmetry_cell_setting            triclinic
loop_
_symmetry_equiv_pos_as_xyz
  x,y,z
_cell_length_a                    26.0973
_cell_length_b                    31.7765
_cell_length_c                    29.6716
_cell_angle_alpha                 91.9895
_cell_angle_beta                  98.9115
_cell_angle_gamma                 90.2963
loop_
_atom_site_label
_atom_site_type_symbol
_atom_site_fract_x
_atom_site_fract_y
_atom_site_fract_z
_atom_site_U_iso_or_equiv
_atom_site_adp_type
_atom_site_occupancy
C1     C     0.16717   0.08685   0.16600   0.00000  Uiso   1.00
C2     C     0.16616   0.24648   0.16733   0.00000  Uiso   1.00
C3     C     0.06716   0.16627   0.15467   0.00000  Uiso   1.00
C4     C     0.26618   0.16706   0.17866   0.00000  Uiso   1.00
C5     C     0.01225   0.16962   0.14843   0.00000  Uiso   1.00
C6     C     0.32108   0.16371   0.18491   0.00000  Uiso   1.00
C7     C     0.21257   0.02168   0.16119   0.00000  Uiso   1.00
C8     C     0.12075   0.31166   0.17215   0.00000  Uiso   1.00
C9     C     0.21372   0.31158   0.16499   0.00000  Uiso   1.00
C10    C     0.11960   0.02176   0.16835   0.00000  Uiso   1.00
C11    C     0.16722   0.29072   0.16899   0.00000  Uiso   1.00
C12    C     0.16611   0.04262   0.16434   0.00000  Uiso   1.00
C13    C     0.19130   0.19781   0.02895   0.00000  Uiso   1.00
C14    C     0.14204   0.13552   0.30439   0.00000  Uiso   1.00
C15    C     0.19182   0.19799   0.31456   0.00000  Uiso   1.00
C16    C     0.14151   0.13535   0.01877   0.00000  Uiso   1.00
H17    H     0.21092   0.22251   0.05127   0.00000  Uiso   1.00
H18    H     0.12241   0.11082   0.28206   0.00000  Uiso   1.00
N19    N     0.16665   0.16666   0.28573   0.00000  Uiso   1.00
N20    N     0.16668   0.16668   0.04760   0.00000  Uiso   1.00
O21    O     0.16666   0.10558   0.20487   0.00000  Uiso   1.00
O22    O     0.16667   0.22775   0.12846   0.00000  Uiso   1.00
O23    O     0.16666   0.10559   0.12843   0.00000  Uiso   1.00
O24    O     0.16667   0.22774   0.20490   0.00000  Uiso   1.00
O25    O     0.09058   0.16666   0.19595   0.00000  Uiso   1.00
O26    O     0.24275   0.16667   0.13739   0.00000  Uiso   1.00
O27    O     0.09058   0.16667   0.11950   0.00000  Uiso   1.00
O28    O     0.24275   0.16666   0.21383   0.00000  Uiso   1.00
Zn29   Zn    0.16667   0.16666   0.21771   0.00000  Uiso   1.00
Zn30   Zn    0.16667   0.16667   0.11563   0.00000  Uiso   1.00
O31    O     0.32066   0.18699   0.10840   0.00000  Uiso   1.00
C32    C     0.32289   0.15940   0.07025   0.00000  Uiso   1.00
H33    H     0.32970   0.12587   0.07903   0.00000  Uiso   1.00
H34    H     0.01991   0.17046   0.05090   0.00000  Uiso   1.00
H35    H     0.28543   0.16035   0.04705   0.00000  Uiso   1.00
O36    O     0.01268   0.14634   0.22493   0.00000  Uiso   1.00
C37    C     0.01044   0.17392   0.26308   0.00000  Uiso   1.00
H38    H     0.31343   0.16285   0.28243   0.00000  Uiso   1.00
H39    H     0.00362   0.20745   0.25432   0.00000  Uiso   1.00
H40    H     0.04790   0.17297   0.28628   0.00000  Uiso   1.00
O41    O     0.25727   0.04434   0.15793   0.00000  Uiso   1.00
C42    C     0.26352   0.04502   0.11155   0.00000  Uiso   1.00
H43    H     0.29894   0.06352   0.10898   0.00000  Uiso   1.00
H44    H     0.23045   0.06053   0.09060   0.00000  Uiso   1.00
H45    H     0.26872   0.01284   0.09711   0.00000  Uiso   1.00
O46    O     0.07605   0.28899   0.17539   0.00000  Uiso   1.00
C47    C     0.06981   0.28830   0.22177   0.00000  Uiso   1.00
H48    H     0.06459   0.32049   0.23622   0.00000  Uiso   1.00
H49    H     0.10289   0.27279   0.24272   0.00000  Uiso   1.00
H50    H     0.03438   0.26979   0.22434   0.00000  Uiso   1.00
C51    C     0.26379   0.28748   0.16582   0.00000  Uiso   1.00
H52    H     0.26138   0.26644   0.13489   0.00000  Uiso   1.00
H53    H     0.29802   0.30845   0.16708   0.00000  Uiso   1.00
H54    H     0.27052   0.26816   0.19661   0.00000  Uiso   1.00
C55    C     0.06954   0.04585   0.16752   0.00000  Uiso   1.00
H56    H     0.07195   0.06690   0.19844   0.00000  Uiso   1.00
H57    H     0.06280   0.06517   0.13671   0.00000  Uiso   1.00
H58    H     0.03531   0.02488   0.16626   0.00000  Uiso   1.00
C59    C     0.21990   0.23366   0.29679   0.00000  Uiso   1.00
H60    H     0.24359   0.22224   0.27127   0.00000  Uiso   1.00
H61    H     0.19162   0.25730   0.28215   0.00000  Uiso   1.00
H62    H     0.24695   0.24998   0.32459   0.00000  Uiso   1.00
C63    C     0.11344   0.09968   0.03655   0.00000  Uiso   1.00
H64    H     0.14173   0.07602   0.05116   0.00000  Uiso   1.00
H65    H     0.08978   0.11109   0.06210   0.00000  Uiso   1.00
H66    H     0.08635   0.08337   0.00875   0.00000  Uiso   1.00
C67    C     0.50051   0.08685   0.16600   0.00000  Uiso   1.00
C68    C     0.49949   0.24648   0.16733   0.00000  Uiso   1.00
C69    C     0.40049   0.16627   0.15467   0.00000  Uiso   1.00
C70    C     0.59951   0.16706   0.17866   0.00000  Uiso   1.00
C71    C     0.34558   0.16962   0.14843   0.00000  Uiso   1.00
C72    C     0.65442   0.16371   0.18491   0.00000  Uiso   1.00
C73    C     0.54591   0.02168   0.16119   0.00000  Uiso   1.00
C74    C     0.45409   0.31166   0.17215   0.00000  Uiso   1.00
C75    C     0.54706   0.31158   0.16499   0.00000  Uiso   1.00
C76    C     0.45294   0.02176   0.16835   0.00000  Uiso   1.00
C77    C     0.50055   0.29072   0.16899   0.00000  Uiso   1.00
C78    C     0.49945   0.04262   0.16434   0.00000  Uiso   1.00
C79    C     0.52463   0.19781   0.02895   0.00000  Uiso   1.00
C80    C     0.47537   0.13552   0.30439   0.00000  Uiso   1.00
C81    C     0.52516   0.19799   0.31456   0.00000  Uiso   1.00
C82    C     0.47484   0.13535   0.01877   0.00000  Uiso   1.00
H83    H     0.54426   0.22251   0.05127   0.00000  Uiso   1.00
H84    H     0.45575   0.11082   0.28206   0.00000  Uiso   1.00
N85    N     0.49999   0.16666   0.28573   0.00000  Uiso   1.00
N86    N     0.50001   0.16668   0.04760   0.00000  Uiso   1.00
O87    O     0.50000   0.10558   0.20487   0.00000  Uiso   1.00
O88    O     0.50000   0.22775   0.12846   0.00000  Uiso   1.00
O89    O     0.50000   0.10559   0.12843   0.00000  Uiso   1.00
O90    O     0.50000   0.22774   0.20490   0.00000  Uiso   1.00
O91    O     0.42392   0.16666   0.19595   0.00000  Uiso   1.00
O92    O     0.57608   0.16667   0.13739   0.00000  Uiso   1.00
O93    O     0.42392   0.16667   0.11950   0.00000  Uiso   1.00
O94    O     0.57608   0.16666   0.21383   0.00000  Uiso   1.00
Zn95   Zn    0.50000   0.16666   0.21771   0.00000  Uiso   1.00
Zn96   Zn    0.50000   0.16667   0.11563   0.00000  Uiso   1.00
O97    O     0.65399   0.18699   0.10840   0.00000  Uiso   1.00
C98    C     0.65623   0.15940   0.07025   0.00000  Uiso   1.00
H99    H     0.66304   0.12587   0.07903   0.00000  Uiso   1.00
H100   H     0.35324   0.17046   0.05090   0.00000  Uiso   1.00
H101   H     0.61876   0.16035   0.04705   0.00000  Uiso   1.00
O102   O     0.34601   0.14634   0.22493   0.00000  Uiso   1.00
C103   C     0.34377   0.17392   0.26308   0.00000  Uiso   1.00
H104   H     0.64676   0.16285   0.28243   0.00000  Uiso   1.00
H105   H     0.33695   0.20745   0.25432   0.00000  Uiso   1.00
H106   H     0.38124   0.17297   0.28628   0.00000  Uiso   1.00
O107   O     0.59061   0.04434   0.15793   0.00000  Uiso   1.00
C108   C     0.59685   0.04502   0.11155   0.00000  Uiso   1.00
H109   H     0.63227   0.06352   0.10898   0.00000  Uiso   1.00
H110   H     0.56378   0.06053   0.09060   0.00000  Uiso   1.00
H111   H     0.60205   0.01284   0.09711   0.00000  Uiso   1.00
O112   O     0.40939   0.28899   0.17539   0.00000  Uiso   1.00
C113   C     0.40314   0.28830   0.22177   0.00000  Uiso   1.00
H114   H     0.39792   0.32049   0.23622   0.00000  Uiso   1.00
H115   H     0.43622   0.27279   0.24272   0.00000  Uiso   1.00
H116   H     0.36771   0.26979   0.22434   0.00000  Uiso   1.00
C117   C     0.59712   0.28748   0.16582   0.00000  Uiso   1.00
H118   H     0.59472   0.26644   0.13489   0.00000  Uiso   1.00
H119   H     0.63135   0.30845   0.16708   0.00000  Uiso   1.00
H120   H     0.60386   0.26816   0.19661   0.00000  Uiso   1.00
C121   C     0.40287   0.04585   0.16752   0.00000  Uiso   1.00
H122   H     0.40528   0.06690   0.19844   0.00000  Uiso   1.00
H123   H     0.39614   0.06517   0.13671   0.00000  Uiso   1.00
H124   H     0.36865   0.02488   0.16626   0.00000  Uiso   1.00
C125   C     0.55323   0.23366   0.29679   0.00000  Uiso   1.00
H126   H     0.57692   0.22224   0.27127   0.00000  Uiso   1.00
H127   H     0.52495   0.25730   0.28215   0.00000  Uiso   1.00
H128   H     0.58029   0.24998   0.32459   0.00000  Uiso   1.00
C129   C     0.44678   0.09968   0.03655   0.00000  Uiso   1.00
H130   H     0.47506   0.07602   0.05116   0.00000  Uiso   1.00
H131   H     0.42312   0.11109   0.06210   0.00000  Uiso   1.00
H132   H     0.41969   0.08337   0.00875   0.00000  Uiso   1.00
C133   C     0.83384   0.08685   0.16600   0.00000  Uiso   1.00
C134   C     0.83282   0.24648   0.16733   0.00000  Uiso   1.00
C135   C     0.73382   0.16627   0.15467   0.00000  Uiso   1.00
C136   C     0.93284   0.16706   0.17866   0.00000  Uiso   1.00
C137   C     0.67892   0.16962   0.14843   0.00000  Uiso   1.00
C138   C     0.98775   0.16371   0.18491   0.00000  Uiso   1.00
C139   C     0.87924   0.02168   0.16119   0.00000  Uiso   1.00
C140   C     0.78742   0.31166   0.17215   0.00000  Uiso   1.00
C141   C     0.88039   0.31158   0.16499   0.00000  Uiso   1.00
C142   C     0.78627   0.02176   0.16835   0.00000  Uiso   1.00
C143   C     0.83388   0.29072   0.16899   0.00000  Uiso   1.00
C144   C     0.83278   0.04262   0.16434   0.00000  Uiso   1.00
C145   C     0.85796   0.19781   0.02895   0.00000  Uiso   1.00
C146   C     0.80870   0.13552   0.30439   0.00000  Uiso   1.00
C147   C     0.85849   0.19799   0.31456   0.00000  Uiso   1.00
C148   C     0.80818   0.13535   0.01877   0.00000  Uiso   1.00
H149   H     0.87759   0.22251   0.05127   0.00000  Uiso   1.00
H150   H     0.78908   0.11082   0.28206   0.00000  Uiso   1.00
N151   N     0.83332   0.16666   0.28573   0.00000  Uiso   1.00
N152   N     0.83335   0.16668   0.04760   0.00000  Uiso   1.00
O153   O     0.83333   0.10558   0.20487   0.00000  Uiso   1.00
O154   O     0.83334   0.22775   0.12846   0.00000  Uiso   1.00
O155   O     0.83333   0.10559   0.12843   0.00000  Uiso   1.00
O156   O     0.83334   0.22774   0.20490   0.00000  Uiso   1.00
O157   O     0.75725   0.16666   0.19595   0.00000  Uiso   1.00
O158   O     0.90942   0.16667   0.13739   0.00000  Uiso   1.00
O159   O     0.75725   0.16667   0.11950   0.00000  Uiso   1.00
O160   O     0.90942   0.16666   0.21383   0.00000  Uiso   1.00
Zn161  Zn    0.83333   0.16666   0.21771   0.00000  Uiso   1.00
Zn162  Zn    0.83333   0.16667   0.11563   0.00000  Uiso   1.00
O163   O     0.98732   0.18699   0.10840   0.00000  Uiso   1.00
C164   C     0.98956   0.15940   0.07025   0.00000  Uiso   1.00
H165   H     0.99637   0.12587   0.07903   0.00000  Uiso   1.00
H166   H     0.68657   0.17046   0.05090   0.00000  Uiso   1.00
H167   H     0.95210   0.16035   0.04705   0.00000  Uiso   1.00
O168   O     0.67935   0.14634   0.22493   0.00000  Uiso   1.00
C169   C     0.67710   0.17392   0.26308   0.00000  Uiso   1.00
H170   H     0.98009   0.16285   0.28243   0.00000  Uiso   1.00
H171   H     0.67029   0.20745   0.25432   0.00000  Uiso   1.00
H172   H     0.71457   0.17297   0.28628   0.00000  Uiso   1.00
O173   O     0.92394   0.04434   0.15793   0.00000  Uiso   1.00
C174   C     0.93018   0.04502   0.11155   0.00000  Uiso   1.00
H175   H     0.96560   0.06352   0.10898   0.00000  Uiso   1.00
H176   H     0.89712   0.06053   0.09060   0.00000  Uiso   1.00
H177   H     0.93539   0.01284   0.09711   0.00000  Uiso   1.00
O178   O     0.74272   0.28899   0.17539   0.00000  Uiso   1.00
C179   C     0.73648   0.28830   0.22177   0.00000  Uiso   1.00
H180   H     0.73126   0.32049   0.23622   0.00000  Uiso   1.00
H181   H     0.76956   0.27279   0.24272   0.00000  Uiso   1.00
H182   H     0.70105   0.26979   0.22434   0.00000  Uiso   1.00
C183   C     0.93046   0.28748   0.16582   0.00000  Uiso   1.00
H184   H     0.92805   0.26644   0.13489   0.00000  Uiso   1.00
H185   H     0.96468   0.30845   0.16708   0.00000  Uiso   1.00
H186   H     0.93719   0.26816   0.19661   0.00000  Uiso   1.00
C187   C     0.73620   0.04585   0.16752   0.00000  Uiso   1.00
H188   H     0.73861   0.06690   0.19844   0.00000  Uiso   1.00
H189   H     0.72947   0.06517   0.13671   0.00000  Uiso   1.00
H190   H     0.70198   0.02488   0.16626   0.00000  Uiso   1.00
C191   C     0.88656   0.23366   0.29679   0.00000  Uiso   1.00
H192   H     0.91026   0.22224   0.27127   0.00000  Uiso   1.00
H193   H     0.85828   0.25730   0.28215   0.00000  Uiso   1.00
H194   H     0.91362   0.24998   0.32459   0.00000  Uiso   1.00
C195   C     0.78011   0.09968   0.03655   0.00000  Uiso   1.00
H196   H     0.80839   0.07602   0.05116   0.00000  Uiso   1.00
H197   H     0.75645   0.11109   0.06210   0.00000  Uiso   1.00
H198   H     0.75302   0.08337   0.00875   0.00000  Uiso   1.00
C199   C     0.16717   0.42019   0.16600   0.00000  Uiso   1.00
C200   C     0.16616   0.57982   0.16733   0.00000  Uiso   1.00
C201   C     0.06716   0.49961   0.15467   0.00000  Uiso   1.00
C202   C     0.26618   0.50039   0.17866   0.00000  Uiso   1.00
C203   C     0.01225   0.50295   0.14843   0.00000  Uiso   1.00
C204   C     0.32108   0.49704   0.18491   0.00000  Uiso   1.00
C205   C     0.21257   0.35501   0.16119   0.00000  Uiso   1.00
C206   C     0.12075   0.64499   0.17215   0.00000  Uiso   1.00
C207   C     0.21372   0.64491   0.16499   0.00000  Uiso   1.00
C208   C     0.11960   0.35509   0.16835   0.00000  Uiso   1.00
C209   C     0.16722   0.62405   0.16899   0.00000  Uiso   1.00
C210   C     0.16611   0.37595   0.16434   0.00000  Uiso   1.00
C211   C     0.19130   0.53115   0.02895   0.00000  Uiso   1.00
C212   C     0.14204   0.46885   0.30439   0.00000  Uiso   1.00
C213   C     0.19182   0.53132   0.31456   0.00000  Uiso   1.00
C214   C     0.14151   0.46868   0.01877   0.00000  Uiso   1.00
H215   H     0.21092   0.55585   0.05127   0.00000  Uiso   1.00
H216   H     0.12241   0.44415   0.28206   0.00000  Uiso   1.00
N217   N     0.16665   0.49999   0.28573   0.00000  Uiso   1.00
N218   N     0.16668   0.50001   0.04760   0.00000  Uiso   1.00
O219   O     0.16666   0.43892   0.20487   0.00000  Uiso   1.00
O220   O     0.16667   0.56108   0.12846   0.00000  Uiso   1.00
O221   O     0.16666   0.43893   0.12843   0.00000  Uiso   1.00
O222   O     0.16667   0.56107   0.20490   0.00000  Uiso   1.00
O223   O     0.09058   0.50000   0.19595   0.00000  Uiso   1.00
O224   O     0.24275   0.50000   0.13739   0.00000  Uiso   1.00
O225   O     0.09058   0.50000   0.11950   0.00000  Uiso   1.00
O226   O     0.24275   0.50000   0.21383   0.00000  Uiso   1.00
Zn227  Zn    0.16667   0.49999   0.21771   0.00000  Uiso   1.00
Zn228  Zn    0.16667   0.50001   0.11563   0.00000  Uiso   1.00
O229   O     0.32066   0.52032   0.10840   0.00000  Uiso   1.00
C230   C     0.32289   0.49273   0.07025   0.00000  Uiso   1.00
H231   H     0.32970   0.45920   0.07903   0.00000  Uiso   1.00
H232   H     0.01991   0.50379   0.05090   0.00000  Uiso   1.00
H233   H     0.28543   0.49368   0.04705   0.00000  Uiso   1.00
O234   O     0.01268   0.47967   0.22493   0.00000  Uiso   1.00
C235   C     0.01044   0.50725   0.26308   0.00000  Uiso   1.00
H236   H     0.31343   0.49619   0.28243   0.00000  Uiso   1.00
H237   H     0.00362   0.54078   0.25432   0.00000  Uiso   1.00
H238   H     0.04790   0.50630   0.28628   0.00000  Uiso   1.00
O239   O     0.25727   0.37768   0.15793   0.00000  Uiso   1.00
C240   C     0.26352   0.37835   0.11155   0.00000  Uiso   1.00
H241   H     0.29894   0.39685   0.10898   0.00000  Uiso   1.00
H242   H     0.23045   0.39387   0.09060   0.00000  Uiso   1.00
H243   H     0.26872   0.34617   0.09711   0.00000  Uiso   1.00
O244   O     0.07605   0.62232   0.17539   0.00000  Uiso   1.00
C245   C     0.06981   0.62164   0.22177   0.00000  Uiso   1.00
H246   H     0.06459   0.65383   0.23622   0.00000  Uiso   1.00
H247   H     0.10289   0.60612   0.24272   0.00000  Uiso   1.00
H248   H     0.03438   0.60312   0.22434   0.00000  Uiso   1.00
C249   C     0.26379   0.62082   0.16582   0.00000  Uiso   1.00
H250   H     0.26138   0.59977   0.13489   0.00000  Uiso   1.00
H251   H     0.29802   0.64179   0.16708   0.00000  Uiso   1.00
H252   H     0.27052   0.60149   0.19661   0.00000  Uiso   1.00
C253   C     0.06954   0.37919   0.16752   0.00000  Uiso   1.00
H254   H     0.07195   0.40024   0.19844   0.00000  Uiso   1.00
H255   H     0.06280   0.39851   0.13671   0.00000  Uiso   1.00
H256   H     0.03531   0.35822   0.16626   0.00000  Uiso   1.00
C257   C     0.21990   0.56699   0.29679   0.00000  Uiso   1.00
H258   H     0.24359   0.55557   0.27127   0.00000  Uiso   1.00
H259   H     0.19162   0.59063   0.28215   0.00000  Uiso   1.00
H260   H     0.24695   0.58331   0.32459   0.00000  Uiso   1.00
C261   C     0.11344   0.43301   0.03655   0.00000  Uiso   1.00
H262   H     0.14173   0.40935   0.05116   0.00000  Uiso   1.00
H263   H     0.08978   0.44442   0.06210   0.00000  Uiso   1.00
H264   H     0.08635   0.41670   0.00875   0.00000  Uiso   1.00
C265   C     0.50051   0.42019   0.16600   0.00000  Uiso   1.00
C266   C     0.49949   0.57982   0.16733   0.00000  Uiso   1.00
C267   C     0.40049   0.49961   0.15467   0.00000  Uiso   1.00
C268   C     0.59951   0.50039   0.17866   0.00000  Uiso   1.00
C269   C     0.34558   0.50295   0.14843   0.00000  Uiso   1.00
C270   C     0.65442   0.49704   0.18491   0.00000  Uiso   1.00
C271   C     0.54591   0.35501   0.16119   0.00000  Uiso   1.00
C272   C     0.45409   0.64499   0.17215   0.00000  Uiso   1.00
C273   C     0.54706   0.64491   0.16499   0.00000  Uiso   1.00
C274   C     0.45294   0.35509   0.16835   0.00000  Uiso   1.00
C275   C     0.50055   0.62405   0.16899   0.00000  Uiso   1.00
C276   C     0.49945   0.37595   0.16434   0.00000  Uiso   1.00
C277   C     0.52463   0.53115   0.02895   0.00000  Uiso   1.00
C278   C     0.47537   0.46885   0.30439   0.00000  Uiso   1.00
C279   C     0.52516   0.53132   0.31456   0.00000  Uiso   1.00
C280   C     0.47484   0.46868   0.01877   0.00000  Uiso   1.00
H281   H     0.54426   0.55585   0.05127   0.00000  Uiso   1.00
H282   H     0.45575   0.44415   0.28206   0.00000  Uiso   1.00
N283   N     0.49999   0.49999   0.28573   0.00000  Uiso   1.00
N284   N     0.50001   0.50001   0.04760   0.00000  Uiso   1.00
O285   O     0.50000   0.43892   0.20487   0.00000  Uiso   1.00
O286   O     0.50000   0.56108   0.12846   0.00000  Uiso   1.00
O287   O     0.50000   0.43893   0.12843   0.00000  Uiso   1.00
O288   O     0.50000   0.56107   0.20490   0.00000  Uiso   1.00
O289   O     0.42392   0.50000   0.19595   0.00000  Uiso   1.00
O290   O     0.57608   0.50000   0.13739   0.00000  Uiso   1.00
O291   O     0.42392   0.50000   0.11950   0.00000  Uiso   1.00
O292   O     0.57608   0.50000   0.21383   0.00000  Uiso   1.00
Zn293  Zn    0.50000   0.49999   0.21771   0.00000  Uiso   1.00
Zn294  Zn    0.50000   0.50001   0.11563   0.00000  Uiso   1.00
O295   O     0.65399   0.52032   0.10840   0.00000  Uiso   1.00
C296   C     0.65623   0.49273   0.07025   0.00000  Uiso   1.00
H297   H     0.66304   0.45920   0.07903   0.00000  Uiso   1.00
H298   H     0.35324   0.50379   0.05090   0.00000  Uiso   1.00
H299   H     0.61876   0.49368   0.04705   0.00000  Uiso   1.00
O300   O     0.34601   0.47967   0.22493   0.00000  Uiso   1.00
C301   C     0.34377   0.50725   0.26308   0.00000  Uiso   1.00
H302   H     0.64676   0.49619   0.28243   0.00000  Uiso   1.00
H303   H     0.33695   0.54078   0.25432   0.00000  Uiso   1.00
H304   H     0.38124   0.50630   0.28628   0.00000  Uiso   1.00
O305   O     0.59061   0.37768   0.15793   0.00000  Uiso   1.00
C306   C     0.59685   0.37835   0.11155   0.00000  Uiso   1.00
H307   H     0.63227   0.39685   0.10898   0.00000  Uiso   1.00
H308   H     0.56378   0.39387   0.09060   0.00000  Uiso   1.00
H309   H     0.60205   0.34617   0.09711   0.00000  Uiso   1.00
O310   O     0.40939   0.62232   0.17539   0.00000  Uiso   1.00
C311   C     0.40314   0.62164   0.22177   0.00000  Uiso   1.00
H312   H     0.39792   0.65383   0.23622   0.00000  Uiso   1.00
H313   H     0.43622   0.60612   0.24272   0.00000  Uiso   1.00
H314   H     0.36771   0.60312   0.22434   0.00000  Uiso   1.00
C315   C     0.59712   0.62082   0.16582   0.00000  Uiso   1.00
H316   H     0.59472   0.59977   0.13489   0.00000  Uiso   1.00
H317   H     0.63135   0.64179   0.16708   0.00000  Uiso   1.00
H318   H     0.60386   0.60149   0.19661   0.00000  Uiso   1.00
C319   C     0.40287   0.37919   0.16752   0.00000  Uiso   1.00
H320   H     0.40528   0.40024   0.19844   0.00000  Uiso   1.00
H321   H     0.39614   0.39851   0.13671   0.00000  Uiso   1.00
H322   H     0.36865   0.35822   0.16626   0.00000  Uiso   1.00
C323   C     0.55323   0.56699   0.29679   0.00000  Uiso   1.00
H324   H     0.57692   0.55557   0.27127   0.00000  Uiso   1.00
H325   H     0.52495   0.59063   0.28215   0.00000  Uiso   1.00
H326   H     0.58029   0.58331   0.32459   0.00000  Uiso   1.00
C327   C     0.44678   0.43301   0.03655   0.00000  Uiso   1.00
H328   H     0.47506   0.40935   0.05116   0.00000  Uiso   1.00
H329   H     0.42312   0.44442   0.06210   0.00000  Uiso   1.00
H330   H     0.41969   0.41670   0.00875   0.00000  Uiso   1.00
C331   C     0.83384   0.42019   0.16600   0.00000  Uiso   1.00
C332   C     0.83282   0.57982   0.16733   0.00000  Uiso   1.00
C333   C     0.73382   0.49961   0.15467   0.00000  Uiso   1.00
C334   C     0.93284   0.50039   0.17866   0.00000  Uiso   1.00
C335   C     0.67892   0.50295   0.14843   0.00000  Uiso   1.00
C336   C     0.98775   0.49704   0.18491   0.00000  Uiso   1.00
C337   C     0.87924   0.35501   0.16119   0.00000  Uiso   1.00
C338   C     0.78742   0.64499   0.17215   0.00000  Uiso   1.00
C339   C     0.88039   0.64491   0.16499   0.00000  Uiso   1.00
C340   C     0.78627   0.35509   0.16835   0.00000  Uiso   1.00
C341   C     0.83388   0.62405   0.16899   0.00000  Uiso   1.00
C342   C     0.83278   0.37595   0.16434   0.00000  Uiso   1.00
C343   C     0.85796   0.53115   0.02895   0.00000  Uiso   1.00
C344   C     0.80870   0.46885   0.30439   0.00000  Uiso   1.00
C345   C     0.85849   0.53132   0.31456   0.00000  Uiso   1.00
C346   C     0.80818   0.46868   0.01877   0.00000  Uiso   1.00
H347   H     0.87759   0.55585   0.05127   0.00000  Uiso   1.00
H348   H     0.78908   0.44415   0.28206   0.00000  Uiso   1.00
N349   N     0.83332   0.49999   0.28573   0.00000  Uiso   1.00
N350   N     0.83335   0.50001   0.04760   0.00000  Uiso   1.00
O351   O     0.83333   0.43892   0.20487   0.00000  Uiso   1.00
O352   O     0.83334   0.56108   0.12846   0.00000  Uiso   1.00
O353   O     0.83333   0.43893   0.12843   0.00000  Uiso   1.00
O354   O     0.83334   0.56107   0.20490   0.00000  Uiso   1.00
O355   O     0.75725   0.50000   0.19595   0.00000  Uiso   1.00
O356   O     0.90942   0.50000   0.13739   0.00000  Uiso   1.00
O357   O     0.75725   0.50000   0.11950   0.00000  Uiso   1.00
O358   O     0.90942   0.50000   0.21383   0.00000  Uiso   1.00
Zn359  Zn    0.83333   0.49999   0.21771   0.00000  Uiso   1.00
Zn360  Zn    0.83333   0.50001   0.11563   0.00000  Uiso   1.00
O361   O     0.98732   0.52032   0.10840   0.00000  Uiso   1.00
C362   C     0.98956   0.49273   0.07025   0.00000  Uiso   1.00
H363   H     0.99637   0.45920   0.07903   0.00000  Uiso   1.00
H364   H     0.68657   0.50379   0.05090   0.00000  Uiso   1.00
H365   H     0.95210   0.49368   0.04705   0.00000  Uiso   1.00
O366   O     0.67935   0.47967   0.22493   0.00000  Uiso   1.00
C367   C     0.67710   0.50725   0.26308   0.00000  Uiso   1.00
H368   H     0.98009   0.49619   0.28243   0.00000  Uiso   1.00
H369   H     0.67029   0.54078   0.25432   0.00000  Uiso   1.00
H370   H     0.71457   0.50630   0.28628   0.00000  Uiso   1.00
O371   O     0.92394   0.37768   0.15793   0.00000  Uiso   1.00
C372   C     0.93018   0.37835   0.11155   0.00000  Uiso   1.00
H373   H     0.96560   0.39685   0.10898   0.00000  Uiso   1.00
H374   H     0.89712   0.39387   0.09060   0.00000  Uiso   1.00
H375   H     0.93539   0.34617   0.09711   0.00000  Uiso   1.00
O376   O     0.74272   0.62232   0.17539   0.00000  Uiso   1.00
C377   C     0.73648   0.62164   0.22177   0.00000  Uiso   1.00
H378   H     0.73126   0.65383   0.23622   0.00000  Uiso   1.00
H379   H     0.76956   0.60612   0.24272   0.00000  Uiso   1.00
H380   H     0.70105   0.60312   0.22434   0.00000  Uiso   1.00
C381   C     0.93046   0.62082   0.16582   0.00000  Uiso   1.00
H382   H     0.92805   0.59977   0.13489   0.00000  Uiso   1.00
H383   H     0.96468   0.64179   0.16708   0.00000  Uiso   1.00
H384   H     0.93719   0.60149   0.19661   0.00000  Uiso   1.00
C385   C     0.73620   0.37919   0.16752   0.00000  Uiso   1.00
H386   H     0.73861   0.40024   0.19844   0.00000  Uiso   1.00
H387   H     0.72947   0.39851   0.13671   0.00000  Uiso   1.00
H388   H     0.70198   0.35822   0.16626   0.00000  Uiso   1.00
C389   C     0.88656   0.56699   0.29679   0.00000  Uiso   1.00
H390   H     0.91026   0.55557   0.27127   0.00000  Uiso   1.00
H391   H     0.85828   0.59063   0.28215   0.00000  Uiso   1.00
H392   H     0.91362   0.58331   0.32459   0.00000  Uiso   1.00
C393   C     0.78011   0.43301   0.03655   0.00000  Uiso   1.00
H394   H     0.80839   0.40935   0.05116   0.00000  Uiso   1.00
H395   H     0.75645   0.44442   0.06210   0.00000  Uiso   1.00
H396   H     0.75302   0.41670   0.00875   0.00000  Uiso   1.00
C397   C     0.16717   0.75352   0.16600   0.00000  Uiso   1.00
C398   C     0.16616   0.91315   0.16733   0.00000  Uiso   1.00
C399   C     0.06716   0.83294   0.15467   0.00000  Uiso   1.00
C400   C     0.26618   0.83373   0.17866   0.00000  Uiso   1.00
C401   C     0.01225   0.83629   0.14843   0.00000  Uiso   1.00
C402   C     0.32108   0.83037   0.18491   0.00000  Uiso   1.00
C403   C     0.21257   0.68834   0.16119   0.00000  Uiso   1.00
C404   C     0.12075   0.97832   0.17215   0.00000  Uiso   1.00
C405   C     0.21372   0.97824   0.16499   0.00000  Uiso   1.00
C406   C     0.11960   0.68842   0.16835   0.00000  Uiso   1.00
C407   C     0.16722   0.95738   0.16899   0.00000  Uiso   1.00
C408   C     0.16611   0.70928   0.16434   0.00000  Uiso   1.00
C409   C     0.19130   0.86448   0.02895   0.00000  Uiso   1.00
C410   C     0.14204   0.80219   0.30439   0.00000  Uiso   1.00
C411   C     0.19182   0.86465   0.31456   0.00000  Uiso   1.00
C412   C     0.14151   0.80201   0.01877   0.00000  Uiso   1.00
H413   H     0.21092   0.88918   0.05127   0.00000  Uiso   1.00
H414   H     0.12241   0.77749   0.28206   0.00000  Uiso   1.00
N415   N     0.16665   0.83332   0.28573   0.00000  Uiso   1.00
N416   N     0.16668   0.83334   0.04760   0.00000  Uiso   1.00
O417   O     0.16666   0.77225   0.20487   0.00000  Uiso   1.00
O418   O     0.16667   0.89442   0.12846   0.00000  Uiso   1.00
O419   O     0.16666   0.77226   0.12843   0.00000  Uiso   1.00
O420   O     0.16667   0.89441   0.20490   0.00000  Uiso   1.00
O421   O     0.09058   0.83333   0.19595   0.00000  Uiso   1.00
O422   O     0.24275   0.83334   0.13739   0.00000  Uiso   1.00
O423   O     0.09058   0.83334   0.11950   0.00000  Uiso   1.00
O424   O     0.24275   0.83333   0.21383   0.00000  Uiso   1.00
Zn425  Zn    0.16667   0.83333   0.21771   0.00000  Uiso   1.00
Zn426  Zn    0.16667   0.83334   0.11563   0.00000  Uiso   1.00
O427   O     0.32066   0.85365   0.10840   0.00000  Uiso   1.00
C428   C     0.32289   0.82607   0.07025   0.00000  Uiso   1.00
H429   H     0.32970   0.79254   0.07903   0.00000  Uiso   1.00
H430   H     0.01991   0.83712   0.05090   0.00000  Uiso   1.00
H431   H     0.28543   0.82701   0.04705   0.00000  Uiso   1.00
O432   O     0.01268   0.81300   0.22493   0.00000  Uiso   1.00
C433   C     0.01044   0.84058   0.26308   0.00000  Uiso   1.00
H434   H     0.31343   0.82952   0.28243   0.00000  Uiso   1.00
H435   H     0.00362   0.87412   0.25432   0.00000  Uiso   1.00
H436   H     0.04790   0.83964   0.28628   0.00000  Uiso   1.00
O437   O     0.25727   0.71101   0.15793   0.00000  Uiso   1.00
C438   C     0.26352   0.71169   0.11155   0.00000  Uiso   1.00
H439   H     0.29894   0.73019   0.10898   0.00000  Uiso   1.00
H440   H     0.23045   0.72720   0.09060   0.00000  Uiso   1.00
H441   H     0.26872   0.67950   0.09711   0.00000  Uiso   1.00
O442   O     0.07605   0.95566   0.17539   0.00000  Uiso   1.00
C443   C     0.06981   0.95497   0.22177   0.00000  Uiso   1.00
H444   H     0.06459   0.98716   0.23622   0.00000  Uiso   1.00
H445   H     0.10289   0.93946   0.24272   0.00000  Uiso   1.00
H446   H     0.03438   0.93645   0.22434   0.00000  Uiso   1.00
C447   C     0.26379   0.95415   0.16582   0.00000  Uiso   1.00
H448   H     0.26138   0.93310   0.13489   0.00000  Uiso   1.00
H449   H     0.29802   0.97512   0.16708   0.00000  Uiso   1.00
H450   H     0.27052   0.93482   0.19661   0.00000  Uiso   1.00
C451   C     0.06954   0.71252   0.16752   0.00000  Uiso   1.00
H452   H     0.07195   0.73357   0.19844   0.00000  Uiso   1.00
H453   H     0.06280   0.73184   0.13671   0.00000  Uiso   1.00
H454   H     0.03531   0.69155   0.16626   0.00000  Uiso   1.00
C455   C     0.21990   0.90032   0.29679   0.00000  Uiso   1.00
H456   H     0.24359   0.88890   0.27127   0.00000  Uiso   1.00
H457   H     0.19162   0.92397   0.28215   0.00000  Uiso   1.00
H458   H     0.24695   0.91665   0.32459   0.00000  Uiso   1.00
C459   C     0.11344   0.76634   0.03655   0.00000  Uiso   1.00
H460   H     0.14173   0.74269   0.05116   0.00000  Uiso   1.00
H461   H     0.08978   0.77776   0.06210   0.00000  Uiso   1.00
H462   H     0.08635   0.75004   0.00875   0.00000  Uiso   1.00
C463   C     0.50051   0.75352   0.16600   0.00000  Uiso   1.00
C464   C     0.49949   0.91315   0.16733   0.00000  Uiso   1.00
C465   C     0.40049   0.83294   0.15467   0.00000  Uiso   1.00
C466   C     0.59951   0.83373   0.17866   0.00000  Uiso   1.00
C467   C     0.34558   0.83629   0.14843   0.00000  Uiso   1.00
C468   C     0.65442   0.83037   0.18491   0.00000  Uiso   1.00
C469   C     0.54591   0.68834   0.16119   0.00000  Uiso   1.00
C470   C     0.45409   0.97832   0.17215   0.00000  Uiso   1.00
C471   C     0.54706   0.97824   0.16499   0.00000  Uiso   1.00
C472   C     0.45294   0.68842   0.16835   0.00000  Uiso   1.00
C473   C     0.50055   0.95738   0.16899   0.00000  Uiso   1.00
C474   C     0.49945   0.70928   0.16434   0.00000  Uiso   1.00
C475   C     0.52463   0.86448   0.02895   0.00000  Uiso   1.00
C476   C     0.47537   0.80219   0.30439   0.00000  Uiso   1.00
C477   C     0.52516   0.86465   0.31456   0.00000  Uiso   1.00
C478   C     0.47484   0.80201   0.01877   0.00000  Uiso   1.00
H479   H     0.54426   0.88918   0.05127   0.00000  Uiso   1.00
H480   H     0.45575   0.77749   0.28206   0.00000  Uiso   1.00
N481   N     0.49999   0.83332   0.28573   0.00000  Uiso   1.00
N482   N     0.50001   0.83334   0.04760   0.00000  Uiso   1.00
O483   O     0.50000   0.77225   0.20487   0.00000  Uiso   1.00
O484   O     0.50000   0.89442   0.12846   0.00000  Uiso   1.00
O485   O     0.50000   0.77226   0.12843   0.00000  Uiso   1.00
O486   O     0.50000   0.89441   0.20490   0.00000  Uiso   1.00
O487   O     0.42392   0.83333   0.19595   0.00000  Uiso   1.00
O488   O     0.57608   0.83334   0.13739   0.00000  Uiso   1.00
O489   O     0.42392   0.83334   0.11950   0.00000  Uiso   1.00
O490   O     0.57608   0.83333   0.21383   0.00000  Uiso   1.00
Zn491  Zn    0.50000   0.83333   0.21771   0.00000  Uiso   1.00
Zn492  Zn    0.50000   0.83334   0.11563   0.00000  Uiso   1.00
O493   O     0.65399   0.85365   0.10840   0.00000  Uiso   1.00
C494   C     0.65623   0.82607   0.07025   0.00000  Uiso   1.00
H495   H     0.66304   0.79254   0.07903   0.00000  Uiso   1.00
H496   H     0.35324   0.83712   0.05090   0.00000  Uiso   1.00
H497   H     0.61876   0.82701   0.04705   0.00000  Uiso   1.00
O498   O     0.34601   0.81300   0.22493   0.00000  Uiso   1.00
C499   C     0.34377   0.84058   0.26308   0.00000  Uiso   1.00
H500   H     0.64676   0.82952   0.28243   0.00000  Uiso   1.00
H501   H     0.33695   0.87412   0.25432   0.00000  Uiso   1.00
H502   H     0.38124   0.83964   0.28628   0.00000  Uiso   1.00
O503   O     0.59061   0.71101   0.15793   0.00000  Uiso   1.00
C504   C     0.59685   0.71169   0.11155   0.00000  Uiso   1.00
H505   H     0.63227   0.73019   0.10898   0.00000  Uiso   1.00
H506   H     0.56378   0.72720   0.09060   0.00000  Uiso   1.00
H507   H     0.60205   0.67950   0.09711   0.00000  Uiso   1.00
O508   O     0.40939   0.95566   0.17539   0.00000  Uiso   1.00
C509   C     0.40314   0.95497   0.22177   0.00000  Uiso   1.00
H510   H     0.39792   0.98716   0.23622   0.00000  Uiso   1.00
H511   H     0.43622   0.93946   0.24272   0.00000  Uiso   1.00
H512   H     0.36771   0.93645   0.22434   0.00000  Uiso   1.00
C513   C     0.59712   0.95415   0.16582   0.00000  Uiso   1.00
H514   H     0.59472   0.93310   0.13489   0.00000  Uiso   1.00
H515   H     0.63135   0.97512   0.16708   0.00000  Uiso   1.00
H516   H     0.60386   0.93482   0.19661   0.00000  Uiso   1.00
C517   C     0.40287   0.71252   0.16752   0.00000  Uiso   1.00
H518   H     0.40528   0.73357   0.19844   0.00000  Uiso   1.00
H519   H     0.39614   0.73184   0.13671   0.00000  Uiso   1.00
H520   H     0.36865   0.69155   0.16626   0.00000  Uiso   1.00
C521   C     0.55323   0.90032   0.29679   0.00000  Uiso   1.00
H522   H     0.57692   0.88890   0.27127   0.00000  Uiso   1.00
H523   H     0.52495   0.92397   0.28215   0.00000  Uiso   1.00
H524   H     0.58029   0.91665   0.32459   0.00000  Uiso   1.00
C525   C     0.44678   0.76634   0.03655   0.00000  Uiso   1.00
H526   H     0.47506   0.74269   0.05116   0.00000  Uiso   1.00
H527   H     0.42312   0.77776   0.06210   0.00000  Uiso   1.00
H528   H     0.41969   0.75004   0.00875   0.00000  Uiso   1.00
C529   C     0.83384   0.75352   0.16600   0.00000  Uiso   1.00
C530   C     0.83282   0.91315   0.16733   0.00000  Uiso   1.00
C531   C     0.73382   0.83294   0.15467   0.00000  Uiso   1.00
C532   C     0.93284   0.83373   0.17866   0.00000  Uiso   1.00
C533   C     0.67892   0.83629   0.14843   0.00000  Uiso   1.00
C534   C     0.98775   0.83037   0.18491   0.00000  Uiso   1.00
C535   C     0.87924   0.68834   0.16119   0.00000  Uiso   1.00
C536   C     0.78742   0.97832   0.17215   0.00000  Uiso   1.00
C537   C     0.88039   0.97824   0.16499   0.00000  Uiso   1.00
C538   C     0.78627   0.68842   0.16835   0.00000  Uiso   1.00
C539   C     0.83388   0.95738   0.16899   0.00000  Uiso   1.00
C540   C     0.83278   0.70928   0.16434   0.00000  Uiso   1.00
C541   C     0.85796   0.86448   0.02895   0.00000  Uiso   1.00
C542   C     0.80870   0.80219   0.30439   0.00000  Uiso   1.00
C543   C     0.85849   0.86465   0.31456   0.00000  Uiso   1.00
C544   C     0.80818   0.80201   0.01877   0.00000  Uiso   1.00
H545   H     0.87759   0.88918   0.05127   0.00000  Uiso   1.00
H546   H     0.78908   0.77749   0.28206   0.00000  Uiso   1.00
N547   N     0.83332   0.83332   0.28573   0.00000  Uiso   1.00
N548   N     0.83335   0.83334   0.04760   0.00000  Uiso   1.00
O549   O     0.83333   0.77225   0.20487   0.00000  Uiso   1.00
O550   O     0.83334   0.89442   0.12846   0.00000  Uiso   1.00
O551   O     0.83333   0.77226   0.12843   0.00000  Uiso   1.00
O552   O     0.83334   0.89441   0.20490   0.00000  Uiso   1.00
O553   O     0.75725   0.83333   0.19595   0.00000  Uiso   1.00
O554   O     0.90942   0.83334   0.13739   0.00000  Uiso   1.00
O555   O     0.75725   0.83334   0.11950   0.00000  Uiso   1.00
O556   O     0.90942   0.83333   0.21383   0.00000  Uiso   1.00
Zn557  Zn    0.83333   0.83333   0.21771   0.00000  Uiso   1.00
Zn558  Zn    0.83333   0.83334   0.11563   0.00000  Uiso   1.00
O559   O     0.98732   0.85365   0.10840   0.00000  Uiso   1.00
C560   C     0.98956   0.82607   0.07025   0.00000  Uiso   1.00
H561   H     0.99637   0.79254   0.07903   0.00000  Uiso   1.00
H562   H     0.68657   0.83712   0.05090   0.00000  Uiso   1.00
H563   H     0.95210   0.82701   0.04705   0.00000  Uiso   1.00
O564   O     0.67935   0.81300   0.22493   0.00000  Uiso   1.00
C565   C     0.67710   0.84058   0.26308   0.00000  Uiso   1.00
H566   H     0.98009   0.82952   0.28243   0.00000  Uiso   1.00
H567   H     0.67029   0.87412   0.25432   0.00000  Uiso   1.00
H568   H     0.71457   0.83964   0.28628   0.00000  Uiso   1.00
O569   O     0.92394   0.71101   0.15793   0.00000  Uiso   1.00
C570   C     0.93018   0.71169   0.11155   0.00000  Uiso   1.00
H571   H     0.96560   0.73019   0.10898   0.00000  Uiso   1.00
H572   H     0.89712   0.72720   0.09060   0.00000  Uiso   1.00
H573   H     0.93539   0.67950   0.09711   0.00000  Uiso   1.00
O574   O     0.74272   0.95566   0.17539   0.00000  Uiso   1.00
C575   C     0.73648   0.95497   0.22177   0.00000  Uiso   1.00
H576   H     0.73126   0.98716   0.23622   0.00000  Uiso   1.00
H577   H     0.76956   0.93946   0.24272   0.00000  Uiso   1.00
H578   H     0.70105   0.93645   0.22434   0.00000  Uiso   1.00
C579   C     0.93046   0.95415   0.16582   0.00000  Uiso   1.00
H580   H     0.92805   0.93310   0.13489   0.00000  Uiso   1.00
H581   H     0.96468   0.97512   0.16708   0.00000  Uiso   1.00
H582   H     0.93719   0.93482   0.19661   0.00000  Uiso   1.00
C583   C     0.73620   0.71252   0.16752   0.00000  Uiso   1.00
H584   H     0.73861   0.73357   0.19844   0.00000  Uiso   1.00
H585   H     0.72947   0.73184   0.13671   0.00000  Uiso   1.00
H586   H     0.70198   0.69155   0.16626   0.00000  Uiso   1.00
C587   C     0.88656   0.90032   0.29679   0.00000  Uiso   1.00
H588   H     0.91026   0.88890   0.27127   0.00000  Uiso   1.00
H589   H     0.85828   0.92397   0.28215   0.00000  Uiso   1.00
H590   H     0.91362   0.91665   0.32459   0.00000  Uiso   1.00
C591   C     0.78011   0.76634   0.03655   0.00000  Uiso   1.00
H592   H     0.80839   0.74269   0.05116   0.00000  Uiso   1.00
H593   H     0.75645   0.77776   0.06210   0.00000  Uiso   1.00
H594   H     0.75302   0.75004   0.00875   0.00000  Uiso   1.00
C595   C     0.16717   0.08685   0.49933   0.00000  Uiso   1.00
C596   C     0.16616   0.24648   0.50067   0.00000  Uiso   1.00
C597   C     0.06716   0.16627   0.48801   0.00000  Uiso   1.00
C598   C     0.26618   0.16706   0.51199   0.00000  Uiso   1.00
C599   C     0.01225   0.16962   0.48176   0.00000  Uiso   1.00
C600   C     0.32108   0.16371   0.51824   0.00000  Uiso   1.00
C601   C     0.21257   0.02168   0.49452   0.00000  Uiso   1.00
C602   C     0.12075   0.31166   0.50548   0.00000  Uiso   1.00
C603   C     0.21372   0.31158   0.49832   0.00000  Uiso   1.00
C604   C     0.11960   0.02176   0.50168   0.00000  Uiso   1.00
C605   C     0.16722   0.29072   0.50232   0.00000  Uiso   1.00
C606   C     0.16611   0.04262   0.49768   0.00000  Uiso   1.00
C607   C     0.19130   0.19781   0.36228   0.00000  Uiso   1.00
C608   C     0.14204   0.13552   0.63772   0.00000  Uiso   1.00
C609   C     0.19182   0.19799   0.64789   0.00000  Uiso   1.00
C610   C     0.14151   0.13535   0.35211   0.00000  Uiso   1.00
H611   H     0.21092   0.22251   0.38461   0.00000  Uiso   1.00
H612   H     0.12241   0.11082   0.61539   0.00000  Uiso   1.00
N613   N     0.16665   0.16666   0.61907   0.00000  Uiso   1.00
N614   N     0.16668   0.16668   0.38093   0.00000  Uiso   1.00
O615   O     0.16666   0.10558   0.53821   0.00000  Uiso   1.00
O616   O     0.16667   0.22775   0.46179   0.00000  Uiso   1.00
O617   O     0.16666   0.10559   0.46176   0.00000  Uiso   1.00
O618   O     0.16667   0.22774   0.53824   0.00000  Uiso   1.00
O619   O     0.09058   0.16666   0.52928   0.00000  Uiso   1.00
O620   O     0.24275   0.16667   0.47072   0.00000  Uiso   1.00
O621   O     0.09058   0.16667   0.45284   0.00000  Uiso   1.00
O622   O     0.24275   0.16666   0.54716   0.00000  Uiso   1.00
Zn623  Zn    0.16667   0.16666   0.55104   0.00000  Uiso   1.00
Zn624  Zn    0.16667   0.16667   0.44896   0.00000  Uiso   1.00
O625   O     0.32066   0.18699   0.44173   0.00000  Uiso   1.00
C626   C     0.32289   0.15940   0.40358   0.00000  Uiso   1.00
H627   H     0.32970   0.12587   0.41236   0.00000  Uiso   1.00
H628   H     0.01991   0.17046   0.38424   0.00000  Uiso   1.00
H629   H     0.28543   0.16035   0.38039   0.00000  Uiso   1.00
O630   O     0.01268   0.14634   0.55826   0.00000  Uiso   1.00
C631   C     0.01044   0.17392   0.59642   0.00000  Uiso   1.00
H632   H     0.31343   0.16285   0.61577   0.00000  Uiso   1.00
H633   H     0.00362   0.20745   0.58765   0.00000  Uiso   1.00
H634   H     0.04790   0.17297   0.61961   0.00000  Uiso   1.00
O635   O     0.25727   0.04434   0.49127   0.00000  Uiso   1.00
C636   C     0.26352   0.04502   0.44488   0.00000  Uiso   1.00
H637   H     0.29894   0.06352   0.44232   0.00000  Uiso   1.00
H638   H     0.23045   0.06053   0.42393   0.00000  Uiso   1.00
H639   H     0.26872   0.01284   0.43044   0.00000  Uiso   1.00
O640   O     0.07605   0.28899   0.50872   0.00000  Uiso   1.00
C641   C     0.06981   0.28830   0.55511   0.00000  Uiso   1.00
H642   H     0.06459   0.32049   0.56955   0.00000  Uiso   1.00
H643   H     0.10289   0.27279   0.57605   0.00000  Uiso   1.00
H644   H     0.03438   0.26979   0.55767   0.00000  Uiso   1.00
C645   C     0.26379   0.28748   0.49915   0.00000  Uiso   1.00
H646   H     0.26138   0.26644   0.46822   0.00000  Uiso   1.00
H647   H     0.29802   0.30845   0.50042   0.00000  Uiso   1.00
H648   H     0.27052   0.26816   0.52995   0.00000  Uiso   1.00
C649   C     0.06954   0.04585   0.50085   0.00000  Uiso   1.00
H650   H     0.07195   0.06690   0.53177   0.00000  Uiso   1.00
H651   H     0.06280   0.06517   0.47005   0.00000  Uiso   1.00
H652   H     0.03531   0.02488   0.49959   0.00000  Uiso   1.00
C653   C     0.21990   0.23366   0.63012   0.00000  Uiso   1.00
H654   H     0.24359   0.22224   0.60460   0.00000  Uiso   1.00
H655   H     0.19162   0.25730   0.61548   0.00000  Uiso   1.00
H656   H     0.24695   0.24998   0.65792   0.00000  Uiso   1.00
C657   C     0.11344   0.09968   0.36988   0.00000  Uiso   1.00
H658   H     0.14173   0.07602   0.38449   0.00000  Uiso   1.00
H659   H     0.08978   0.11109   0.39543   0.00000  Uiso   1.00
H660   H     0.08635   0.08337   0.34208   0.00000  Uiso   1.00
C661   C     0.50051   0.08685   0.49933   0.00000  Uiso   1.00
C662   C     0.49949   0.24648   0.50067   0.00000  Uiso   1.00
C663   C     0.40049   0.16627   0.48801   0.00000  Uiso   1.00
C664   C     0.59951   0.16706   0.51199   0.00000  Uiso   1.00
C665   C     0.34558   0.16962   0.48176   0.00000  Uiso   1.00
C666   C     0.65442   0.16371   0.51824   0.00000  Uiso   1.00
C667   C     0.54591   0.02168   0.49452   0.00000  Uiso   1.00
C668   C     0.45409   0.31166   0.50548   0.00000  Uiso   1.00
C669   C     0.54706   0.31158   0.49832   0.00000  Uiso   1.00
C670   C     0.45294   0.02176   0.50168   0.00000  Uiso   1.00
C671   C     0.50055   0.29072   0.50232   0.00000  Uiso   1.00
C672   C     0.49945   0.04262   0.49768   0.00000  Uiso   1.00
C673   C     0.52463   0.19781   0.36228   0.00000  Uiso   1.00
C674   C     0.47537   0.13552   0.63772   0.00000  Uiso   1.00
C675   C     0.52516   0.19799   0.64789   0.00000  Uiso   1.00
C676   C     0.47484   0.13535   0.35211   0.00000  Uiso   1.00
H677   H     0.54426   0.22251   0.38461   0.00000  Uiso   1.00
H678   H     0.45575   0.11082   0.61539   0.00000  Uiso   1.00
N679   N     0.49999   0.16666   0.61907   0.00000  Uiso   1.00
N680   N     0.50001   0.16668   0.38093   0.00000  Uiso   1.00
O681   O     0.50000   0.10558   0.53821   0.00000  Uiso   1.00
O682   O     0.50000   0.22775   0.46179   0.00000  Uiso   1.00
O683   O     0.50000   0.10559   0.46176   0.00000  Uiso   1.00
O684   O     0.50000   0.22774   0.53824   0.00000  Uiso   1.00
O685   O     0.42392   0.16666   0.52928   0.00000  Uiso   1.00
O686   O     0.57608   0.16667   0.47072   0.00000  Uiso   1.00
O687   O     0.42392   0.16667   0.45284   0.00000  Uiso   1.00
O688   O     0.57608   0.16666   0.54716   0.00000  Uiso   1.00
Zn689  Zn    0.50000   0.16666   0.55104   0.00000  Uiso   1.00
Zn690  Zn    0.50000   0.16667   0.44896   0.00000  Uiso   1.00
O691   O     0.65399   0.18699   0.44173   0.00000  Uiso   1.00
C692   C     0.65623   0.15940   0.40358   0.00000  Uiso   1.00
H693   H     0.66304   0.12587   0.41236   0.00000  Uiso   1.00
H694   H     0.35324   0.17046   0.38424   0.00000  Uiso   1.00
H695   H     0.61876   0.16035   0.38039   0.00000  Uiso   1.00
O696   O     0.34601   0.14634   0.55826   0.00000  Uiso   1.00
C697   C     0.34377   0.17392   0.59642   0.00000  Uiso   1.00
H698   H     0.64676   0.16285   0.61577   0.00000  Uiso   1.00
H699   H     0.33695   0.20745   0.58765   0.00000  Uiso   1.00
H700   H     0.38124   0.17297   0.61961   0.00000  Uiso   1.00
O701   O     0.59061   0.04434   0.49127   0.00000  Uiso   1.00
C702   C     0.59685   0.04502   0.44488   0.00000  Uiso   1.00
H703   H     0.63227   0.06352   0.44232   0.00000  Uiso   1.00
H704   H     0.56378   0.06053   0.42393   0.00000  Uiso   1.00
H705   H     0.60205   0.01284   0.43044   0.00000  Uiso   1.00
O706   O     0.40939   0.28899   0.50872   0.00000  Uiso   1.00
C707   C     0.40314   0.28830   0.55511   0.00000  Uiso   1.00
H708   H     0.39792   0.32049   0.56955   0.00000  Uiso   1.00
H709   H     0.43622   0.27279   0.57605   0.00000  Uiso   1.00
H710   H     0.36771   0.26979   0.55767   0.00000  Uiso   1.00
C711   C     0.59712   0.28748   0.49915   0.00000  Uiso   1.00
H712   H     0.59472   0.26644   0.46822   0.00000  Uiso   1.00
H713   H     0.63135   0.30845   0.50042   0.00000  Uiso   1.00
H714   H     0.60386   0.26816   0.52995   0.00000  Uiso   1.00
C715   C     0.40287   0.04585   0.50085   0.00000  Uiso   1.00
H716   H     0.40528   0.06690   0.53177   0.00000  Uiso   1.00
H717   H     0.39614   0.06517   0.47005   0.00000  Uiso   1.00
H718   H     0.36865   0.02488   0.49959   0.00000  Uiso   1.00
C719   C     0.55323   0.23366   0.63012   0.00000  Uiso   1.00
H720   H     0.57692   0.22224   0.60460   0.00000  Uiso   1.00
H721   H     0.52495   0.25730   0.61548   0.00000  Uiso   1.00
H722   H     0.58029   0.24998   0.65792   0.00000  Uiso   1.00
C723   C     0.44678   0.09968   0.36988   0.00000  Uiso   1.00
H724   H     0.47506   0.07602   0.38449   0.00000  Uiso   1.00
H725   H     0.42312   0.11109   0.39543   0.00000  Uiso   1.00
H726   H     0.41969   0.08337   0.34208   0.00000  Uiso   1.00
C727   C     0.83384   0.08685   0.49933   0.00000  Uiso   1.00
C728   C     0.83282   0.24648   0.50067   0.00000  Uiso   1.00
C729   C     0.73382   0.16627   0.48801   0.00000  Uiso   1.00
C730   C     0.93284   0.16706   0.51199   0.00000  Uiso   1.00
C731   C     0.67892   0.16962   0.48176   0.00000  Uiso   1.00
C732   C     0.98775   0.16371   0.51824   0.00000  Uiso   1.00
C733   C     0.87924   0.02168   0.49452   0.00000  Uiso   1.00
C734   C     0.78742   0.31166   0.50548   0.00000  Uiso   1.00
C735   C     0.88039   0.31158   0.49832   0.00000  Uiso   1.00
C736   C     0.78627   0.02176   0.50168   0.00000  Uiso   1.00
C737   C     0.83388   0.29072   0.50232   0.00000  Uiso   1.00
C738   C     0.83278   0.04262   0.49768   0.00000  Uiso   1.00
C739   C     0.85796   0.19781   0.36228   0.00000  Uiso   1.00
C740   C     0.80870   0.13552   0.63772   0.00000  Uiso   1.00
C741   C     0.85849   0.19799   0.64789   0.00000  Uiso   1.00
C742   C     0.80818   0.13535   0.35211   0.00000  Uiso   1.00
H743   H     0.87759   0.22251   0.38461   0.00000  Uiso   1.00
H744   H     0.78908   0.11082   0.61539   0.00000  Uiso   1.00
N745   N     0.83332   0.16666   0.61907   0.00000  Uiso   1.00
N746   N     0.83335   0.16668   0.38093   0.00000  Uiso   1.00
O747   O     0.83333   0.10558   0.53821   0.00000  Uiso   1.00
O748   O     0.83334   0.22775   0.46179   0.00000  Uiso   1.00
O749   O     0.83333   0.10559   0.46176   0.00000  Uiso   1.00
O750   O     0.83334   0.22774   0.53824   0.00000  Uiso   1.00
O751   O     0.75725   0.16666   0.52928   0.00000  Uiso   1.00
O752   O     0.90942   0.16667   0.47072   0.00000  Uiso   1.00
O753   O     0.75725   0.16667   0.45284   0.00000  Uiso   1.00
O754   O     0.90942   0.16666   0.54716   0.00000  Uiso   1.00
Zn755  Zn    0.83333   0.16666   0.55104   0.00000  Uiso   1.00
Zn756  Zn    0.83333   0.16667   0.44896   0.00000  Uiso   1.00
O757   O     0.98732   0.18699   0.44173   0.00000  Uiso   1.00
C758   C     0.98956   0.15940   0.40358   0.00000  Uiso   1.00
H759   H     0.99637   0.12587   0.41236   0.00000  Uiso   1.00
H760   H     0.68657   0.17046   0.38424   0.00000  Uiso   1.00
H761   H     0.95210   0.16035   0.38039   0.00000  Uiso   1.00
O762   O     0.67935   0.14634   0.55826   0.00000  Uiso   1.00
C763   C     0.67710   0.17392   0.59642   0.00000  Uiso   1.00
H764   H     0.98009   0.16285   0.61577   0.00000  Uiso   1.00
H765   H     0.67029   0.20745   0.58765   0.00000  Uiso   1.00
H766   H     0.71457   0.17297   0.61961   0.00000  Uiso   1.00
O767   O     0.92394   0.04434   0.49127   0.00000  Uiso   1.00
C768   C     0.93018   0.04502   0.44488   0.00000  Uiso   1.00
H769   H     0.96560   0.06352   0.44232   0.00000  Uiso   1.00
H770   H     0.89712   0.06053   0.42393   0.00000  Uiso   1.00
H771   H     0.93539   0.01284   0.43044   0.00000  Uiso   1.00
O772   O     0.74272   0.28899   0.50872   0.00000  Uiso   1.00
C773   C     0.73648   0.28830   0.55511   0.00000  Uiso   1.00
H774   H     0.73126   0.32049   0.56955   0.00000  Uiso   1.00
H775   H     0.76956   0.27279   0.57605   0.00000  Uiso   1.00
H776   H     0.70105   0.26979   0.55767   0.00000  Uiso   1.00
C777   C     0.93046   0.28748   0.49915   0.00000  Uiso   1.00
H778   H     0.92805   0.26644   0.46822   0.00000  Uiso   1.00
H779   H     0.96468   0.30845   0.50042   0.00000  Uiso   1.00
H780   H     0.93719   0.26816   0.52995   0.00000  Uiso   1.00
C781   C     0.73620   0.04585   0.50085   0.00000  Uiso   1.00
H782   H     0.73861   0.06690   0.53177   0.00000  Uiso   1.00
H783   H     0.72947   0.06517   0.47005   0.00000  Uiso   1.00
H784   H     0.70198   0.02488   0.49959   0.00000  Uiso   1.00
C785   C     0.88656   0.23366   0.63012   0.00000  Uiso   1.00
H786   H     0.91026   0.22224   0.60460   0.00000  Uiso   1.00
H787   H     0.85828   0.25730   0.61548   0.00000  Uiso   1.00
H788   H     0.91362   0.24998   0.65792   0.00000  Uiso   1.00
C789   C     0.78011   0.09968   0.36988   0.00000  Uiso   1.00
H790   H     0.80839   0.07602   0.38449   0.00000  Uiso   1.00
H791   H     0.75645   0.11109   0.39543   0.00000  Uiso   1.00
H792   H     0.75302   0.08337   0.34208   0.00000  Uiso   1.00
C793   C     0.16717   0.42019   0.49933   0.00000  Uiso   1.00
C794   C     0.16616   0.57982   0.50067   0.00000  Uiso   1.00
C795   C     0.06716   0.49961   0.48801   0.00000  Uiso   1.00
C796   C     0.26618   0.50039   0.51199   0.00000  Uiso   1.00
C797   C     0.01225   0.50295   0.48176   0.00000  Uiso   1.00
C798   C     0.32108   0.49704   0.51824   0.00000  Uiso   1.00
C799   C     0.21257   0.35501   0.49452   0.00000  Uiso   1.00
C800   C     0.12075   0.64499   0.50548   0.00000  Uiso   1.00
C801   C     0.21372   0.64491   0.49832   0.00000  Uiso   1.00
C802   C     0.11960   0.35509   0.50168   0.00000  Uiso   1.00
C803   C     0.16722   0.62405   0.50232   0.00000  Uiso   1.00
C804   C     0.16611   0.37595   0.49768   0.00000  Uiso   1.00
C805   C     0.19130   0.53115   0.36228   0.00000  Uiso   1.00
C806   C     0.14204   0.46885   0.63772   0.00000  Uiso   1.00
C807   C     0.19182   0.53132   0.64789   0.00000  Uiso   1.00
C808   C     0.14151   0.46868   0.35211   0.00000  Uiso   1.00
H809   H     0.21092   0.55585   0.38461   0.00000  Uiso   1.00
H810   H     0.12241   0.44415   0.61539   0.00000  Uiso   1.00
N811   N     0.16665   0.49999   0.61907   0.00000  Uiso   1.00
N812   N     0.16668   0.50001   0.38093   0.00000  Uiso   1.00
O813   O     0.16666   0.43892   0.53821   0.00000  Uiso   1.00
O814   O     0.16667   0.56108   0.46179   0.00000  Uiso   1.00
O815   O     0.16666   0.43893   0.46176   0.00000  Uiso   1.00
O816   O     0.16667   0.56107   0.53824   0.00000  Uiso   1.00
O817   O     0.09058   0.50000   0.52928   0.00000  Uiso   1.00
O818   O     0.24275   0.50000   0.47072   0.00000  Uiso   1.00
O819   O     0.09058   0.50000   0.45284   0.00000  Uiso   1.00
O820   O     0.24275   0.50000   0.54716   0.00000  Uiso   1.00
Zn821  Zn    0.16667   0.49999   0.55104   0.00000  Uiso   1.00
Zn822  Zn    0.16667   0.50001   0.44896   0.00000  Uiso   1.00
O823   O     0.32066   0.52032   0.44173   0.00000  Uiso   1.00
C824   C     0.32289   0.49273   0.40358   0.00000  Uiso   1.00
H825   H     0.32970   0.45920   0.41236   0.00000  Uiso   1.00
H826   H     0.01991   0.50379   0.38424   0.00000  Uiso   1.00
H827   H     0.28543   0.49368   0.38039   0.00000  Uiso   1.00
O828   O     0.01268   0.47967   0.55826   0.00000  Uiso   1.00
C829   C     0.01044   0.50725   0.59642   0.00000  Uiso   1.00
H830   H     0.31343   0.49619   0.61577   0.00000  Uiso   1.00
H831   H     0.00362   0.54078   0.58765   0.00000  Uiso   1.00
H832   H     0.04790   0.50630   0.61961   0.00000  Uiso   1.00
O833   O     0.25727   0.37768   0.49127   0.00000  Uiso   1.00
C834   C     0.26352   0.37835   0.44488   0.00000  Uiso   1.00
H835   H     0.29894   0.39685   0.44232   0.00000  Uiso   1.00
H836   H     0.23045   0.39387   0.42393   0.00000  Uiso   1.00
H837   H     0.26872   0.34617   0.43044   0.00000  Uiso   1.00
O838   O     0.07605   0.62232   0.50872   0.00000  Uiso   1.00
C839   C     0.06981   0.62164   0.55511   0.00000  Uiso   1.00
H840   H     0.06459   0.65383   0.56955   0.00000  Uiso   1.00
H841   H     0.10289   0.60612   0.57605   0.00000  Uiso   1.00
H842   H     0.03438   0.60312   0.55767   0.00000  Uiso   1.00
C843   C     0.26379   0.62082   0.49915   0.00000  Uiso   1.00
H844   H     0.26138   0.59977   0.46822   0.00000  Uiso   1.00
H845   H     0.29802   0.64179   0.50042   0.00000  Uiso   1.00
H846   H     0.27052   0.60149   0.52995   0.00000  Uiso   1.00
C847   C     0.06954   0.37919   0.50085   0.00000  Uiso   1.00
H848   H     0.07195   0.40024   0.53177   0.00000  Uiso   1.00
H849   H     0.06280   0.39851   0.47005   0.00000  Uiso   1.00
H850   H     0.03531   0.35822   0.49959   0.00000  Uiso   1.00
C851   C     0.21990   0.56699   0.63012   0.00000  Uiso   1.00
H852   H     0.24359   0.55557   0.60460   0.00000  Uiso   1.00
H853   H     0.19162   0.59063   0.61548   0.00000  Uiso   1.00
H854   H     0.24695   0.58331   0.65792   0.00000  Uiso   1.00
C855   C     0.11344   0.43301   0.36988   0.00000  Uiso   1.00
H856   H     0.14173   0.40935   0.38449   0.00000  Uiso   1.00
H857   H     0.08978   0.44442   0.39543   0.00000  Uiso   1.00
H858   H     0.08635   0.41670   0.34208   0.00000  Uiso   1.00
C859   C     0.50051   0.42019   0.49933   0.00000  Uiso   1.00
C860   C     0.49949   0.57982   0.50067   0.00000  Uiso   1.00
C861   C     0.40049   0.49961   0.48801   0.00000  Uiso   1.00
C862   C     0.59951   0.50039   0.51199   0.00000  Uiso   1.00
C863   C     0.34558   0.50295   0.48176   0.00000  Uiso   1.00
C864   C     0.65442   0.49704   0.51824   0.00000  Uiso   1.00
C865   C     0.54591   0.35501   0.49452   0.00000  Uiso   1.00
C866   C     0.45409   0.64499   0.50548   0.00000  Uiso   1.00
C867   C     0.54706   0.64491   0.49832   0.00000  Uiso   1.00
C868   C     0.45294   0.35509   0.50168   0.00000  Uiso   1.00
C869   C     0.50055   0.62405   0.50232   0.00000  Uiso   1.00
C870   C     0.49945   0.37595   0.49768   0.00000  Uiso   1.00
C871   C     0.52463   0.53115   0.36228   0.00000  Uiso   1.00
C872   C     0.47537   0.46885   0.63772   0.00000  Uiso   1.00
C873   C     0.52516   0.53132   0.64789   0.00000  Uiso   1.00
C874   C     0.47484   0.46868   0.35211   0.00000  Uiso   1.00
H875   H     0.54426   0.55585   0.38461   0.00000  Uiso   1.00
H876   H     0.45575   0.44415   0.61539   0.00000  Uiso   1.00
N877   N     0.49999   0.49999   0.61907   0.00000  Uiso   1.00
N878   N     0.50001   0.50001   0.38093   0.00000  Uiso   1.00
O879   O     0.50000   0.43892   0.53821   0.00000  Uiso   1.00
O880   O     0.50000   0.56108   0.46179   0.00000  Uiso   1.00
O881   O     0.50000   0.43893   0.46176   0.00000  Uiso   1.00
O882   O     0.50000   0.56107   0.53824   0.00000  Uiso   1.00
O883   O     0.42392   0.50000   0.52928   0.00000  Uiso   1.00
O884   O     0.57608   0.50000   0.47072   0.00000  Uiso   1.00
O885   O     0.42392   0.50000   0.45284   0.00000  Uiso   1.00
O886   O     0.57608   0.50000   0.54716   0.00000  Uiso   1.00
Zn887  Zn    0.50000   0.49999   0.55104   0.00000  Uiso   1.00
Zn888  Zn    0.50000   0.50001   0.44896   0.00000  Uiso   1.00
O889   O     0.65399   0.52032   0.44173   0.00000  Uiso   1.00
C890   C     0.65623   0.49273   0.40358   0.00000  Uiso   1.00
H891   H     0.66304   0.45920   0.41236   0.00000  Uiso   1.00
H892   H     0.35324   0.50379   0.38424   0.00000  Uiso   1.00
H893   H     0.61876   0.49368   0.38039   0.00000  Uiso   1.00
O894   O     0.34601   0.47967   0.55826   0.00000  Uiso   1.00
C895   C     0.34377   0.50725   0.59642   0.00000  Uiso   1.00
H896   H     0.64676   0.49619   0.61577   0.00000  Uiso   1.00
H897   H     0.33695   0.54078   0.58765   0.00000  Uiso   1.00
H898   H     0.38124   0.50630   0.61961   0.00000  Uiso   1.00
O899   O     0.59061   0.37768   0.49127   0.00000  Uiso   1.00
C900   C     0.59685   0.37835   0.44488   0.00000  Uiso   1.00
H901   H     0.63227   0.39685   0.44232   0.00000  Uiso   1.00
H902   H     0.56378   0.39387   0.42393   0.00000  Uiso   1.00
H903   H     0.60205   0.34617   0.43044   0.00000  Uiso   1.00
O904   O     0.40939   0.62232   0.50872   0.00000  Uiso   1.00
C905   C     0.40314   0.62164   0.55511   0.00000  Uiso   1.00
H906   H     0.39792   0.65383   0.56955   0.00000  Uiso   1.00
H907   H     0.43622   0.60612   0.57605   0.00000  Uiso   1.00
H908   H     0.36771   0.60312   0.55767   0.00000  Uiso   1.00
C909   C     0.59712   0.62082   0.49915   0.00000  Uiso   1.00
H910   H     0.59472   0.59977   0.46822   0.00000  Uiso   1.00
H911   H     0.63135   0.64179   0.50042   0.00000  Uiso   1.00
H912   H     0.60386   0.60149   0.52995   0.00000  Uiso   1.00
C913   C     0.40287   0.37919   0.50085   0.00000  Uiso   1.00
H914   H     0.40528   0.40024   0.53177   0.00000  Uiso   1.00
H915   H     0.39614   0.39851   0.47005   0.00000  Uiso   1.00
H916   H     0.36865   0.35822   0.49959   0.00000  Uiso   1.00
C917   C     0.55323   0.56699   0.63012   0.00000  Uiso   1.00
H918   H     0.57692   0.55557   0.60460   0.00000  Uiso   1.00
H919   H     0.52495   0.59063   0.61548   0.00000  Uiso   1.00
H920   H     0.58029   0.58331   0.65792   0.00000  Uiso   1.00
C921   C     0.44678   0.43301   0.36988   0.00000  Uiso   1.00
H922   H     0.47506   0.40935   0.38449   0.00000  Uiso   1.00
H923   H     0.42312   0.44442   0.39543   0.00000  Uiso   1.00
H924   H     0.41969   0.41670   0.34208   0.00000  Uiso   1.00
C925   C     0.83384   0.42019   0.49933   0.00000  Uiso   1.00
C926   C     0.83282   0.57982   0.50067   0.00000  Uiso   1.00
C927   C     0.73382   0.49961   0.48801   0.00000  Uiso   1.00
C928   C     0.93284   0.50039   0.51199   0.00000  Uiso   1.00
C929   C     0.67892   0.50295   0.48176   0.00000  Uiso   1.00
C930   C     0.98775   0.49704   0.51824   0.00000  Uiso   1.00
C931   C     0.87924   0.35501   0.49452   0.00000  Uiso   1.00
C932   C     0.78742   0.64499   0.50548   0.00000  Uiso   1.00
C933   C     0.88039   0.64491   0.49832   0.00000  Uiso   1.00
C934   C     0.78627   0.35509   0.50168   0.00000  Uiso   1.00
C935   C     0.83388   0.62405   0.50232   0.00000  Uiso   1.00
C936   C     0.83278   0.37595   0.49768   0.00000  Uiso   1.00
C937   C     0.85796   0.53115   0.36228   0.00000  Uiso   1.00
C938   C     0.80870   0.46885   0.63772   0.00000  Uiso   1.00
C939   C     0.85849   0.53132   0.64789   0.00000  Uiso   1.00
C940   C     0.80818   0.46868   0.35211   0.00000  Uiso   1.00
H941   H     0.87759   0.55585   0.38461   0.00000  Uiso   1.00
H942   H     0.78908   0.44415   0.61539   0.00000  Uiso   1.00
N943   N     0.83332   0.49999   0.61907   0.00000  Uiso   1.00
N944   N     0.83335   0.50001   0.38093   0.00000  Uiso   1.00
O945   O     0.83333   0.43892   0.53821   0.00000  Uiso   1.00
O946   O     0.83334   0.56108   0.46179   0.00000  Uiso   1.00
O947   O     0.83333   0.43893   0.46176   0.00000  Uiso   1.00
O948   O     0.83334   0.56107   0.53824   0.00000  Uiso   1.00
O949   O     0.75725   0.50000   0.52928   0.00000  Uiso   1.00
O950   O     0.90942   0.50000   0.47072   0.00000  Uiso   1.00
O951   O     0.75725   0.50000   0.45284   0.00000  Uiso   1.00
O952   O     0.90942   0.50000   0.54716   0.00000  Uiso   1.00
Zn953  Zn    0.83333   0.49999   0.55104   0.00000  Uiso   1.00
Zn954  Zn    0.83333   0.50001   0.44896   0.00000  Uiso   1.00
O955   O     0.98732   0.52032   0.44173   0.00000  Uiso   1.00
C956   C     0.98956   0.49273   0.40358   0.00000  Uiso   1.00
H957   H     0.99637   0.45920   0.41236   0.00000  Uiso   1.00
H958   H     0.68657   0.50379   0.38424   0.00000  Uiso   1.00
H959   H     0.95210   0.49368   0.38039   0.00000  Uiso   1.00
O960   O     0.67935   0.47967   0.55826   0.00000  Uiso   1.00
C961   C     0.67710   0.50725   0.59642   0.00000  Uiso   1.00
H962   H     0.98009   0.49619   0.61577   0.00000  Uiso   1.00
H963   H     0.67029   0.54078   0.58765   0.00000  Uiso   1.00
H964   H     0.71457   0.50630   0.61961   0.00000  Uiso   1.00
O965   O     0.92394   0.37768   0.49127   0.00000  Uiso   1.00
C966   C     0.93018   0.37835   0.44488   0.00000  Uiso   1.00
H967   H     0.96560   0.39685   0.44232   0.00000  Uiso   1.00
H968   H     0.89712   0.39387   0.42393   0.00000  Uiso   1.00
H969   H     0.93539   0.34617   0.43044   0.00000  Uiso   1.00
O970   O     0.74272   0.62232   0.50872   0.00000  Uiso   1.00
C971   C     0.73648   0.62164   0.55511   0.00000  Uiso   1.00
H972   H     0.73126   0.65383   0.56955   0.00000  Uiso   1.00
H973   H     0.76956   0.60612   0.57605   0.00000  Uiso   1.00
H974   H     0.70105   0.60312   0.55767   0.00000  Uiso   1.00
C975   C     0.93046   0.62082   0.49915   0.00000  Uiso   1.00
H976   H     0.92805   0.59977   0.46822   0.00000  Uiso   1.00
H977   H     0.96468   0.64179   0.50042   0.00000  Uiso   1.00
H978   H     0.93719   0.60149   0.52995   0.00000  Uiso   1.00
C979   C     0.73620   0.37919   0.50085   0.00000  Uiso   1.00
H980   H     0.73861   0.40024   0.53177   0.00000  Uiso   1.00
H981   H     0.72947   0.39851   0.47005   0.00000  Uiso   1.00
H982   H     0.70198   0.35822   0.49959   0.00000  Uiso   1.00
C983   C     0.88656   0.56699   0.63012   0.00000  Uiso   1.00
H984   H     0.91026   0.55557   0.60460   0.00000  Uiso   1.00
H985   H     0.85828   0.59063   0.61548   0.00000  Uiso   1.00
H986   H     0.91362   0.58331   0.65792   0.00000  Uiso   1.00
C987   C     0.78011   0.43301   0.36988   0.00000  Uiso   1.00
H988   H     0.80839   0.40935   0.38449   0.00000  Uiso   1.00
H989   H     0.75645   0.44442   0.39543   0.00000  Uiso   1.00
H990   H     0.75302   0.41670   0.34208   0.00000  Uiso   1.00
C991   C     0.16717   0.75352   0.49933   0.00000  Uiso   1.00
C992   C     0.16616   0.91315   0.50067   0.00000  Uiso   1.00
C993   C     0.06716   0.83294   0.48801   0.00000  Uiso   1.00
C994   C     0.26618   0.83373   0.51199   0.00000  Uiso   1.00
C995   C     0.01225   0.83629   0.48176   0.00000  Uiso   1.00
C996   C     0.32108   0.83037   0.51824   0.00000  Uiso   1.00
C997   C     0.21257   0.68834   0.49452   0.00000  Uiso   1.00
C998   C     0.12075   0.97832   0.50548   0.00000  Uiso   1.00
C999   C     0.21372   0.97824   0.49832   0.00000  Uiso   1.00
C1000  C     0.11960   0.68842   0.50168   0.00000  Uiso   1.00
C1001  C     0.16722   0.95738   0.50232   0.00000  Uiso   1.00
C1002  C     0.16611   0.70928   0.49768   0.00000  Uiso   1.00
C1003  C     0.19130   0.86448   0.36228   0.00000  Uiso   1.00
C1004  C     0.14204   0.80219   0.63772   0.00000  Uiso   1.00
C1005  C     0.19182   0.86465   0.64789   0.00000  Uiso   1.00
C1006  C     0.14151   0.80201   0.35211   0.00000  Uiso   1.00
H1007  H     0.21092   0.88918   0.38461   0.00000  Uiso   1.00
H1008  H     0.12241   0.77749   0.61539   0.00000  Uiso   1.00
N1009  N     0.16665   0.83332   0.61907   0.00000  Uiso   1.00
N1010  N     0.16668   0.83334   0.38093   0.00000  Uiso   1.00
O1011  O     0.16666   0.77225   0.53821   0.00000  Uiso   1.00
O1012  O     0.16667   0.89442   0.46179   0.00000  Uiso   1.00
O1013  O     0.16666   0.77226   0.46176   0.00000  Uiso   1.00
O1014  O     0.16667   0.89441   0.53824   0.00000  Uiso   1.00
O1015  O     0.09058   0.83333   0.52928   0.00000  Uiso   1.00
O1016  O     0.24275   0.83334   0.47072   0.00000  Uiso   1.00
O1017  O     0.09058   0.83334   0.45284   0.00000  Uiso   1.00
O1018  O     0.24275   0.83333   0.54716   0.00000  Uiso   1.00
Zn1019 Zn    0.16667   0.83333   0.55104   0.00000  Uiso   1.00
Zn1020 Zn    0.16667   0.83334   0.44896   0.00000  Uiso   1.00
O1021  O     0.32066   0.85365   0.44173   0.00000  Uiso   1.00
C1022  C     0.32289   0.82607   0.40358   0.00000  Uiso   1.00
H1023  H     0.32970   0.79254   0.41236   0.00000  Uiso   1.00
H1024  H     0.01991   0.83712   0.38424   0.00000  Uiso   1.00
H1025  H     0.28543   0.82701   0.38039   0.00000  Uiso   1.00
O1026  O     0.01268   0.81300   0.55826   0.00000  Uiso   1.00
C1027  C     0.01044   0.84058   0.59642   0.00000  Uiso   1.00
H1028  H     0.31343   0.82952   0.61577   0.00000  Uiso   1.00
H1029  H     0.00362   0.87412   0.58765   0.00000  Uiso   1.00
H1030  H     0.04790   0.83964   0.61961   0.00000  Uiso   1.00
O1031  O     0.25727   0.71101   0.49127   0.00000  Uiso   1.00
C1032  C     0.26352   0.71169   0.44488   0.00000  Uiso   1.00
H1033  H     0.29894   0.73019   0.44232   0.00000  Uiso   1.00
H1034  H     0.23045   0.72720   0.42393   0.00000  Uiso   1.00
H1035  H     0.26872   0.67950   0.43044   0.00000  Uiso   1.00
O1036  O     0.07605   0.95566   0.50872   0.00000  Uiso   1.00
C1037  C     0.06981   0.95497   0.55511   0.00000  Uiso   1.00
H1038  H     0.06459   0.98716   0.56955   0.00000  Uiso   1.00
H1039  H     0.10289   0.93946   0.57605   0.00000  Uiso   1.00
H1040  H     0.03438   0.93645   0.55767   0.00000  Uiso   1.00
C1041  C     0.26379   0.95415   0.49915   0.00000  Uiso   1.00
H1042  H     0.26138   0.93310   0.46822   0.00000  Uiso   1.00
H1043  H     0.29802   0.97512   0.50042   0.00000  Uiso   1.00
H1044  H     0.27052   0.93482   0.52995   0.00000  Uiso   1.00
C1045  C     0.06954   0.71252   0.50085   0.00000  Uiso   1.00
H1046  H     0.07195   0.73357   0.53177   0.00000  Uiso   1.00
H1047  H     0.06280   0.73184   0.47005   0.00000  Uiso   1.00
H1048  H     0.03531   0.69155   0.49959   0.00000  Uiso   1.00
C1049  C     0.21990   0.90032   0.63012   0.00000  Uiso   1.00
H1050  H     0.24359   0.88890   0.60460   0.00000  Uiso   1.00
H1051  H     0.19162   0.92397   0.61548   0.00000  Uiso   1.00
H1052  H     0.24695   0.91665   0.65792   0.00000  Uiso   1.00
C1053  C     0.11344   0.76634   0.36988   0.00000  Uiso   1.00
H1054  H     0.14173   0.74269   0.38449   0.00000  Uiso   1.00
H1055  H     0.08978   0.77776   0.39543   0.00000  Uiso   1.00
H1056  H     0.08635   0.75004   0.34208   0.00000  Uiso   1.00
C1057  C     0.50051   0.75352   0.49933   0.00000  Uiso   1.00
C1058  C     0.49949   0.91315   0.50067   0.00000  Uiso   1.00
C1059  C     0.40049   0.83294   0.48801   0.00000  Uiso   1.00
C1060  C     0.59951   0.83373   0.51199   0.00000  Uiso   1.00
C1061  C     0.34558   0.83629   0.48176   0.00000  Uiso   1.00
C1062  C     0.65442   0.83037   0.51824   0.00000  Uiso   1.00
C1063  C     0.54591   0.68834   0.49452   0.00000  Uiso   1.00
C1064  C     0.45409   0.97832   0.50548   0.00000  Uiso   1.00
C1065  C     0.54706   0.97824   0.49832   0.00000  Uiso   1.00
C1066  C     0.45294   0.68842   0.50168   0.00000  Uiso   1.00
C1067  C     0.50055   0.95738   0.50232   0.00000  Uiso   1.00
C1068  C     0.49945   0.70928   0.49768   0.00000  Uiso   1.00
C1069  C     0.52463   0.86448   0.36228   0.00000  Uiso   1.00
C1070  C     0.47537   0.80219   0.63772   0.00000  Uiso   1.00
C1071  C     0.52516   0.86465   0.64789   0.00000  Uiso   1.00
C1072  C     0.47484   0.80201   0.35211   0.00000  Uiso   1.00
H1073  H     0.54426   0.88918   0.38461   0.00000  Uiso   1.00
H1074  H     0.45575   0.77749   0.61539   0.00000  Uiso   1.00
N1075  N     0.49999   0.83332   0.61907   0.00000  Uiso   1.00
N1076  N     0.50001   0.83334   0.38093   0.00000  Uiso   1.00
O1077  O     0.50000   0.77225   0.53821   0.00000  Uiso   1.00
O1078  O     0.50000   0.89442   0.46179   0.00000  Uiso   1.00
O1079  O     0.50000   0.77226   0.46176   0.00000  Uiso   1.00
O1080  O     0.50000   0.89441   0.53824   0.00000  Uiso   1.00
O1081  O     0.42392   0.83333   0.52928   0.00000  Uiso   1.00
O1082  O     0.57608   0.83334   0.47072   0.00000  Uiso   1.00
O1083  O     0.42392   0.83334   0.45284   0.00000  Uiso   1.00
O1084  O     0.57608   0.83333   0.54716   0.00000  Uiso   1.00
Zn1085 Zn    0.50000   0.83333   0.55104   0.00000  Uiso   1.00
Zn1086 Zn    0.50000   0.83334   0.44896   0.00000  Uiso   1.00
O1087  O     0.65399   0.85365   0.44173   0.00000  Uiso   1.00
C1088  C     0.65623   0.82607   0.40358   0.00000  Uiso   1.00
H1089  H     0.66304   0.79254   0.41236   0.00000  Uiso   1.00
H1090  H     0.35324   0.83712   0.38424   0.00000  Uiso   1.00
H1091  H     0.61876   0.82701   0.38039   0.00000  Uiso   1.00
O1092  O     0.34601   0.81300   0.55826   0.00000  Uiso   1.00
C1093  C     0.34377   0.84058   0.59642   0.00000  Uiso   1.00
H1094  H     0.64676   0.82952   0.61577   0.00000  Uiso   1.00
H1095  H     0.33695   0.87412   0.58765   0.00000  Uiso   1.00
H1096  H     0.38124   0.83964   0.61961   0.00000  Uiso   1.00
O1097  O     0.59061   0.71101   0.49127   0.00000  Uiso   1.00
C1098  C     0.59685   0.71169   0.44488   0.00000  Uiso   1.00
H1099  H     0.63227   0.73019   0.44232   0.00000  Uiso   1.00
H1100  H     0.56378   0.72720   0.42393   0.00000  Uiso   1.00
H1101  H     0.60205   0.67950   0.43044   0.00000  Uiso   1.00
O1102  O     0.40939   0.95566   0.50872   0.00000  Uiso   1.00
C1103  C     0.40314   0.95497   0.55511   0.00000  Uiso   1.00
H1104  H     0.39792   0.98716   0.56955   0.00000  Uiso   1.00
H1105  H     0.43622   0.93946   0.57605   0.00000  Uiso   1.00
H1106  H     0.36771   0.93645   0.55767   0.00000  Uiso   1.00
C1107  C     0.59712   0.95415   0.49915   0.00000  Uiso   1.00
H1108  H     0.59472   0.93310   0.46822   0.00000  Uiso   1.00
H1109  H     0.63135   0.97512   0.50042   0.00000  Uiso   1.00
H1110  H     0.60386   0.93482   0.52995   0.00000  Uiso   1.00
C1111  C     0.40287   0.71252   0.50085   0.00000  Uiso   1.00
H1112  H     0.40528   0.73357   0.53177   0.00000  Uiso   1.00
H1113  H     0.39614   0.73184   0.47005   0.00000  Uiso   1.00
H1114  H     0.36865   0.69155   0.49959   0.00000  Uiso   1.00
C1115  C     0.55323   0.90032   0.63012   0.00000  Uiso   1.00
H1116  H     0.57692   0.88890   0.60460   0.00000  Uiso   1.00
H1117  H     0.52495   0.92397   0.61548   0.00000  Uiso   1.00
H1118  H     0.58029   0.91665   0.65792   0.00000  Uiso   1.00
C1119  C     0.44678   0.76634   0.36988   0.00000  Uiso   1.00
H1120  H     0.47506   0.74269   0.38449   0.00000  Uiso   1.00
H1121  H     0.42312   0.77776   0.39543   0.00000  Uiso   1.00
H1122  H     0.41969   0.75004   0.34208   0.00000  Uiso   1.00
C1123  C     0.83384   0.75352   0.49933   0.00000  Uiso   1.00
C1124  C     0.83282   0.91315   0.50067   0.00000  Uiso   1.00
C1125  C     0.73382   0.83294   0.48801   0.00000  Uiso   1.00
C1126  C     0.93284   0.83373   0.51199   0.00000  Uiso   1.00
C1127  C     0.67892   0.83629   0.48176   0.00000  Uiso   1.00
C1128  C     0.98775   0.83037   0.51824   0.00000  Uiso   1.00
C1129  C     0.87924   0.68834   0.49452   0.00000  Uiso   1.00
C1130  C     0.78742   0.97832   0.50548   0.00000  Uiso   1.00
C1131  C     0.88039   0.97824   0.49832   0.00000  Uiso   1.00
C1132  C     0.78627   0.68842   0.50168   0.00000  Uiso   1.00
C1133  C     0.83388   0.95738   0.50232   0.00000  Uiso   1.00
C1134  C     0.83278   0.70928   0.49768   0.00000  Uiso   1.00
C1135  C     0.85796   0.86448   0.36228   0.00000  Uiso   1.00
C1136  C     0.80870   0.80219   0.63772   0.00000  Uiso   1.00
C1137  C     0.85849   0.86465   0.64789   0.00000  Uiso   1.00
C1138  C     0.80818   0.80201   0.35211   0.00000  Uiso   1.00
H1139  H     0.87759   0.88918   0.38461   0.00000  Uiso   1.00
H1140  H     0.78908   0.77749   0.61539   0.00000  Uiso   1.00
N1141  N     0.83332   0.83332   0.61907   0.00000  Uiso   1.00
N1142  N     0.83335   0.83334   0.38093   0.00000  Uiso   1.00
O1143  O     0.83333   0.77225   0.53821   0.00000  Uiso   1.00
O1144  O     0.83334   0.89442   0.46179   0.00000  Uiso   1.00
O1145  O     0.83333   0.77226   0.46176   0.00000  Uiso   1.00
O1146  O     0.83334   0.89441   0.53824   0.00000  Uiso   1.00
O1147  O     0.75725   0.83333   0.52928   0.00000  Uiso   1.00
O1148  O     0.90942   0.83334   0.47072   0.00000  Uiso   1.00
O1149  O     0.75725   0.83334   0.45284   0.00000  Uiso   1.00
O1150  O     0.90942   0.83333   0.54716   0.00000  Uiso   1.00
Zn1151 Zn    0.83333   0.83333   0.55104   0.00000  Uiso   1.00
Zn1152 Zn    0.83333   0.83334   0.44896   0.00000  Uiso   1.00
O1153  O     0.98732   0.85365   0.44173   0.00000  Uiso   1.00
C1154  C     0.98956   0.82607   0.40358   0.00000  Uiso   1.00
H1155  H     0.99637   0.79254   0.41236   0.00000  Uiso   1.00
H1156  H     0.68657   0.83712   0.38424   0.00000  Uiso   1.00
H1157  H     0.95210   0.82701   0.38039   0.00000  Uiso   1.00
O1158  O     0.67935   0.81300   0.55826   0.00000  Uiso   1.00
C1159  C     0.67710   0.84058   0.59642   0.00000  Uiso   1.00
H1160  H     0.98009   0.82952   0.61577   0.00000  Uiso   1.00
H1161  H     0.67029   0.87412   0.58765   0.00000  Uiso   1.00
H1162  H     0.71457   0.83964   0.61961   0.00000  Uiso   1.00
O1163  O     0.92394   0.71101   0.49127   0.00000  Uiso   1.00
C1164  C     0.93018   0.71169   0.44488   0.00000  Uiso   1.00
H1165  H     0.96560   0.73019   0.44232   0.00000  Uiso   1.00
H1166  H     0.89712   0.72720   0.42393   0.00000  Uiso   1.00
H1167  H     0.93539   0.67950   0.43044   0.00000  Uiso   1.00
O1168  O     0.74272   0.95566   0.50872   0.00000  Uiso   1.00
C1169  C     0.73648   0.95497   0.55511   0.00000  Uiso   1.00
H1170  H     0.73126   0.98716   0.56955   0.00000  Uiso   1.00
H1171  H     0.76956   0.93946   0.57605   0.00000  Uiso   1.00
H1172  H     0.70105   0.93645   0.55767   0.00000  Uiso   1.00
C1173  C     0.93046   0.95415   0.49915   0.00000  Uiso   1.00
H1174  H     0.92805   0.93310   0.46822   0.00000  Uiso   1.00
H1175  H     0.96468   0.97512   0.50042   0.00000  Uiso   1.00
H1176  H     0.93719   0.93482   0.52995   0.00000  Uiso   1.00
C1177  C     0.73620   0.71252   0.50085   0.00000  Uiso   1.00
H1178  H     0.73861   0.73357   0.53177   0.00000  Uiso   1.00
H1179  H     0.72947   0.73184   0.47005   0.00000  Uiso   1.00
H1180  H     0.70198   0.69155   0.49959   0.00000  Uiso   1.00
C1181  C     0.88656   0.90032   0.63012   0.00000  Uiso   1.00
H1182  H     0.91026   0.88890   0.60460   0.00000  Uiso   1.00
H1183  H     0.85828   0.92397   0.61548   0.00000  Uiso   1.00
H1184  H     0.91362   0.91665   0.65792   0.00000  Uiso   1.00
C1185  C     0.78011   0.76634   0.36988   0.00000  Uiso   1.00
H1186  H     0.80839   0.74269   0.38449   0.00000  Uiso   1.00
H1187  H     0.75645   0.77776   0.39543   0.00000  Uiso   1.00
H1188  H     0.75302   0.75004   0.34208   0.00000  Uiso   1.00
C1189  C     0.16717   0.08685   0.83266   0.00000  Uiso   1.00
C1190  C     0.16616   0.24648   0.83400   0.00000  Uiso   1.00
C1191  C     0.06716   0.16627   0.82134   0.00000  Uiso   1.00
C1192  C     0.26618   0.16706   0.84533   0.00000  Uiso   1.00
C1193  C     0.01225   0.16962   0.81509   0.00000  Uiso   1.00
C1194  C     0.32108   0.16371   0.85157   0.00000  Uiso   1.00
C1195  C     0.21257   0.02168   0.82785   0.00000  Uiso   1.00
C1196  C     0.12075   0.31166   0.83881   0.00000  Uiso   1.00
C1197  C     0.21372   0.31158   0.83165   0.00000  Uiso   1.00
C1198  C     0.11960   0.02176   0.83501   0.00000  Uiso   1.00
C1199  C     0.16722   0.29072   0.83566   0.00000  Uiso   1.00
C1200  C     0.16611   0.04262   0.83101   0.00000  Uiso   1.00
C1201  C     0.19130   0.19781   0.69561   0.00000  Uiso   1.00
C1202  C     0.14204   0.13552   0.97105   0.00000  Uiso   1.00
C1203  C     0.19182   0.19799   0.98123   0.00000  Uiso   1.00
C1204  C     0.14151   0.13535   0.68544   0.00000  Uiso   1.00
H1205  H     0.21092   0.22251   0.71794   0.00000  Uiso   1.00
H1206  H     0.12241   0.11082   0.94873   0.00000  Uiso   1.00
N1207  N     0.16665   0.16666   0.95240   0.00000  Uiso   1.00
N1208  N     0.16668   0.16668   0.71427   0.00000  Uiso   1.00
O1209  O     0.16666   0.10558   0.87154   0.00000  Uiso   1.00
O1210  O     0.16667   0.22775   0.79513   0.00000  Uiso   1.00
O1211  O     0.16666   0.10559   0.79510   0.00000  Uiso   1.00
O1212  O     0.16667   0.22774   0.87157   0.00000  Uiso   1.00
O1213  O     0.09058   0.16666   0.86261   0.00000  Uiso   1.00
O1214  O     0.24275   0.16667   0.80405   0.00000  Uiso   1.00
O1215  O     0.09058   0.16667   0.78617   0.00000  Uiso   1.00
O1216  O     0.24275   0.16666   0.88050   0.00000  Uiso   1.00
Zn1217 Zn    0.16667   0.16666   0.88437   0.00000  Uiso   1.00
Zn1218 Zn    0.16667   0.16667   0.78229   0.00000  Uiso   1.00
O1219  O     0.32066   0.18699   0.77507   0.00000  Uiso   1.00
C1220  C     0.32289   0.15940   0.73692   0.00000  Uiso   1.00
H1221  H     0.32970   0.12587   0.74569   0.00000  Uiso   1.00
H1222  H     0.01991   0.17046   0.71757   0.00000  Uiso   1.00
H1223  H     0.28543   0.16035   0.71372   0.00000  Uiso   1.00
O1224  O     0.01268   0.14634   0.89160   0.00000  Uiso   1.00
C1225  C     0.01044   0.17392   0.92975   0.00000  Uiso   1.00
H1226  H     0.31343   0.16285   0.94910   0.00000  Uiso   1.00
H1227  H     0.00362   0.20745   0.92098   0.00000  Uiso   1.00
H1228  H     0.04790   0.17297   0.95295   0.00000  Uiso   1.00
O1229  O     0.25727   0.04434   0.82460   0.00000  Uiso   1.00
C1230  C     0.26352   0.04502   0.77822   0.00000  Uiso   1.00
H1231  H     0.29894   0.06352   0.77565   0.00000  Uiso   1.00
H1232  H     0.23045   0.06053   0.75726   0.00000  Uiso   1.00
H1233  H     0.26872   0.01284   0.76377   0.00000  Uiso   1.00
O1234  O     0.07605   0.28899   0.84206   0.00000  Uiso   1.00
C1235  C     0.06981   0.28830   0.88844   0.00000  Uiso   1.00
H1236  H     0.06459   0.32049   0.90289   0.00000  Uiso   1.00
H1237  H     0.10289   0.27279   0.90939   0.00000  Uiso   1.00
H1238  H     0.03438   0.26979   0.89100   0.00000  Uiso   1.00
C1239  C     0.26379   0.28748   0.83248   0.00000  Uiso   1.00
H1240  H     0.26138   0.26644   0.80156   0.00000  Uiso   1.00
H1241  H     0.29802   0.30845   0.83375   0.00000  Uiso   1.00
H1242  H     0.27052   0.26816   0.86328   0.00000  Uiso   1.00
C1243  C     0.06954   0.04585   0.83418   0.00000  Uiso   1.00
H1244  H     0.07195   0.06690   0.86510   0.00000  Uiso   1.00
H1245  H     0.06280   0.06517   0.80338   0.00000  Uiso   1.00
H1246  H     0.03531   0.02488   0.83292   0.00000  Uiso   1.00
C1247  C     0.21990   0.23366   0.96345   0.00000  Uiso   1.00
H1248  H     0.24359   0.22224   0.93793   0.00000  Uiso   1.00
H1249  H     0.19162   0.25730   0.94882   0.00000  Uiso   1.00
H1250  H     0.24695   0.24998   0.99126   0.00000  Uiso   1.00
C1251  C     0.11344   0.09968   0.70322   0.00000  Uiso   1.00
H1252  H     0.14173   0.07602   0.71782   0.00000  Uiso   1.00
H1253  H     0.08978   0.11109   0.72876   0.00000  Uiso   1.00
H1254  H     0.08635   0.08337   0.67542   0.00000  Uiso   1.00
C1255  C     0.50051   0.08685   0.83266   0.00000  Uiso   1.00
C1256  C     0.49949   0.24648   0.83400   0.00000  Uiso   1.00
C1257  C     0.40049   0.16627   0.82134   0.00000  Uiso   1.00
C1258  C     0.59951   0.16706   0.84533   0.00000  Uiso   1.00
C1259  C     0.34558   0.16962   0.81509   0.00000  Uiso   1.00
C1260  C     0.65442   0.16371   0.85157   0.00000  Uiso   1.00
C1261  C     0.54591   0.02168   0.82785   0.00000  Uiso   1.00
C1262  C     0.45409   0.31166   0.83881   0.00000  Uiso   1.00
C1263  C     0.54706   0.31158   0.83165   0.00000  Uiso   1.00
C1264  C     0.45294   0.02176   0.83501   0.00000  Uiso   1.00
C1265  C     0.50055   0.29072   0.83566   0.00000  Uiso   1.00
C1266  C     0.49945   0.04262   0.83101   0.00000  Uiso   1.00
C1267  C     0.52463   0.19781   0.69561   0.00000  Uiso   1.00
C1268  C     0.47537   0.13552   0.97105   0.00000  Uiso   1.00
C1269  C     0.52516   0.19799   0.98123   0.00000  Uiso   1.00
C1270  C     0.47484   0.13535   0.68544   0.00000  Uiso   1.00
H1271  H     0.54426   0.22251   0.71794   0.00000  Uiso   1.00
H1272  H     0.45575   0.11082   0.94873   0.00000  Uiso   1.00
N1273  N     0.49999   0.16666   0.95240   0.00000  Uiso   1.00
N1274  N     0.50001   0.16668   0.71427   0.00000  Uiso   1.00
O1275  O     0.50000   0.10558   0.87154   0.00000  Uiso   1.00
O1276  O     0.50000   0.22775   0.79513   0.00000  Uiso   1.00
O1277  O     0.50000   0.10559   0.79510   0.00000  Uiso   1.00
O1278  O     0.50000   0.22774   0.87157   0.00000  Uiso   1.00
O1279  O     0.42392   0.16666   0.86261   0.00000  Uiso   1.00
O1280  O     0.57608   0.16667   0.80405   0.00000  Uiso   1.00
O1281  O     0.42392   0.16667   0.78617   0.00000  Uiso   1.00
O1282  O     0.57608   0.16666   0.88050   0.00000  Uiso   1.00
Zn1283 Zn    0.50000   0.16666   0.88437   0.00000  Uiso   1.00
Zn1284 Zn    0.50000   0.16667   0.78229   0.00000  Uiso   1.00
O1285  O     0.65399   0.18699   0.77507   0.00000  Uiso   1.00
C1286  C     0.65623   0.15940   0.73692   0.00000  Uiso   1.00
H1287  H     0.66304   0.12587   0.74569   0.00000  Uiso   1.00
H1288  H     0.35324   0.17046   0.71757   0.00000  Uiso   1.00
H1289  H     0.61876   0.16035   0.71372   0.00000  Uiso   1.00
O1290  O     0.34601   0.14634   0.89160   0.00000  Uiso   1.00
C1291  C     0.34377   0.17392   0.92975   0.00000  Uiso   1.00
H1292  H     0.64676   0.16285   0.94910   0.00000  Uiso   1.00
H1293  H     0.33695   0.20745   0.92098   0.00000  Uiso   1.00
H1294  H     0.38124   0.17297   0.95295   0.00000  Uiso   1.00
O1295  O     0.59061   0.04434   0.82460   0.00000  Uiso   1.00
C1296  C     0.59685   0.04502   0.77822   0.00000  Uiso   1.00
H1297  H     0.63227   0.06352   0.77565   0.00000  Uiso   1.00
H1298  H     0.56378   0.06053   0.75726   0.00000  Uiso   1.00
H1299  H     0.60205   0.01284   0.76377   0.00000  Uiso   1.00
O1300  O     0.40939   0.28899   0.84206   0.00000  Uiso   1.00
C1301  C     0.40314   0.28830   0.88844   0.00000  Uiso   1.00
H1302  H     0.39792   0.32049   0.90289   0.00000  Uiso   1.00
H1303  H     0.43622   0.27279   0.90939   0.00000  Uiso   1.00
H1304  H     0.36771   0.26979   0.89100   0.00000  Uiso   1.00
C1305  C     0.59712   0.28748   0.83248   0.00000  Uiso   1.00
H1306  H     0.59472   0.26644   0.80156   0.00000  Uiso   1.00
H1307  H     0.63135   0.30845   0.83375   0.00000  Uiso   1.00
H1308  H     0.60386   0.26816   0.86328   0.00000  Uiso   1.00
C1309  C     0.40287   0.04585   0.83418   0.00000  Uiso   1.00
H1310  H     0.40528   0.06690   0.86510   0.00000  Uiso   1.00
H1311  H     0.39614   0.06517   0.80338   0.00000  Uiso   1.00
H1312  H     0.36865   0.02488   0.83292   0.00000  Uiso   1.00
C1313  C     0.55323   0.23366   0.96345   0.00000  Uiso   1.00
H1314  H     0.57692   0.22224   0.93793   0.00000  Uiso   1.00
H1315  H     0.52495   0.25730   0.94882   0.00000  Uiso   1.00
H1316  H     0.58029   0.24998   0.99126   0.00000  Uiso   1.00
C1317  C     0.44678   0.09968   0.70322   0.00000  Uiso   1.00
H1318  H     0.47506   0.07602   0.71782   0.00000  Uiso   1.00
H1319  H     0.42312   0.11109   0.72876   0.00000  Uiso   1.00
H1320  H     0.41969   0.08337   0.67542   0.00000  Uiso   1.00
C1321  C     0.83384   0.08685   0.83266   0.00000  Uiso   1.00
C1322  C     0.83282   0.24648   0.83400   0.00000  Uiso   1.00
C1323  C     0.73382   0.16627   0.82134   0.00000  Uiso   1.00
C1324  C     0.93284   0.16706   0.84533   0.00000  Uiso   1.00
C1325  C     0.67892   0.16962   0.81509   0.00000  Uiso   1.00
C1326  C     0.98775   0.16371   0.85157   0.00000  Uiso   1.00
C1327  C     0.87924   0.02168   0.82785   0.00000  Uiso   1.00
C1328  C     0.78742   0.31166   0.83881   0.00000  Uiso   1.00
C1329  C     0.88039   0.31158   0.83165   0.00000  Uiso   1.00
C1330  C     0.78627   0.02176   0.83501   0.00000  Uiso   1.00
C1331  C     0.83388   0.29072   0.83566   0.00000  Uiso   1.00
C1332  C     0.83278   0.04262   0.83101   0.00000  Uiso   1.00
C1333  C     0.85796   0.19781   0.69561   0.00000  Uiso   1.00
C1334  C     0.80870   0.13552   0.97105   0.00000  Uiso   1.00
C1335  C     0.85849   0.19799   0.98123   0.00000  Uiso   1.00
C1336  C     0.80818   0.13535   0.68544   0.00000  Uiso   1.00
H1337  H     0.87759   0.22251   0.71794   0.00000  Uiso   1.00
H1338  H     0.78908   0.11082   0.94873   0.00000  Uiso   1.00
N1339  N     0.83332   0.16666   0.95240   0.00000  Uiso   1.00
N1340  N     0.83335   0.16668   0.71427   0.00000  Uiso   1.00
O1341  O     0.83333   0.10558   0.87154   0.00000  Uiso   1.00
O1342  O     0.83334   0.22775   0.79513   0.00000  Uiso   1.00
O1343  O     0.83333   0.10559   0.79510   0.00000  Uiso   1.00
O1344  O     0.83334   0.22774   0.87157   0.00000  Uiso   1.00
O1345  O     0.75725   0.16666   0.86261   0.00000  Uiso   1.00
O1346  O     0.90942   0.16667   0.80405   0.00000  Uiso   1.00
O1347  O     0.75725   0.16667   0.78617   0.00000  Uiso   1.00
O1348  O     0.90942   0.16666   0.88050   0.00000  Uiso   1.00
Zn1349 Zn    0.83333   0.16666   0.88437   0.00000  Uiso   1.00
Zn1350 Zn    0.83333   0.16667   0.78229   0.00000  Uiso   1.00
O1351  O     0.98732   0.18699   0.77507   0.00000  Uiso   1.00
C1352  C     0.98956   0.15940   0.73692   0.00000  Uiso   1.00
H1353  H     0.99637   0.12587   0.74569   0.00000  Uiso   1.00
H1354  H     0.68657   0.17046   0.71757   0.00000  Uiso   1.00
H1355  H     0.95210   0.16035   0.71372   0.00000  Uiso   1.00
O1356  O     0.67935   0.14634   0.89160   0.00000  Uiso   1.00
C1357  C     0.67710   0.17392   0.92975   0.00000  Uiso   1.00
H1358  H     0.98009   0.16285   0.94910   0.00000  Uiso   1.00
H1359  H     0.67029   0.20745   0.92098   0.00000  Uiso   1.00
H1360  H     0.71457   0.17297   0.95295   0.00000  Uiso   1.00
O1361  O     0.92394   0.04434   0.82460   0.00000  Uiso   1.00
C1362  C     0.93018   0.04502   0.77822   0.00000  Uiso   1.00
H1363  H     0.96560   0.06352   0.77565   0.00000  Uiso   1.00
H1364  H     0.89712   0.06053   0.75726   0.00000  Uiso   1.00
H1365  H     0.93539   0.01284   0.76377   0.00000  Uiso   1.00
O1366  O     0.74272   0.28899   0.84206   0.00000  Uiso   1.00
C1367  C     0.73648   0.28830   0.88844   0.00000  Uiso   1.00
H1368  H     0.73126   0.32049   0.90289   0.00000  Uiso   1.00
H1369  H     0.76956   0.27279   0.90939   0.00000  Uiso   1.00
H1370  H     0.70105   0.26979   0.89100   0.00000  Uiso   1.00
C1371  C     0.93046   0.28748   0.83248   0.00000  Uiso   1.00
H1372  H     0.92805   0.26644   0.80156   0.00000  Uiso   1.00
H1373  H     0.96468   0.30845   0.83375   0.00000  Uiso   1.00
H1374  H     0.93719   0.26816   0.86328   0.00000  Uiso   1.00
C1375  C     0.73620   0.04585   0.83418   0.00000  Uiso   1.00
H1376  H     0.73861   0.06690   0.86510   0.00000  Uiso   1.00
H1377  H     0.72947   0.06517   0.80338   0.00000  Uiso   1.00
H1378  H     0.70198   0.02488   0.83292   0.00000  Uiso   1.00
C1379  C     0.88656   0.23366   0.96345   0.00000  Uiso   1.00
H1380  H     0.91026   0.22224   0.93793   0.00000  Uiso   1.00
H1381  H     0.85828   0.25730   0.94882   0.00000  Uiso   1.00
H1382  H     0.91362   0.24998   0.99126   0.00000  Uiso   1.00
C1383  C     0.78011   0.09968   0.70322   0.00000  Uiso   1.00
H1384  H     0.80839   0.07602   0.71782   0.00000  Uiso   1.00
H1385  H     0.75645   0.11109   0.72876   0.00000  Uiso   1.00
H1386  H     0.75302   0.08337   0.67542   0.00000  Uiso   1.00
C1387  C     0.16717   0.42019   0.83266   0.00000  Uiso   1.00
C1388  C     0.16616   0.57982   0.83400   0.00000  Uiso   1.00
C1389  C     0.06716   0.49961   0.82134   0.00000  Uiso   1.00
C1390  C     0.26618   0.50039   0.84533   0.00000  Uiso   1.00
C1391  C     0.01225   0.50295   0.81509   0.00000  Uiso   1.00
C1392  C     0.32108   0.49704   0.85157   0.00000  Uiso   1.00
C1393  C     0.21257   0.35501   0.82785   0.00000  Uiso   1.00
C1394  C     0.12075   0.64499   0.83881   0.00000  Uiso   1.00
C1395  C     0.21372   0.64491   0.83165   0.00000  Uiso   1.00
C1396  C     0.11960   0.35509   0.83501   0.00000  Uiso   1.00
C1397  C     0.16722   0.62405   0.83566   0.00000  Uiso   1.00
C1398  C     0.16611   0.37595   0.83101   0.00000  Uiso   1.00
C1399  C     0.19130   0.53115   0.69561   0.00000  Uiso   1.00
C1400  C     0.14204   0.46885   0.97105   0.00000  Uiso   1.00
C1401  C     0.19182   0.53132   0.98123   0.00000  Uiso   1.00
C1402  C     0.14151   0.46868   0.68544   0.00000  Uiso   1.00
H1403  H     0.21092   0.55585   0.71794   0.00000  Uiso   1.00
H1404  H     0.12241   0.44415   0.94873   0.00000  Uiso   1.00
N1405  N     0.16665   0.49999   0.95240   0.00000  Uiso   1.00
N1406  N     0.16668   0.50001   0.71427   0.00000  Uiso   1.00
O1407  O     0.16666   0.43892   0.87154   0.00000  Uiso   1.00
O1408  O     0.16667   0.56108   0.79513   0.00000  Uiso   1.00
O1409  O     0.16666   0.43893   0.79510   0.00000  Uiso   1.00
O1410  O     0.16667   0.56107   0.87157   0.00000  Uiso   1.00
O1411  O     0.09058   0.50000   0.86261   0.00000  Uiso   1.00
O1412  O     0.24275   0.50000   0.80405   0.00000  Uiso   1.00
O1413  O     0.09058   0.50000   0.78617   0.00000  Uiso   1.00
O1414  O     0.24275   0.50000   0.88050   0.00000  Uiso   1.00
Zn1415 Zn    0.16667   0.49999   0.88437   0.00000  Uiso   1.00
Zn1416 Zn    0.16667   0.50001   0.78229   0.00000  Uiso   1.00
O1417  O     0.32066   0.52032   0.77507   0.00000  Uiso   1.00
C1418  C     0.32289   0.49273   0.73692   0.00000  Uiso   1.00
H1419  H     0.32970   0.45920   0.74569   0.00000  Uiso   1.00
H1420  H     0.01991   0.50379   0.71757   0.00000  Uiso   1.00
H1421  H     0.28543   0.49368   0.71372   0.00000  Uiso   1.00
O1422  O     0.01268   0.47967   0.89160   0.00000  Uiso   1.00
C1423  C     0.01044   0.50725   0.92975   0.00000  Uiso   1.00
H1424  H     0.31343   0.49619   0.94910   0.00000  Uiso   1.00
H1425  H     0.00362   0.54078   0.92098   0.00000  Uiso   1.00
H1426  H     0.04790   0.50630   0.95295   0.00000  Uiso   1.00
O1427  O     0.25727   0.37768   0.82460   0.00000  Uiso   1.00
C1428  C     0.26352   0.37835   0.77822   0.00000  Uiso   1.00
H1429  H     0.29894   0.39685   0.77565   0.00000  Uiso   1.00
H1430  H     0.23045   0.39387   0.75726   0.00000  Uiso   1.00
H1431  H     0.26872   0.34617   0.76377   0.00000  Uiso   1.00
O1432  O     0.07605   0.62232   0.84206   0.00000  Uiso   1.00
C1433  C     0.06981   0.62164   0.88844   0.00000  Uiso   1.00
H1434  H     0.06459   0.65383   0.90289   0.00000  Uiso   1.00
H1435  H     0.10289   0.60612   0.90939   0.00000  Uiso   1.00
H1436  H     0.03438   0.60312   0.89100   0.00000  Uiso   1.00
C1437  C     0.26379   0.62082   0.83248   0.00000  Uiso   1.00
H1438  H     0.26138   0.59977   0.80156   0.00000  Uiso   1.00
H1439  H     0.29802   0.64179   0.83375   0.00000  Uiso   1.00
H1440  H     0.27052   0.60149   0.86328   0.00000  Uiso   1.00
C1441  C     0.06954   0.37919   0.83418   0.00000  Uiso   1.00
H1442  H     0.07195   0.40024   0.86510   0.00000  Uiso   1.00
H1443  H     0.06280   0.39851   0.80338   0.00000  Uiso   1.00
H1444  H     0.03531   0.35822   0.83292   0.00000  Uiso   1.00
C1445  C     0.21990   0.56699   0.96345   0.00000  Uiso   1.00
H1446  H     0.24359   0.55557   0.93793   0.00000  Uiso   1.00
H1447  H     0.19162   0.59063   0.94882   0.00000  Uiso   1.00
H1448  H     0.24695   0.58331   0.99126   0.00000  Uiso   1.00
C1449  C     0.11344   0.43301   0.70322   0.00000  Uiso   1.00
H1450  H     0.14173   0.40935   0.71782   0.00000  Uiso   1.00
H1451  H     0.08978   0.44442   0.72876   0.00000  Uiso   1.00
H1452  H     0.08635   0.41670   0.67542   0.00000  Uiso   1.00
C1453  C     0.50051   0.42019   0.83266   0.00000  Uiso   1.00
C1454  C     0.49949   0.57982   0.83400   0.00000  Uiso   1.00
C1455  C     0.40049   0.49961   0.82134   0.00000  Uiso   1.00
C1456  C     0.59951   0.50039   0.84533   0.00000  Uiso   1.00
C1457  C     0.34558   0.50295   0.81509   0.00000  Uiso   1.00
C1458  C     0.65442   0.49704   0.85157   0.00000  Uiso   1.00
C1459  C     0.54591   0.35501   0.82785   0.00000  Uiso   1.00
C1460  C     0.45409   0.64499   0.83881   0.00000  Uiso   1.00
C1461  C     0.54706   0.64491   0.83165   0.00000  Uiso   1.00
C1462  C     0.45294   0.35509   0.83501   0.00000  Uiso   1.00
C1463  C     0.50055   0.62405   0.83566   0.00000  Uiso   1.00
C1464  C     0.49945   0.37595   0.83101   0.00000  Uiso   1.00
C1465  C     0.52463   0.53115   0.69561   0.00000  Uiso   1.00
C1466  C     0.47537   0.46885   0.97105   0.00000  Uiso   1.00
C1467  C     0.52516   0.53132   0.98123   0.00000  Uiso   1.00
C1468  C     0.47484   0.46868   0.68544   0.00000  Uiso   1.00
H1469  H     0.54426   0.55585   0.71794   0.00000  Uiso   1.00
H1470  H     0.45575   0.44415   0.94873   0.00000  Uiso   1.00
N1471  N     0.49999   0.49999   0.95240   0.00000  Uiso   1.00
N1472  N     0.50001   0.50001   0.71427   0.00000  Uiso   1.00
O1473  O     0.50000   0.43892   0.87154   0.00000  Uiso   1.00
O1474  O     0.50000   0.56108   0.79513   0.00000  Uiso   1.00
O1475  O     0.50000   0.43893   0.79510   0.00000  Uiso   1.00
O1476  O     0.50000   0.56107   0.87157   0.00000  Uiso   1.00
O1477  O     0.42392   0.50000   0.86261   0.00000  Uiso   1.00
O1478  O     0.57608   0.50000   0.80405   0.00000  Uiso   1.00
O1479  O     0.42392   0.50000   0.78617   0.00000  Uiso   1.00
O1480  O     0.57608   0.50000   0.88050   0.00000  Uiso   1.00
Zn1481 Zn    0.50000   0.49999   0.88437   0.00000  Uiso   1.00
Zn1482 Zn    0.50000   0.50001   0.78229   0.00000  Uiso   1.00
O1483  O     0.65399   0.52032   0.77507   0.00000  Uiso   1.00
C1484  C     0.65623   0.49273   0.73692   0.00000  Uiso   1.00
H1485  H     0.66304   0.45920   0.74569   0.00000  Uiso   1.00
H1486  H     0.35324   0.50379   0.71757   0.00000  Uiso   1.00
H1487  H     0.61876   0.49368   0.71372   0.00000  Uiso   1.00
O1488  O     0.34601   0.47967   0.89160   0.00000  Uiso   1.00
C1489  C     0.34377   0.50725   0.92975   0.00000  Uiso   1.00
H1490  H     0.64676   0.49619   0.94910   0.00000  Uiso   1.00
H1491  H     0.33695   0.54078   0.92098   0.00000  Uiso   1.00
H1492  H     0.38124   0.50630   0.95295   0.00000  Uiso   1.00
O1493  O     0.59061   0.37768   0.82460   0.00000  Uiso   1.00
C1494  C     0.59685   0.37835   0.77822   0.00000  Uiso   1.00
H1495  H     0.63227   0.39685   0.77565   0.00000  Uiso   1.00
H1496  H     0.56378   0.39387   0.75726   0.00000  Uiso   1.00
H1497  H     0.60205   0.34617   0.76377   0.00000  Uiso   1.00
O1498  O     0.40939   0.62232   0.84206   0.00000  Uiso   1.00
C1499  C     0.40314   0.62164   0.88844   0.00000  Uiso   1.00
H1500  H     0.39792   0.65383   0.90289   0.00000  Uiso   1.00
H1501  H     0.43622   0.60612   0.90939   0.00000  Uiso   1.00
H1502  H     0.36771   0.60312   0.89100   0.00000  Uiso   1.00
C1503  C     0.59712   0.62082   0.83248   0.00000  Uiso   1.00
H1504  H     0.59472   0.59977   0.80156   0.00000  Uiso   1.00
H1505  H     0.63135   0.64179   0.83375   0.00000  Uiso   1.00
H1506  H     0.60386   0.60149   0.86328   0.00000  Uiso   1.00
C1507  C     0.40287   0.37919   0.83418   0.00000  Uiso   1.00
H1508  H     0.40528   0.40024   0.86510   0.00000  Uiso   1.00
H1509  H     0.39614   0.39851   0.80338   0.00000  Uiso   1.00
H1510  H     0.36865   0.35822   0.83292   0.00000  Uiso   1.00
C1511  C     0.55323   0.56699   0.96345   0.00000  Uiso   1.00
H1512  H     0.57692   0.55557   0.93793   0.00000  Uiso   1.00
H1513  H     0.52495   0.59063   0.94882   0.00000  Uiso   1.00
H1514  H     0.58029   0.58331   0.99126   0.00000  Uiso   1.00
C1515  C     0.44678   0.43301   0.70322   0.00000  Uiso   1.00
H1516  H     0.47506   0.40935   0.71782   0.00000  Uiso   1.00
H1517  H     0.42312   0.44442   0.72876   0.00000  Uiso   1.00
H1518  H     0.41969   0.41670   0.67542   0.00000  Uiso   1.00
C1519  C     0.83384   0.42019   0.83266   0.00000  Uiso   1.00
C1520  C     0.83282   0.57982   0.83400   0.00000  Uiso   1.00
C1521  C     0.73382   0.49961   0.82134   0.00000  Uiso   1.00
C1522  C     0.93284   0.50039   0.84533   0.00000  Uiso   1.00
C1523  C     0.67892   0.50295   0.81509   0.00000  Uiso   1.00
C1524  C     0.98775   0.49704   0.85157   0.00000  Uiso   1.00
C1525  C     0.87924   0.35501   0.82785   0.00000  Uiso   1.00
C1526  C     0.78742   0.64499   0.83881   0.00000  Uiso   1.00
C1527  C     0.88039   0.64491   0.83165   0.00000  Uiso   1.00
C1528  C     0.78627   0.35509   0.83501   0.00000  Uiso   1.00
C1529  C     0.83388   0.62405   0.83566   0.00000  Uiso   1.00
C1530  C     0.83278   0.37595   0.83101   0.00000  Uiso   1.00
C1531  C     0.85796   0.53115   0.69561   0.00000  Uiso   1.00
C1532  C     0.80870   0.46885   0.97105   0.00000  Uiso   1.00
C1533  C     0.85849   0.53132   0.98123   0.00000  Uiso   1.00
C1534  C     0.80818   0.46868   0.68544   0.00000  Uiso   1.00
H1535  H     0.87759   0.55585   0.71794   0.00000  Uiso   1.00
H1536  H     0.78908   0.44415   0.94873   0.00000  Uiso   1.00
N1537  N     0.83332   0.49999   0.95240   0.00000  Uiso   1.00
N1538  N     0.83335   0.50001   0.71427   0.00000  Uiso   1.00
O1539  O     0.83333   0.43892   0.87154   0.00000  Uiso   1.00
O1540  O     0.83334   0.56108   0.79513   0.00000  Uiso   1.00
O1541  O     0.83333   0.43893   0.79510   0.00000  Uiso   1.00
O1542  O     0.83334   0.56107   0.87157   0.00000  Uiso   1.00
O1543  O     0.75725   0.50000   0.86261   0.00000  Uiso   1.00
O1544  O     0.90942   0.50000   0.80405   0.00000  Uiso   1.00
O1545  O     0.75725   0.50000   0.78617   0.00000  Uiso   1.00
O1546  O     0.90942   0.50000   0.88050   0.00000  Uiso   1.00
Zn1547 Zn    0.83333   0.49999   0.88437   0.00000  Uiso   1.00
Zn1548 Zn    0.83333   0.50001   0.78229   0.00000  Uiso   1.00
O1549  O     0.98732   0.52032   0.77507   0.00000  Uiso   1.00
C1550  C     0.98956   0.49273   0.73692   0.00000  Uiso   1.00
H1551  H     0.99637   0.45920   0.74569   0.00000  Uiso   1.00
H1552  H     0.68657   0.50379   0.71757   0.00000  Uiso   1.00
H1553  H     0.95210   0.49368   0.71372   0.00000  Uiso   1.00
O1554  O     0.67935   0.47967   0.89160   0.00000  Uiso   1.00
C1555  C     0.67710   0.50725   0.92975   0.00000  Uiso   1.00
H1556  H     0.98009   0.49619   0.94910   0.00000  Uiso   1.00
H1557  H     0.67029   0.54078   0.92098   0.00000  Uiso   1.00
H1558  H     0.71457   0.50630   0.95295   0.00000  Uiso   1.00
O1559  O     0.92394   0.37768   0.82460   0.00000  Uiso   1.00
C1560  C     0.93018   0.37835   0.77822   0.00000  Uiso   1.00
H1561  H     0.96560   0.39685   0.77565   0.00000  Uiso   1.00
H1562  H     0.89712   0.39387   0.75726   0.00000  Uiso   1.00
H1563  H     0.93539   0.34617   0.76377   0.00000  Uiso   1.00
O1564  O     0.74272   0.62232   0.84206   0.00000  Uiso   1.00
C1565  C     0.73648   0.62164   0.88844   0.00000  Uiso   1.00
H1566  H     0.73126   0.65383   0.90289   0.00000  Uiso   1.00
H1567  H     0.76956   0.60612   0.90939   0.00000  Uiso   1.00
H1568  H     0.70105   0.60312   0.89100   0.00000  Uiso   1.00
C1569  C     0.93046   0.62082   0.83248   0.00000  Uiso   1.00
H1570  H     0.92805   0.59977   0.80156   0.00000  Uiso   1.00
H1571  H     0.96468   0.64179   0.83375   0.00000  Uiso   1.00
H1572  H     0.93719   0.60149   0.86328   0.00000  Uiso   1.00
C1573  C     0.73620   0.37919   0.83418   0.00000  Uiso   1.00
H1574  H     0.73861   0.40024   0.86510   0.00000  Uiso   1.00
H1575  H     0.72947   0.39851   0.80338   0.00000  Uiso   1.00
H1576  H     0.70198   0.35822   0.83292   0.00000  Uiso   1.00
C1577  C     0.88656   0.56699   0.96345   0.00000  Uiso   1.00
H1578  H     0.91026   0.55557   0.93793   0.00000  Uiso   1.00
H1579  H     0.85828   0.59063   0.94882   0.00000  Uiso   1.00
H1580  H     0.91362   0.58331   0.99126   0.00000  Uiso   1.00
C1581  C     0.78011   0.43301   0.70322   0.00000  Uiso   1.00
H1582  H     0.80839   0.40935   0.71782   0.00000  Uiso   1.00
H1583  H     0.75645   0.44442   0.72876   0.00000  Uiso   1.00
H1584  H     0.75302   0.41670   0.67542   0.00000  Uiso   1.00
C1585  C     0.16717   0.75352   0.83266   0.00000  Uiso   1.00
C1586  C     0.16616   0.91315   0.83400   0.00000  Uiso   1.00
C1587  C     0.06716   0.83294   0.82134   0.00000  Uiso   1.00
C1588  C     0.26618   0.83373   0.84533   0.00000  Uiso   1.00
C1589  C     0.01225   0.83629   0.81509   0.00000  Uiso   1.00
C1590  C     0.32108   0.83037   0.85157   0.00000  Uiso   1.00
C1591  C     0.21257   0.68834   0.82785   0.00000  Uiso   1.00
C1592  C     0.12075   0.97832   0.83881   0.00000  Uiso   1.00
C1593  C     0.21372   0.97824   0.83165   0.00000  Uiso   1.00
C1594  C     0.11960   0.68842   0.83501   0.00000  Uiso   1.00
C1595  C     0.16722   0.95738   0.83566   0.00000  Uiso   1.00
C1596  C     0.16611   0.70928   0.83101   0.00000  Uiso   1.00
C1597  C     0.19130   0.86448   0.69561   0.00000  Uiso   1.00
C1598  C     0.14204   0.80219   0.97105   0.00000  Uiso   1.00
C1599  C     0.19182   0.86465   0.98123   0.00000  Uiso   1.00
C1600  C     0.14151   0.80201   0.68544   0.00000  Uiso   1.00
H1601  H     0.21092   0.88918   0.71794   0.00000  Uiso   1.00
H1602  H     0.12241   0.77749   0.94873   0.00000  Uiso   1.00
N1603  N     0.16665   0.83332   0.95240   0.00000  Uiso   1.00
N1604  N     0.16668   0.83334   0.71427   0.00000  Uiso   1.00
O1605  O     0.16666   0.77225   0.87154   0.00000  Uiso   1.00
O1606  O     0.16667   0.89442   0.79513   0.00000  Uiso   1.00
O1607  O     0.16666   0.77226   0.79510   0.00000  Uiso   1.00
O1608  O     0.16667   0.89441   0.87157   0.00000  Uiso   1.00
O1609  O     0.09058   0.83333   0.86261   0.00000  Uiso   1.00
O1610  O     0.24275   0.83334   0.80405   0.00000  Uiso   1.00
O1611  O     0.09058   0.83334   0.78617   0.00000  Uiso   1.00
O1612  O     0.24275   0.83333   0.88050   0.00000  Uiso   1.00
Zn1613 Zn    0.16667   0.83333   0.88437   0.00000  Uiso   1.00
Zn1614 Zn    0.16667   0.83334   0.78229   0.00000  Uiso   1.00
O1615  O     0.32066   0.85365   0.77507   0.00000  Uiso   1.00
C1616  C     0.32289   0.82607   0.73692   0.00000  Uiso   1.00
H1617  H     0.32970   0.79254   0.74569   0.00000  Uiso   1.00
H1618  H     0.01991   0.83712   0.71757   0.00000  Uiso   1.00
H1619  H     0.28543   0.82701   0.71372   0.00000  Uiso   1.00
O1620  O     0.01268   0.81300   0.89160   0.00000  Uiso   1.00
C1621  C     0.01044   0.84058   0.92975   0.00000  Uiso   1.00
H1622  H     0.31343   0.82952   0.94910   0.00000  Uiso   1.00
H1623  H     0.00362   0.87412   0.92098   0.00000  Uiso   1.00
H1624  H     0.04790   0.83964   0.95295   0.00000  Uiso   1.00
O1625  O     0.25727   0.71101   0.82460   0.00000  Uiso   1.00
C1626  C     0.26352   0.71169   0.77822   0.00000  Uiso   1.00
H1627  H     0.29894   0.73019   0.77565   0.00000  Uiso   1.00
H1628  H     0.23045   0.72720   0.75726   0.00000  Uiso   1.00
H1629  H     0.26872   0.67950   0.76377   0.00000  Uiso   1.00
O1630  O     0.07605   0.95566   0.84206   0.00000  Uiso   1.00
C1631  C     0.06981   0.95497   0.88844   0.00000  Uiso   1.00
H1632  H     0.06459   0.98716   0.90289   0.00000  Uiso   1.00
H1633  H     0.10289   0.93946   0.90939   0.00000  Uiso   1.00
H1634  H     0.03438   0.93645   0.89100   0.00000  Uiso   1.00
C1635  C     0.26379   0.95415   0.83248   0.00000  Uiso   1.00
H1636  H     0.26138   0.93310   0.80156   0.00000  Uiso   1.00
H1637  H     0.29802   0.97512   0.83375   0.00000  Uiso   1.00
H1638  H     0.27052   0.93482   0.86328   0.00000  Uiso   1.00
C1639  C     0.06954   0.71252   0.83418   0.00000  Uiso   1.00
H1640  H     0.07195   0.73357   0.86510   0.00000  Uiso   1.00
H1641  H     0.06280   0.73184   0.80338   0.00000  Uiso   1.00
H1642  H     0.03531   0.69155   0.83292   0.00000  Uiso   1.00
C1643  C     0.21990   0.90032   0.96345   0.00000  Uiso   1.00
H1644  H     0.24359   0.88890   0.93793   0.00000  Uiso   1.00
H1645  H     0.19162   0.92397   0.94882   0.00000  Uiso   1.00
H1646  H     0.24695   0.91665   0.99126   0.00000  Uiso   1.00
C1647  C     0.11344   0.76634   0.70322   0.00000  Uiso   1.00
H1648  H     0.14173   0.74269   0.71782   0.00000  Uiso   1.00
H1649  H     0.08978   0.77776   0.72876   0.00000  Uiso   1.00
H1650  H     0.08635   0.75004   0.67542   0.00000  Uiso   1.00
C1651  C     0.50051   0.75352   0.83266   0.00000  Uiso   1.00
C1652  C     0.49949   0.91315   0.83400   0.00000  Uiso   1.00
C1653  C     0.40049   0.83294   0.82134   0.00000  Uiso   1.00
C1654  C     0.59951   0.83373   0.84533   0.00000  Uiso   1.00
C1655  C     0.34558   0.83629   0.81509   0.00000  Uiso   1.00
C1656  C     0.65442   0.83037   0.85157   0.00000  Uiso   1.00
C1657  C     0.54591   0.68834   0.82785   0.00000  Uiso   1.00
C1658  C     0.45409   0.97832   0.83881   0.00000  Uiso   1.00
C1659  C     0.54706   0.97824   0.83165   0.00000  Uiso   1.00
C1660  C     0.45294   0.68842   0.83501   0.00000  Uiso   1.00
C1661  C     0.50055   0.95738   0.83566   0.00000  Uiso   1.00
C1662  C     0.49945   0.70928   0.83101   0.00000  Uiso   1.00
C1663  C     0.52463   0.86448   0.69561   0.00000  Uiso   1.00
C1664  C     0.47537   0.80219   0.97105   0.00000  Uiso   1.00
C1665  C     0.52516   0.86465   0.98123   0.00000  Uiso   1.00
C1666  C     0.47484   0.80201   0.68544   0.00000  Uiso   1.00
H1667  H     0.54426   0.88918   0.71794   0.00000  Uiso   1.00
H1668  H     0.45575   0.77749   0.94873   0.00000  Uiso   1.00
N1669  N     0.49999   0.83332   0.95240   0.00000  Uiso   1.00
N1670  N     0.50001   0.83334   0.71427   0.00000  Uiso   1.00
O1671  O     0.50000   0.77225   0.87154   0.00000  Uiso   1.00
O1672  O     0.50000   0.89442   0.79513   0.00000  Uiso   1.00
O1673  O     0.50000   0.77226   0.79510   0.00000  Uiso   1.00
O1674  O     0.50000   0.89441   0.87157   0.00000  Uiso   1.00
O1675  O     0.42392   0.83333   0.86261   0.00000  Uiso   1.00
O1676  O     0.57608   0.83334   0.80405   0.00000  Uiso   1.00
O1677  O     0.42392   0.83334   0.78617   0.00000  Uiso   1.00
O1678  O     0.57608   0.83333   0.88050   0.00000  Uiso   1.00
Zn1679 Zn    0.50000   0.83333   0.88437   0.00000  Uiso   1.00
Zn1680 Zn    0.50000   0.83334   0.78229   0.00000  Uiso   1.00
O1681  O     0.65399   0.85365   0.77507   0.00000  Uiso   1.00
C1682  C     0.65623   0.82607   0.73692   0.00000  Uiso   1.00
H1683  H     0.66304   0.79254   0.74569   0.00000  Uiso   1.00
H1684  H     0.35324   0.83712   0.71757   0.00000  Uiso   1.00
H1685  H     0.61876   0.82701   0.71372   0.00000  Uiso   1.00
O1686  O     0.34601   0.81300   0.89160   0.00000  Uiso   1.00
C1687  C     0.34377   0.84058   0.92975   0.00000  Uiso   1.00
H1688  H     0.64676   0.82952   0.94910   0.00000  Uiso   1.00
H1689  H     0.33695   0.87412   0.92098   0.00000  Uiso   1.00
H1690  H     0.38124   0.83964   0.95295   0.00000  Uiso   1.00
O1691  O     0.59061   0.71101   0.82460   0.00000  Uiso   1.00
C1692  C     0.59685   0.71169   0.77822   0.00000  Uiso   1.00
H1693  H     0.63227   0.73019   0.77565   0.00000  Uiso   1.00
H1694  H     0.56378   0.72720   0.75726   0.00000  Uiso   1.00
H1695  H     0.60205   0.67950   0.76377   0.00000  Uiso   1.00
O1696  O     0.40939   0.95566   0.84206   0.00000  Uiso   1.00
C1697  C     0.40314   0.95497   0.88844   0.00000  Uiso   1.00
H1698  H     0.39792   0.98716   0.90289   0.00000  Uiso   1.00
H1699  H     0.43622   0.93946   0.90939   0.00000  Uiso   1.00
H1700  H     0.36771   0.93645   0.89100   0.00000  Uiso   1.00
C1701  C     0.59712   0.95415   0.83248   0.00000  Uiso   1.00
H1702  H     0.59472   0.93310   0.80156   0.00000  Uiso   1.00
H1703  H     0.63135   0.97512   0.83375   0.00000  Uiso   1.00
H1704  H     0.60386   0.93482   0.86328   0.00000  Uiso   1.00
C1705  C     0.40287   0.71252   0.83418   0.00000  Uiso   1.00
H1706  H     0.40528   0.73357   0.86510   0.00000  Uiso   1.00
H1707  H     0.39614   0.73184   0.80338   0.00000  Uiso   1.00
H1708  H     0.36865   0.69155   0.83292   0.00000  Uiso   1.00
C1709  C     0.55323   0.90032   0.96345   0.00000  Uiso   1.00
H1710  H     0.57692   0.88890   0.93793   0.00000  Uiso   1.00
H1711  H     0.52495   0.92397   0.94882   0.00000  Uiso   1.00
H1712  H     0.58029   0.91665   0.99126   0.00000  Uiso   1.00
C1713  C     0.44678   0.76634   0.70322   0.00000  Uiso   1.00
H1714  H     0.47506   0.74269   0.71782   0.00000  Uiso   1.00
H1715  H     0.42312   0.77776   0.72876   0.00000  Uiso   1.00
H1716  H     0.41969   0.75004   0.67542   0.00000  Uiso   1.00
C1717  C     0.83384   0.75352   0.83266   0.00000  Uiso   1.00
C1718  C     0.83282   0.91315   0.83400   0.00000  Uiso   1.00
C1719  C     0.73382   0.83294   0.82134   0.00000  Uiso   1.00
C1720  C     0.93284   0.83373   0.84533   0.00000  Uiso   1.00
C1721  C     0.67892   0.83629   0.81509   0.00000  Uiso   1.00
C1722  C     0.98775   0.83037   0.85157   0.00000  Uiso   1.00
C1723  C     0.87924   0.68834   0.82785   0.00000  Uiso   1.00
C1724  C     0.78742   0.97832   0.83881   0.00000  Uiso   1.00
C1725  C     0.88039   0.97824   0.83165   0.00000  Uiso   1.00
C1726  C     0.78627   0.68842   0.83501   0.00000  Uiso   1.00
C1727  C     0.83388   0.95738   0.83566   0.00000  Uiso   1.00
C1728  C     0.83278   0.70928   0.83101   0.00000  Uiso   1.00
C1729  C     0.85796   0.86448   0.69561   0.00000  Uiso   1.00
C1730  C     0.80870   0.80219   0.97105   0.00000  Uiso   1.00
C1731  C     0.85849   0.86465   0.98123   0.00000  Uiso   1.00
C1732  C     0.80818   0.80201   0.68544   0.00000  Uiso   1.00
H1733  H     0.87759   0.88918   0.71794   0.00000  Uiso   1.00
H1734  H     0.78908   0.77749   0.94873   0.00000  Uiso   1.00
N1735  N     0.83332   0.83332   0.95240   0.00000  Uiso   1.00
N1736  N     0.83335   0.83334   0.71427   0.00000  Uiso   1.00
O1737  O     0.83333   0.77225   0.87154   0.00000  Uiso   1.00
O1738  O     0.83334   0.89442   0.79513   0.00000  Uiso   1.00
O1739  O     0.83333   0.77226   0.79510   0.00000  Uiso   1.00
O1740  O     0.83334   0.89441   0.87157   0.00000  Uiso   1.00
O1741  O     0.75725   0.83333   0.86261   0.00000  Uiso   1.00
O1742  O     0.90942   0.83334   0.80405   0.00000  Uiso   1.00
O1743  O     0.75725   0.83334   0.78617   0.00000  Uiso   1.00
O1744  O     0.90942   0.83333   0.88050   0.00000  Uiso   1.00
Zn1745 Zn    0.83333   0.83333   0.88437   0.00000  Uiso   1.00
Zn1746 Zn    0.83333   0.83334   0.78229   0.00000  Uiso   1.00
O1747  O     0.98732   0.85365   0.77507   0.00000  Uiso   1.00
C1748  C     0.98956   0.82607   0.73692   0.00000  Uiso   1.00
H1749  H     0.99637   0.79254   0.74569   0.00000  Uiso   1.00
H1750  H     0.68657   0.83712   0.71757   0.00000  Uiso   1.00
H1751  H     0.95210   0.82701   0.71372   0.00000  Uiso   1.00
O1752  O     0.67935   0.81300   0.89160   0.00000  Uiso   1.00
C1753  C     0.67710   0.84058   0.92975   0.00000  Uiso   1.00
H1754  H     0.98009   0.82952   0.94910   0.00000  Uiso   1.00
H1755  H     0.67029   0.87412   0.92098   0.00000  Uiso   1.00
H1756  H     0.71457   0.83964   0.95295   0.00000  Uiso   1.00
O1757  O     0.92394   0.71101   0.82460   0.00000  Uiso   1.00
C1758  C     0.93018   0.71169   0.77822   0.00000  Uiso   1.00
H1759  H     0.96560   0.73019   0.77565   0.00000  Uiso   1.00
H1760  H     0.89712   0.72720   0.75726   0.00000  Uiso   1.00
H1761  H     0.93539   0.67950   0.76377   0.00000  Uiso   1.00
O1762  O     0.74272   0.95566   0.84206   0.00000  Uiso   1.00
C1763  C     0.73648   0.95497   0.88844   0.00000  Uiso   1.00
H1764  H     0.73126   0.98716   0.90289   0.00000  Uiso   1.00
H1765  H     0.76956   0.93946   0.90939   0.00000  Uiso   1.00
H1766  H     0.70105   0.93645   0.89100   0.00000  Uiso   1.00
C1767  C     0.93046   0.95415   0.83248   0.00000  Uiso   1.00
H1768  H     0.92805   0.93310   0.80156   0.00000  Uiso   1.00
H1769  H     0.96468   0.97512   0.83375   0.00000  Uiso   1.00
H1770  H     0.93719   0.93482   0.86328   0.00000  Uiso   1.00
C1771  C     0.73620   0.71252   0.83418   0.00000  Uiso   1.00
H1772  H     0.73861   0.73357   0.86510   0.00000  Uiso   1.00
H1773  H     0.72947   0.73184   0.80338   0.00000  Uiso   1.00
H1774  H     0.70198   0.69155   0.83292   0.00000  Uiso   1.00
C1775  C     0.88656   0.90032   0.96345   0.00000  Uiso   1.00
H1776  H     0.91026   0.88890   0.93793   0.00000  Uiso   1.00
H1777  H     0.85828   0.92397   0.94882   0.00000  Uiso   1.00
H1778  H     0.91362   0.91665   0.99126   0.00000  Uiso   1.00
C1779  C     0.78011   0.76634   0.70322   0.00000  Uiso   1.00
H1780  H     0.80839   0.74269   0.71782   0.00000  Uiso   1.00
H1781  H     0.75645   0.77776   0.72876   0.00000  Uiso   1.00
H1782  H     0.75302   0.75004   0.67542   0.00000  Uiso   1.00
loop_
_geom_bond_atom_site_label_1
_geom_bond_atom_site_label_2
_geom_bond_distance
_geom_bond_site_symmetry_2
_ccdc_geom_bond_type
C1     O21     1.281   .     A
C1     C12     1.405   .     S
C1     O23     1.280   .     A
C2     O22     1.281   .     A
C2     C11     1.405   .     S
C2     O24     1.280   .     A
C3     O27     1.289   .     A
C3     O25     1.281   .     A
C3     C5      1.421   .     S
C4     O26     1.281   .     A
C4     C6      1.421   .     S
C4     O28     1.289   .     A
C5     C138    1.358   1_455 S
C5     O163    1.396   1_455 S
C6     C71     1.358   .     S
C6     O102    1.396   .     S
C7     C12     1.400   .     A
C7     O41     1.386   .     S
C7     C405    1.389   1_545 S
C8     C11     1.400   .     A
C8     O46     1.386   .     S
C8     C208    1.389   .     S
C9     C51     1.515   .     S
C9     C11     1.403   .     A
C9     C205    1.389   .     S
C10    C55     1.515   .     S
C10    C12     1.403   .     A
C10    C404    1.389   1_545 S
C13    H17     1.083   .     S
C13    N20     1.356   .     A
C13    C1203   1.418   1_554 S
C14    H18     1.083   .     S
C14    N19     1.356   .     A
C14    C610    1.418   .     S
C15    N19     1.384   .     A
C15    C59     1.501   .     S
C15    C607    1.418   .     S
C16    C63     1.501   .     S
C16    N20     1.384   .     A
C16    C1202   1.418   1_554 S
N19    Zn29    2.019   .     S
N20    Zn30    2.019   .     S
O21    Zn29    1.965   .     S
O22    Zn30    1.965   .     S
O23    Zn30    1.991   .     S
O24    Zn29    1.991   .     S
O25    Zn29    1.991   .     S
O26    Zn30    1.991   .     S
O27    Zn30    2.007   .     S
O28    Zn29    2.007   .     S
O31    C32     1.416   .     S
O31    C71     1.396   .     S
C32    H33     1.114   .     S
C32    H35     1.106   .     S
C32    H100    1.110   .     S
H34    C164    1.110   1_455 S
O36    C37     1.416   .     S
O36    C138    1.396   1_455 S
C37    H40     1.106   .     S
C37    H39     1.114   .     S
C37    H170    1.110   1_455 S
H38    C103    1.110   .     S
O41    C42     1.412   .     S
C42    H43     1.107   .     S
C42    H45     1.112   .     S
C42    H44     1.111   .     S
O46    C47     1.412   .     S
C47    H50     1.107   .     S
C47    H48     1.113   .     S
C47    H49     1.111   .     S
C51    H54     1.111   .     S
C51    H53     1.107   .     S
C51    H52     1.110   .     S
C55    H56     1.110   .     S
C55    H57     1.111   .     S
C55    H58     1.107   .     S
C59    H60     1.103   .     S
C59    H61     1.108   .     S
C59    H62     1.111   .     S
C63    H65     1.103   .     S
C63    H66     1.111   .     S
C63    H64     1.108   .     S
C67    O87     1.281   .     A
C67    C78     1.405   .     S
C67    O89     1.280   .     A
C68    O88     1.281   .     A
C68    C77     1.405   .     S
C68    O90     1.280   .     A
C69    O93     1.289   .     A
C69    O91     1.281   .     A
C69    C71     1.421   .     S
C70    O92     1.281   .     A
C70    C72     1.421   .     S
C70    O94     1.289   .     A
C72    C137    1.358   .     S
C72    O168    1.396   .     S
C73    C78     1.400   .     A
C73    O107    1.386   .     S
C73    C471    1.389   1_545 S
C74    C77     1.400   .     A
C74    O112    1.386   .     S
C74    C274    1.389   .     S
C75    C117    1.515   .     S
C75    C77     1.403   .     A
C75    C271    1.389   .     S
C76    C121    1.515   .     S
C76    C78     1.403   .     A
C76    C470    1.389   1_545 S
C79    H83     1.083   .     S
C79    N86     1.356   .     A
C79    C1269   1.418   1_554 S
C80    H84     1.083   .     S
C80    N85     1.356   .     A
C80    C676    1.418   .     S
C81    N85     1.384   .     A
C81    C125    1.501   .     S
C81    C673    1.418   .     S
C82    C129    1.501   .     S
C82    N86     1.384   .     A
C82    C1268   1.418   1_554 S
N85    Zn95    2.019   .     S
N86    Zn96    2.019   .     S
O87    Zn95    1.965   .     S
O88    Zn96    1.965   .     S
O89    Zn96    1.991   .     S
O90    Zn95    1.991   .     S
O91    Zn95    1.991   .     S
O92    Zn96    1.991   .     S
O93    Zn96    2.007   .     S
O94    Zn95    2.007   .     S
O97    C98     1.416   .     S
O97    C137    1.396   .     S
C98    H99     1.114   .     S
C98    H101    1.106   .     S
C98    H166    1.110   .     S
O102   C103    1.416   .     S
C103   H106    1.106   .     S
C103   H105    1.114   .     S
H104   C169    1.110   .     S
O107   C108    1.412   .     S
C108   H109    1.107   .     S
C108   H111    1.112   .     S
C108   H110    1.111   .     S
O112   C113    1.412   .     S
C113   H116    1.107   .     S
C113   H114    1.113   .     S
C113   H115    1.111   .     S
C117   H120    1.111   .     S
C117   H119    1.107   .     S
C117   H118    1.110   .     S
C121   H122    1.110   .     S
C121   H123    1.111   .     S
C121   H124    1.107   .     S
C125   H126    1.103   .     S
C125   H127    1.108   .     S
C125   H128    1.111   .     S
C129   H131    1.103   .     S
C129   H132    1.111   .     S
C129   H130    1.108   .     S
C133   O153    1.281   .     A
C133   C144    1.405   .     S
C133   O155    1.280   .     A
C134   O154    1.281   .     A
C134   C143    1.405   .     S
C134   O156    1.280   .     A
C135   O159    1.289   .     A
C135   O157    1.281   .     A
C135   C137    1.421   .     S
C136   O158    1.281   .     A
C136   C138    1.421   .     S
C136   O160    1.289   .     A
C138   C5      1.358   1_655 S
C138   O36     1.396   1_655 S
C139   C144    1.400   .     A
C139   O173    1.386   .     S
C139   C537    1.389   1_545 S
C140   C143    1.400   .     A
C140   O178    1.386   .     S
C140   C340    1.389   .     S
C141   C183    1.515   .     S
C141   C143    1.403   .     A
C141   C337    1.389   .     S
C142   C187    1.515   .     S
C142   C144    1.403   .     A
C142   C536    1.389   1_545 S
C145   H149    1.083   .     S
C145   N152    1.356   .     A
C145   C1335   1.418   1_554 S
C146   H150    1.083   .     S
C146   N151    1.356   .     A
C146   C742    1.418   .     S
C147   N151    1.384   .     A
C147   C191    1.501   .     S
C147   C739    1.418   .     S
C148   C195    1.501   .     S
C148   N152    1.384   .     A
C148   C1334   1.418   1_554 S
N151   Zn161   2.019   .     S
N152   Zn162   2.019   .     S
O153   Zn161   1.965   .     S
O154   Zn162   1.965   .     S
O155   Zn162   1.991   .     S
O156   Zn161   1.991   .     S
O157   Zn161   1.991   .     S
O158   Zn162   1.991   .     S
O159   Zn162   2.007   .     S
O160   Zn161   2.007   .     S
O163   C164    1.416   .     S
O163   C5      1.396   1_655 S
C164   H165    1.114   .     S
C164   H167    1.106   .     S
C164   H34     1.110   1_655 S
O168   C169    1.416   .     S
C169   H172    1.106   .     S
C169   H171    1.114   .     S
H170   C37     1.110   1_655 S
O173   C174    1.412   .     S
C174   H175    1.107   .     S
C174   H177    1.112   .     S
C174   H176    1.111   .     S
O178   C179    1.412   .     S
C179   H182    1.107   .     S
C179   H180    1.113   .     S
C179   H181    1.111   .     S
C183   H186    1.111   .     S
C183   H185    1.107   .     S
C183   H184    1.110   .     S
C187   H188    1.110   .     S
C187   H189    1.111   .     S
C187   H190    1.107   .     S
C191   H192    1.103   .     S
C191   H193    1.108   .     S
C191   H194    1.111   .     S
C195   H197    1.103   .     S
C195   H198    1.111   .     S
C195   H196    1.108   .     S
C199   O219    1.281   .     A
C199   C210    1.405   .     S
C199   O221    1.280   .     A
C200   O220    1.281   .     A
C200   C209    1.405   .     S
C200   O222    1.280   .     A
C201   O225    1.289   .     A
C201   O223    1.281   .     A
C201   C203    1.421   .     S
C202   O224    1.281   .     A
C202   C204    1.421   .     S
C202   O226    1.289   .     A
C203   C336    1.358   1_455 S
C203   O361    1.396   1_455 S
C204   C269    1.358   .     S
C204   O300    1.396   .     S
C205   C210    1.400   .     A
C205   O239    1.386   .     S
C206   C209    1.400   .     A
C206   O244    1.386   .     S
C206   C406    1.389   .     S
C207   C249    1.515   .     S
C207   C209    1.403   .     A
C207   C403    1.389   .     S
C208   C253    1.515   .     S
C208   C210    1.403   .     A
C211   H215    1.083   .     S
C211   N218    1.356   .     A
C211   C1401   1.418   1_554 S
C212   H216    1.083   .     S
C212   N217    1.356   .     A
C212   C808    1.418   .     S
C213   N217    1.384   .     A
C213   C257    1.501   .     S
C213   C805    1.418   .     S
C214   C261    1.501   .     S
C214   N218    1.384   .     A
C214   C1400   1.418   1_554 S
N217   Zn227   2.019   .     S
N218   Zn228   2.019   .     S
O219   Zn227   1.965   .     S
O220   Zn228   1.965   .     S
O221   Zn228   1.991   .     S
O222   Zn227   1.991   .     S
O223   Zn227   1.991   .     S
O224   Zn228   1.991   .     S
O225   Zn228   2.007   .     S
O226   Zn227   2.007   .     S
O229   C230    1.416   .     S
O229   C269    1.396   .     S
C230   H231    1.114   .     S
C230   H233    1.106   .     S
C230   H298    1.110   .     S
H232   C362    1.110   1_455 S
O234   C235    1.416   .     S
O234   C336    1.396   1_455 S
C235   H238    1.106   .     S
C235   H237    1.114   .     S
C235   H368    1.110   1_455 S
H236   C301    1.110   .     S
O239   C240    1.412   .     S
C240   H241    1.107   .     S
C240   H243    1.112   .     S
C240   H242    1.111   .     S
O244   C245    1.412   .     S
C245   H248    1.107   .     S
C245   H246    1.113   .     S
C245   H247    1.111   .     S
C249   H252    1.111   .     S
C249   H251    1.107   .     S
C249   H250    1.110   .     S
C253   H254    1.110   .     S
C253   H255    1.111   .     S
C253   H256    1.107   .     S
C257   H258    1.103   .     S
C257   H259    1.108   .     S
C257   H260    1.111   .     S
C261   H263    1.103   .     S
C261   H264    1.111   .     S
C261   H262    1.108   .     S
C265   O285    1.281   .     A
C265   C276    1.405   .     S
C265   O287    1.280   .     A
C266   O286    1.281   .     A
C266   C275    1.405   .     S
C266   O288    1.280   .     A
C267   O291    1.289   .     A
C267   O289    1.281   .     A
C267   C269    1.421   .     S
C268   O290    1.281   .     A
C268   C270    1.421   .     S
C268   O292    1.289   .     A
C270   C335    1.358   .     S
C270   O366    1.396   .     S
C271   C276    1.400   .     A
C271   O305    1.386   .     S
C272   C275    1.400   .     A
C272   O310    1.386   .     S
C272   C472    1.389   .     S
C273   C315    1.515   .     S
C273   C275    1.403   .     A
C273   C469    1.389   .     S
C274   C319    1.515   .     S
C274   C276    1.403   .     A
C277   H281    1.083   .     S
C277   N284    1.356   .     A
C277   C1467   1.418   1_554 S
C278   H282    1.083   .     S
C278   N283    1.356   .     A
C278   C874    1.418   .     S
C279   N283    1.384   .     A
C279   C323    1.501   .     S
C279   C871    1.418   .     S
C280   C327    1.501   .     S
C280   N284    1.384   .     A
C280   C1466   1.418   1_554 S
N283   Zn293   2.019   .     S
N284   Zn294   2.019   .     S
O285   Zn293   1.965   .     S
O286   Zn294   1.965   .     S
O287   Zn294   1.991   .     S
O288   Zn293   1.991   .     S
O289   Zn293   1.991   .     S
O290   Zn294   1.991   .     S
O291   Zn294   2.007   .     S
O292   Zn293   2.007   .     S
O295   C296    1.416   .     S
O295   C335    1.396   .     S
C296   H297    1.114   .     S
C296   H299    1.106   .     S
C296   H364    1.110   .     S
O300   C301    1.416   .     S
C301   H304    1.106   .     S
C301   H303    1.114   .     S
H302   C367    1.110   .     S
O305   C306    1.412   .     S
C306   H307    1.107   .     S
C306   H309    1.112   .     S
C306   H308    1.111   .     S
O310   C311    1.412   .     S
C311   H314    1.107   .     S
C311   H312    1.113   .     S
C311   H313    1.111   .     S
C315   H318    1.111   .     S
C315   H317    1.107   .     S
C315   H316    1.110   .     S
C319   H320    1.110   .     S
C319   H321    1.111   .     S
C319   H322    1.107   .     S
C323   H324    1.103   .     S
C323   H325    1.108   .     S
C323   H326    1.111   .     S
C327   H329    1.103   .     S
C327   H330    1.111   .     S
C327   H328    1.108   .     S
C331   O351    1.281   .     A
C331   C342    1.405   .     S
C331   O353    1.280   .     A
C332   O352    1.281   .     A
C332   C341    1.405   .     S
C332   O354    1.280   .     A
C333   O357    1.289   .     A
C333   O355    1.281   .     A
C333   C335    1.421   .     S
C334   O356    1.281   .     A
C334   C336    1.421   .     S
C334   O358    1.289   .     A
C336   C203    1.358   1_655 S
C336   O234    1.396   1_655 S
C337   C342    1.400   .     A
C337   O371    1.386   .     S
C338   C341    1.400   .     A
C338   O376    1.386   .     S
C338   C538    1.389   .     S
C339   C381    1.515   .     S
C339   C341    1.403   .     A
C339   C535    1.389   .     S
C340   C385    1.515   .     S
C340   C342    1.403   .     A
C343   H347    1.083   .     S
C343   N350    1.356   .     A
C343   C1533   1.418   1_554 S
C344   H348    1.083   .     S
C344   N349    1.356   .     A
C344   C940    1.418   .     S
C345   N349    1.384   .     A
C345   C389    1.501   .     S
C345   C937    1.418   .     S
C346   C393    1.501   .     S
C346   N350    1.384   .     A
C346   C1532   1.418   1_554 S
N349   Zn359   2.019   .     S
N350   Zn360   2.019   .     S
O351   Zn359   1.965   .     S
O352   Zn360   1.965   .     S
O353   Zn360   1.991   .     S
O354   Zn359   1.991   .     S
O355   Zn359   1.991   .     S
O356   Zn360   1.991   .     S
O357   Zn360   2.007   .     S
O358   Zn359   2.007   .     S
O361   C362    1.416   .     S
O361   C203    1.396   1_655 S
C362   H363    1.114   .     S
C362   H365    1.106   .     S
C362   H232    1.110   1_655 S
O366   C367    1.416   .     S
C367   H370    1.106   .     S
C367   H369    1.114   .     S
H368   C235    1.110   1_655 S
O371   C372    1.412   .     S
C372   H373    1.107   .     S
C372   H375    1.112   .     S
C372   H374    1.111   .     S
O376   C377    1.412   .     S
C377   H380    1.107   .     S
C377   H378    1.113   .     S
C377   H379    1.111   .     S
C381   H384    1.111   .     S
C381   H383    1.107   .     S
C381   H382    1.110   .     S
C385   H386    1.110   .     S
C385   H387    1.111   .     S
C385   H388    1.107   .     S
C389   H390    1.103   .     S
C389   H391    1.108   .     S
C389   H392    1.111   .     S
C393   H395    1.103   .     S
C393   H396    1.111   .     S
C393   H394    1.108   .     S
C397   O417    1.281   .     A
C397   C408    1.405   .     S
C397   O419    1.280   .     A
C398   O418    1.281   .     A
C398   C407    1.405   .     S
C398   O420    1.280   .     A
C399   O423    1.289   .     A
C399   O421    1.281   .     A
C399   C401    1.421   .     S
C400   O422    1.281   .     A
C400   C402    1.421   .     S
C400   O424    1.289   .     A
C401   C534    1.358   1_455 S
C401   O559    1.396   1_455 S
C402   C467    1.358   .     S
C402   O498    1.396   .     S
C403   C408    1.400   .     A
C403   O437    1.386   .     S
C404   C407    1.400   .     A
C404   O442    1.386   .     S
C404   C10     1.389   1_565 S
C405   C447    1.515   .     S
C405   C407    1.403   .     A
C405   C7      1.389   1_565 S
C406   C451    1.515   .     S
C406   C408    1.403   .     A
C409   H413    1.083   .     S
C409   N416    1.356   .     A
C409   C1599   1.418   1_554 S
C410   H414    1.083   .     S
C410   N415    1.356   .     A
C410   C1006   1.418   .     S
C411   N415    1.384   .     A
C411   C455    1.501   .     S
C411   C1003   1.418   .     S
C412   C459    1.501   .     S
C412   N416    1.384   .     A
C412   C1598   1.418   1_554 S
N415   Zn425   2.019   .     S
N416   Zn426   2.019   .     S
O417   Zn425   1.965   .     S
O418   Zn426   1.965   .     S
O419   Zn426   1.991   .     S
O420   Zn425   1.991   .     S
O421   Zn425   1.991   .     S
O422   Zn426   1.991   .     S
O423   Zn426   2.007   .     S
O424   Zn425   2.007   .     S
O427   C428    1.416   .     S
O427   C467    1.396   .     S
C428   H429    1.114   .     S
C428   H431    1.106   .     S
C428   H496    1.110   .     S
H430   C560    1.110   1_455 S
O432   C433    1.416   .     S
O432   C534    1.396   1_455 S
C433   H436    1.106   .     S
C433   H435    1.114   .     S
C433   H566    1.110   1_455 S
H434   C499    1.110   .     S
O437   C438    1.412   .     S
C438   H439    1.107   .     S
C438   H441    1.112   .     S
C438   H440    1.111   .     S
O442   C443    1.412   .     S
C443   H446    1.107   .     S
C443   H444    1.113   .     S
C443   H445    1.111   .     S
C447   H450    1.111   .     S
C447   H449    1.107   .     S
C447   H448    1.110   .     S
C451   H452    1.110   .     S
C451   H453    1.111   .     S
C451   H454    1.107   .     S
C455   H456    1.103   .     S
C455   H457    1.108   .     S
C455   H458    1.111   .     S
C459   H461    1.103   .     S
C459   H462    1.111   .     S
C459   H460    1.108   .     S
C463   O483    1.281   .     A
C463   C474    1.405   .     S
C463   O485    1.280   .     A
C464   O484    1.281   .     A
C464   C473    1.405   .     S
C464   O486    1.280   .     A
C465   O489    1.289   .     A
C465   O487    1.281   .     A
C465   C467    1.421   .     S
C466   O488    1.281   .     A
C466   C468    1.421   .     S
C466   O490    1.289   .     A
C468   C533    1.358   .     S
C468   O564    1.396   .     S
C469   C474    1.400   .     A
C469   O503    1.386   .     S
C470   C473    1.400   .     A
C470   O508    1.386   .     S
C470   C76     1.389   1_565 S
C471   C513    1.515   .     S
C471   C473    1.403   .     A
C471   C73     1.389   1_565 S
C472   C517    1.515   .     S
C472   C474    1.403   .     A
C475   H479    1.083   .     S
C475   N482    1.356   .     A
C475   C1665   1.418   1_554 S
C476   H480    1.083   .     S
C476   N481    1.356   .     A
C476   C1072   1.418   .     S
C477   N481    1.384   .     A
C477   C521    1.501   .     S
C477   C1069   1.418   .     S
C478   C525    1.501   .     S
C478   N482    1.384   .     A
C478   C1664   1.418   1_554 S
N481   Zn491   2.019   .     S
N482   Zn492   2.019   .     S
O483   Zn491   1.965   .     S
O484   Zn492   1.965   .     S
O485   Zn492   1.991   .     S
O486   Zn491   1.991   .     S
O487   Zn491   1.991   .     S
O488   Zn492   1.991   .     S
O489   Zn492   2.007   .     S
O490   Zn491   2.007   .     S
O493   C494    1.416   .     S
O493   C533    1.396   .     S
C494   H495    1.114   .     S
C494   H497    1.106   .     S
C494   H562    1.110   .     S
O498   C499    1.416   .     S
C499   H502    1.106   .     S
C499   H501    1.114   .     S
H500   C565    1.110   .     S
O503   C504    1.412   .     S
C504   H505    1.107   .     S
C504   H507    1.112   .     S
C504   H506    1.111   .     S
O508   C509    1.412   .     S
C509   H512    1.107   .     S
C509   H510    1.113   .     S
C509   H511    1.111   .     S
C513   H516    1.111   .     S
C513   H515    1.107   .     S
C513   H514    1.110   .     S
C517   H518    1.110   .     S
C517   H519    1.111   .     S
C517   H520    1.107   .     S
C521   H522    1.103   .     S
C521   H523    1.108   .     S
C521   H524    1.111   .     S
C525   H527    1.103   .     S
C525   H528    1.111   .     S
C525   H526    1.108   .     S
C529   O549    1.281   .     A
C529   C540    1.405   .     S
C529   O551    1.280   .     A
C530   O550    1.281   .     A
C530   C539    1.405   .     S
C530   O552    1.280   .     A
C531   O555    1.289   .     A
C531   O553    1.281   .     A
C531   C533    1.421   .     S
C532   O554    1.281   .     A
C532   C534    1.421   .     S
C532   O556    1.289   .     A
C534   C401    1.358   1_655 S
C534   O432    1.396   1_655 S
C535   C540    1.400   .     A
C535   O569    1.386   .     S
C536   C539    1.400   .     A
C536   O574    1.386   .     S
C536   C142    1.389   1_565 S
C537   C579    1.515   .     S
C537   C539    1.403   .     A
C537   C139    1.389   1_565 S
C538   C583    1.515   .     S
C538   C540    1.403   .     A
C541   H545    1.083   .     S
C541   N548    1.356   .     A
C541   C1731   1.418   1_554 S
C542   H546    1.083   .     S
C542   N547    1.356   .     A
C542   C1138   1.418   .     S
C543   N547    1.384   .     A
C543   C587    1.501   .     S
C543   C1135   1.418   .     S
C544   C591    1.501   .     S
C544   N548    1.384   .     A
C544   C1730   1.418   1_554 S
N547   Zn557   2.019   .     S
N548   Zn558   2.019   .     S
O549   Zn557   1.965   .     S
O550   Zn558   1.965   .     S
O551   Zn558   1.991   .     S
O552   Zn557   1.991   .     S
O553   Zn557   1.991   .     S
O554   Zn558   1.991   .     S
O555   Zn558   2.007   .     S
O556   Zn557   2.007   .     S
O559   C560    1.416   .     S
O559   C401    1.396   1_655 S
C560   H561    1.114   .     S
C560   H563    1.106   .     S
C560   H430    1.110   1_655 S
O564   C565    1.416   .     S
C565   H568    1.106   .     S
C565   H567    1.114   .     S
H566   C433    1.110   1_655 S
O569   C570    1.412   .     S
C570   H571    1.107   .     S
C570   H573    1.112   .     S
C570   H572    1.111   .     S
O574   C575    1.412   .     S
C575   H578    1.107   .     S
C575   H576    1.113   .     S
C575   H577    1.111   .     S
C579   H582    1.111   .     S
C579   H581    1.107   .     S
C579   H580    1.110   .     S
C583   H584    1.110   .     S
C583   H585    1.111   .     S
C583   H586    1.107   .     S
C587   H588    1.103   .     S
C587   H589    1.108   .     S
C587   H590    1.111   .     S
C591   H593    1.103   .     S
C591   H594    1.111   .     S
C591   H592    1.108   .     S
C595   O615    1.281   .     A
C595   C606    1.405   .     S
C595   O617    1.280   .     A
C596   O616    1.281   .     A
C596   C605    1.405   .     S
C596   O618    1.280   .     A
C597   O621    1.289   .     A
C597   O619    1.281   .     A
C597   C599    1.421   .     S
C598   O620    1.281   .     A
C598   C600    1.421   .     S
C598   O622    1.289   .     A
C599   C732    1.358   1_455 S
C599   O757    1.396   1_455 S
C600   C665    1.358   .     S
C600   O696    1.396   .     S
C601   C606    1.400   .     A
C601   O635    1.386   .     S
C601   C999    1.389   1_545 S
C602   C605    1.400   .     A
C602   O640    1.386   .     S
C602   C802    1.389   .     S
C603   C645    1.515   .     S
C603   C605    1.403   .     A
C603   C799    1.389   .     S
C604   C649    1.515   .     S
C604   C606    1.403   .     A
C604   C998    1.389   1_545 S
C607   H611    1.083   .     S
C607   N614    1.356   .     A
C608   H612    1.083   .     S
C608   N613    1.356   .     A
C608   C1204   1.418   .     S
C609   N613    1.384   .     A
C609   C653    1.501   .     S
C609   C1201   1.418   .     S
C610   C657    1.501   .     S
C610   N614    1.384   .     A
N613   Zn623   2.019   .     S
N614   Zn624   2.019   .     S
O615   Zn623   1.965   .     S
O616   Zn624   1.965   .     S
O617   Zn624   1.991   .     S
O618   Zn623   1.991   .     S
O619   Zn623   1.991   .     S
O620   Zn624   1.991   .     S
O621   Zn624   2.007   .     S
O622   Zn623   2.007   .     S
O625   C626    1.416   .     S
O625   C665    1.396   .     S
C626   H627    1.114   .     S
C626   H629    1.106   .     S
C626   H694    1.110   .     S
H628   C758    1.110   1_455 S
O630   C631    1.416   .     S
O630   C732    1.396   1_455 S
C631   H634    1.106   .     S
C631   H633    1.114   .     S
C631   H764    1.110   1_455 S
H632   C697    1.110   .     S
O635   C636    1.412   .     S
C636   H637    1.107   .     S
C636   H639    1.112   .     S
C636   H638    1.111   .     S
O640   C641    1.412   .     S
C641   H644    1.107   .     S
C641   H642    1.113   .     S
C641   H643    1.111   .     S
C645   H648    1.111   .     S
C645   H647    1.107   .     S
C645   H646    1.110   .     S
C649   H650    1.110   .     S
C649   H651    1.111   .     S
C649   H652    1.107   .     S
C653   H654    1.103   .     S
C653   H655    1.108   .     S
C653   H656    1.111   .     S
C657   H659    1.103   .     S
C657   H660    1.111   .     S
C657   H658    1.108   .     S
C661   O681    1.281   .     A
C661   C672    1.405   .     S
C661   O683    1.280   .     A
C662   O682    1.281   .     A
C662   C671    1.405   .     S
C662   O684    1.280   .     A
C663   O687    1.289   .     A
C663   O685    1.281   .     A
C663   C665    1.421   .     S
C664   O686    1.281   .     A
C664   C666    1.421   .     S
C664   O688    1.289   .     A
C666   C731    1.358   .     S
C666   O762    1.396   .     S
C667   C672    1.400   .     A
C667   O701    1.386   .     S
C667   C1065   1.389   1_545 S
C668   C671    1.400   .     A
C668   O706    1.386   .     S
C668   C868    1.389   .     S
C669   C711    1.515   .     S
C669   C671    1.403   .     A
C669   C865    1.389   .     S
C670   C715    1.515   .     S
C670   C672    1.403   .     A
C670   C1064   1.389   1_545 S
C673   H677    1.083   .     S
C673   N680    1.356   .     A
C674   H678    1.083   .     S
C674   N679    1.356   .     A
C674   C1270   1.418   .     S
C675   N679    1.384   .     A
C675   C719    1.501   .     S
C675   C1267   1.418   .     S
C676   C723    1.501   .     S
C676   N680    1.384   .     A
N679   Zn689   2.019   .     S
N680   Zn690   2.019   .     S
O681   Zn689   1.965   .     S
O682   Zn690   1.965   .     S
O683   Zn690   1.991   .     S
O684   Zn689   1.991   .     S
O685   Zn689   1.991   .     S
O686   Zn690   1.991   .     S
O687   Zn690   2.007   .     S
O688   Zn689   2.007   .     S
O691   C692    1.416   .     S
O691   C731    1.396   .     S
C692   H693    1.114   .     S
C692   H695    1.106   .     S
C692   H760    1.110   .     S
O696   C697    1.416   .     S
C697   H700    1.106   .     S
C697   H699    1.114   .     S
H698   C763    1.110   .     S
O701   C702    1.412   .     S
C702   H703    1.107   .     S
C702   H705    1.112   .     S
C702   H704    1.111   .     S
O706   C707    1.412   .     S
C707   H710    1.107   .     S
C707   H708    1.113   .     S
C707   H709    1.111   .     S
C711   H714    1.111   .     S
C711   H713    1.107   .     S
C711   H712    1.110   .     S
C715   H716    1.110   .     S
C715   H717    1.111   .     S
C715   H718    1.107   .     S
C719   H720    1.103   .     S
C719   H721    1.108   .     S
C719   H722    1.111   .     S
C723   H725    1.103   .     S
C723   H726    1.111   .     S
C723   H724    1.108   .     S
C727   O747    1.281   .     A
C727   C738    1.405   .     S
C727   O749    1.280   .     A
C728   O748    1.281   .     A
C728   C737    1.405   .     S
C728   O750    1.280   .     A
C729   O753    1.289   .     A
C729   O751    1.281   .     A
C729   C731    1.421   .     S
C730   O752    1.281   .     A
C730   C732    1.421   .     S
C730   O754    1.289   .     A
C732   C599    1.358   1_655 S
C732   O630    1.396   1_655 S
C733   C738    1.400   .     A
C733   O767    1.386   .     S
C733   C1131   1.389   1_545 S
C734   C737    1.400   .     A
C734   O772    1.386   .     S
C734   C934    1.389   .     S
C735   C777    1.515   .     S
C735   C737    1.403   .     A
C735   C931    1.389   .     S
C736   C781    1.515   .     S
C736   C738    1.403   .     A
C736   C1130   1.389   1_545 S
C739   H743    1.083   .     S
C739   N746    1.356   .     A
C740   H744    1.083   .     S
C740   N745    1.356   .     A
C740   C1336   1.418   .     S
C741   N745    1.384   .     A
C741   C785    1.501   .     S
C741   C1333   1.418   .     S
C742   C789    1.501   .     S
C742   N746    1.384   .     A
N745   Zn755   2.019   .     S
N746   Zn756   2.019   .     S
O747   Zn755   1.965   .     S
O748   Zn756   1.965   .     S
O749   Zn756   1.991   .     S
O750   Zn755   1.991   .     S
O751   Zn755   1.991   .     S
O752   Zn756   1.991   .     S
O753   Zn756   2.007   .     S
O754   Zn755   2.007   .     S
O757   C758    1.416   .     S
O757   C599    1.396   1_655 S
C758   H759    1.114   .     S
C758   H761    1.106   .     S
C758   H628    1.110   1_655 S
O762   C763    1.416   .     S
C763   H766    1.106   .     S
C763   H765    1.114   .     S
H764   C631    1.110   1_655 S
O767   C768    1.412   .     S
C768   H769    1.107   .     S
C768   H771    1.112   .     S
C768   H770    1.111   .     S
O772   C773    1.412   .     S
C773   H776    1.107   .     S
C773   H774    1.113   .     S
C773   H775    1.111   .     S
C777   H780    1.111   .     S
C777   H779    1.107   .     S
C777   H778    1.110   .     S
C781   H782    1.110   .     S
C781   H783    1.111   .     S
C781   H784    1.107   .     S
C785   H786    1.103   .     S
C785   H787    1.108   .     S
C785   H788    1.111   .     S
C789   H791    1.103   .     S
C789   H792    1.111   .     S
C789   H790    1.108   .     S
C793   O813    1.281   .     A
C793   C804    1.405   .     S
C793   O815    1.280   .     A
C794   O814    1.281   .     A
C794   C803    1.405   .     S
C794   O816    1.280   .     A
C795   O819    1.289   .     A
C795   O817    1.281   .     A
C795   C797    1.421   .     S
C796   O818    1.281   .     A
C796   C798    1.421   .     S
C796   O820    1.289   .     A
C797   C930    1.358   1_455 S
C797   O955    1.396   1_455 S
C798   C863    1.358   .     S
C798   O894    1.396   .     S
C799   C804    1.400   .     A
C799   O833    1.386   .     S
C800   C803    1.400   .     A
C800   O838    1.386   .     S
C800   C1000   1.389   .     S
C801   C843    1.515   .     S
C801   C803    1.403   .     A
C801   C997    1.389   .     S
C802   C847    1.515   .     S
C802   C804    1.403   .     A
C805   H809    1.083   .     S
C805   N812    1.356   .     A
C806   H810    1.083   .     S
C806   N811    1.356   .     A
C806   C1402   1.418   .     S
C807   N811    1.384   .     A
C807   C851    1.501   .     S
C807   C1399   1.418   .     S
C808   C855    1.501   .     S
C808   N812    1.384   .     A
N811   Zn821   2.019   .     S
N812   Zn822   2.019   .     S
O813   Zn821   1.965   .     S
O814   Zn822   1.965   .     S
O815   Zn822   1.991   .     S
O816   Zn821   1.991   .     S
O817   Zn821   1.991   .     S
O818   Zn822   1.991   .     S
O819   Zn822   2.007   .     S
O820   Zn821   2.007   .     S
O823   C824    1.416   .     S
O823   C863    1.396   .     S
C824   H825    1.114   .     S
C824   H827    1.106   .     S
C824   H892    1.110   .     S
H826   C956    1.110   1_455 S
O828   C829    1.416   .     S
O828   C930    1.396   1_455 S
C829   H832    1.106   .     S
C829   H831    1.114   .     S
C829   H962    1.110   1_455 S
H830   C895    1.110   .     S
O833   C834    1.412   .     S
C834   H835    1.107   .     S
C834   H837    1.112   .     S
C834   H836    1.111   .     S
O838   C839    1.412   .     S
C839   H842    1.107   .     S
C839   H840    1.113   .     S
C839   H841    1.111   .     S
C843   H846    1.111   .     S
C843   H845    1.107   .     S
C843   H844    1.110   .     S
C847   H848    1.110   .     S
C847   H849    1.111   .     S
C847   H850    1.107   .     S
C851   H852    1.103   .     S
C851   H853    1.108   .     S
C851   H854    1.111   .     S
C855   H857    1.103   .     S
C855   H858    1.111   .     S
C855   H856    1.108   .     S
C859   O879    1.281   .     A
C859   C870    1.405   .     S
C859   O881    1.280   .     A
C860   O880    1.281   .     A
C860   C869    1.405   .     S
C860   O882    1.280   .     A
C861   O885    1.289   .     A
C861   O883    1.281   .     A
C861   C863    1.421   .     S
C862   O884    1.281   .     A
C862   C864    1.421   .     S
C862   O886    1.289   .     A
C864   C929    1.358   .     S
C864   O960    1.396   .     S
C865   C870    1.400   .     A
C865   O899    1.386   .     S
C866   C869    1.400   .     A
C866   O904    1.386   .     S
C866   C1066   1.389   .     S
C867   C909    1.515   .     S
C867   C869    1.403   .     A
C867   C1063   1.389   .     S
C868   C913    1.515   .     S
C868   C870    1.403   .     A
C871   H875    1.083   .     S
C871   N878    1.356   .     A
C872   H876    1.083   .     S
C872   N877    1.356   .     A
C872   C1468   1.418   .     S
C873   N877    1.384   .     A
C873   C917    1.501   .     S
C873   C1465   1.418   .     S
C874   C921    1.501   .     S
C874   N878    1.384   .     A
N877   Zn887   2.019   .     S
N878   Zn888   2.019   .     S
O879   Zn887   1.965   .     S
O880   Zn888   1.965   .     S
O881   Zn888   1.991   .     S
O882   Zn887   1.991   .     S
O883   Zn887   1.991   .     S
O884   Zn888   1.991   .     S
O885   Zn888   2.007   .     S
O886   Zn887   2.007   .     S
O889   C890    1.416   .     S
O889   C929    1.396   .     S
C890   H891    1.114   .     S
C890   H893    1.106   .     S
C890   H958    1.110   .     S
O894   C895    1.416   .     S
C895   H898    1.106   .     S
C895   H897    1.114   .     S
H896   C961    1.110   .     S
O899   C900    1.412   .     S
C900   H901    1.107   .     S
C900   H903    1.112   .     S
C900   H902    1.111   .     S
O904   C905    1.412   .     S
C905   H908    1.107   .     S
C905   H906    1.113   .     S
C905   H907    1.111   .     S
C909   H912    1.111   .     S
C909   H911    1.107   .     S
C909   H910    1.110   .     S
C913   H914    1.110   .     S
C913   H915    1.111   .     S
C913   H916    1.107   .     S
C917   H918    1.103   .     S
C917   H919    1.108   .     S
C917   H920    1.111   .     S
C921   H923    1.103   .     S
C921   H924    1.111   .     S
C921   H922    1.108   .     S
C925   O945    1.281   .     A
C925   C936    1.405   .     S
C925   O947    1.280   .     A
C926   O946    1.281   .     A
C926   C935    1.405   .     S
C926   O948    1.280   .     A
C927   O951    1.289   .     A
C927   O949    1.281   .     A
C927   C929    1.421   .     S
C928   O950    1.281   .     A
C928   C930    1.421   .     S
C928   O952    1.289   .     A
C930   C797    1.358   1_655 S
C930   O828    1.396   1_655 S
C931   C936    1.400   .     A
C931   O965    1.386   .     S
C932   C935    1.400   .     A
C932   O970    1.386   .     S
C932   C1132   1.389   .     S
C933   C975    1.515   .     S
C933   C935    1.403   .     A
C933   C1129   1.389   .     S
C934   C979    1.515   .     S
C934   C936    1.403   .     A
C937   H941    1.083   .     S
C937   N944    1.356   .     A
C938   H942    1.083   .     S
C938   N943    1.356   .     A
C938   C1534   1.418   .     S
C939   N943    1.384   .     A
C939   C983    1.501   .     S
C939   C1531   1.418   .     S
C940   C987    1.501   .     S
C940   N944    1.384   .     A
N943   Zn953   2.019   .     S
N944   Zn954   2.019   .     S
O945   Zn953   1.965   .     S
O946   Zn954   1.965   .     S
O947   Zn954   1.991   .     S
O948   Zn953   1.991   .     S
O949   Zn953   1.991   .     S
O950   Zn954   1.991   .     S
O951   Zn954   2.007   .     S
O952   Zn953   2.007   .     S
O955   C956    1.416   .     S
O955   C797    1.396   1_655 S
C956   H957    1.114   .     S
C956   H959    1.106   .     S
C956   H826    1.110   1_655 S
O960   C961    1.416   .     S
C961   H964    1.106   .     S
C961   H963    1.114   .     S
H962   C829    1.110   1_655 S
O965   C966    1.412   .     S
C966   H967    1.107   .     S
C966   H969    1.112   .     S
C966   H968    1.111   .     S
O970   C971    1.412   .     S
C971   H974    1.107   .     S
C971   H972    1.113   .     S
C971   H973    1.111   .     S
C975   H978    1.111   .     S
C975   H977    1.107   .     S
C975   H976    1.110   .     S
C979   H980    1.110   .     S
C979   H981    1.111   .     S
C979   H982    1.107   .     S
C983   H984    1.103   .     S
C983   H985    1.108   .     S
C983   H986    1.111   .     S
C987   H989    1.103   .     S
C987   H990    1.111   .     S
C987   H988    1.108   .     S
C991   O1011   1.281   .     A
C991   C1002   1.405   .     S
C991   O1013   1.280   .     A
C992   O1012   1.281   .     A
C992   C1001   1.405   .     S
C992   O1014   1.280   .     A
C993   O1017   1.289   .     A
C993   O1015   1.281   .     A
C993   C995    1.421   .     S
C994   O1016   1.281   .     A
C994   C996    1.421   .     S
C994   O1018   1.289   .     A
C995   C1128   1.358   1_455 S
C995   O1153   1.396   1_455 S
C996   C1061   1.358   .     S
C996   O1092   1.396   .     S
C997   C1002   1.400   .     A
C997   O1031   1.386   .     S
C998   C1001   1.400   .     A
C998   O1036   1.386   .     S
C998   C604    1.389   1_565 S
C999   C1041   1.515   .     S
C999   C1001   1.403   .     A
C999   C601    1.389   1_565 S
C1000  C1045   1.515   .     S
C1000  C1002   1.403   .     A
C1003  H1007   1.083   .     S
C1003  N1010   1.356   .     A
C1004  H1008   1.083   .     S
C1004  N1009   1.356   .     A
C1004  C1600   1.418   .     S
C1005  N1009   1.384   .     A
C1005  C1049   1.501   .     S
C1005  C1597   1.418   .     S
C1006  C1053   1.501   .     S
C1006  N1010   1.384   .     A
N1009  Zn1019  2.019   .     S
N1010  Zn1020  2.019   .     S
O1011  Zn1019  1.965   .     S
O1012  Zn1020  1.965   .     S
O1013  Zn1020  1.991   .     S
O1014  Zn1019  1.991   .     S
O1015  Zn1019  1.991   .     S
O1016  Zn1020  1.991   .     S
O1017  Zn1020  2.007   .     S
O1018  Zn1019  2.007   .     S
O1021  C1022   1.416   .     S
O1021  C1061   1.396   .     S
C1022  H1023   1.114   .     S
C1022  H1025   1.106   .     S
C1022  H1090   1.110   .     S
H1024  C1154   1.110   1_455 S
O1026  C1027   1.416   .     S
O1026  C1128   1.396   1_455 S
C1027  H1030   1.106   .     S
C1027  H1029   1.114   .     S
C1027  H1160   1.110   1_455 S
H1028  C1093   1.110   .     S
O1031  C1032   1.412   .     S
C1032  H1033   1.107   .     S
C1032  H1035   1.112   .     S
C1032  H1034   1.111   .     S
O1036  C1037   1.412   .     S
C1037  H1040   1.107   .     S
C1037  H1038   1.113   .     S
C1037  H1039   1.111   .     S
C1041  H1044   1.111   .     S
C1041  H1043   1.107   .     S
C1041  H1042   1.110   .     S
C1045  H1046   1.110   .     S
C1045  H1047   1.111   .     S
C1045  H1048   1.107   .     S
C1049  H1050   1.103   .     S
C1049  H1051   1.108   .     S
C1049  H1052   1.111   .     S
C1053  H1055   1.103   .     S
C1053  H1056   1.111   .     S
C1053  H1054   1.108   .     S
C1057  O1077   1.281   .     A
C1057  C1068   1.405   .     S
C1057  O1079   1.280   .     A
C1058  O1078   1.281   .     A
C1058  C1067   1.405   .     S
C1058  O1080   1.280   .     A
C1059  O1083   1.289   .     A
C1059  O1081   1.281   .     A
C1059  C1061   1.421   .     S
C1060  O1082   1.281   .     A
C1060  C1062   1.421   .     S
C1060  O1084   1.289   .     A
C1062  C1127   1.358   .     S
C1062  O1158   1.396   .     S
C1063  C1068   1.400   .     A
C1063  O1097   1.386   .     S
C1064  C1067   1.400   .     A
C1064  O1102   1.386   .     S
C1064  C670    1.389   1_565 S
C1065  C1107   1.515   .     S
C1065  C1067   1.403   .     A
C1065  C667    1.389   1_565 S
C1066  C1111   1.515   .     S
C1066  C1068   1.403   .     A
C1069  H1073   1.083   .     S
C1069  N1076   1.356   .     A
C1070  H1074   1.083   .     S
C1070  N1075   1.356   .     A
C1070  C1666   1.418   .     S
C1071  N1075   1.384   .     A
C1071  C1115   1.501   .     S
C1071  C1663   1.418   .     S
C1072  C1119   1.501   .     S
C1072  N1076   1.384   .     A
N1075  Zn1085  2.019   .     S
N1076  Zn1086  2.019   .     S
O1077  Zn1085  1.965   .     S
O1078  Zn1086  1.965   .     S
O1079  Zn1086  1.991   .     S
O1080  Zn1085  1.991   .     S
O1081  Zn1085  1.991   .     S
O1082  Zn1086  1.991   .     S
O1083  Zn1086  2.007   .     S
O1084  Zn1085  2.007   .     S
O1087  C1088   1.416   .     S
O1087  C1127   1.396   .     S
C1088  H1089   1.114   .     S
C1088  H1091   1.106   .     S
C1088  H1156   1.110   .     S
O1092  C1093   1.416   .     S
C1093  H1096   1.106   .     S
C1093  H1095   1.114   .     S
H1094  C1159   1.110   .     S
O1097  C1098   1.412   .     S
C1098  H1099   1.107   .     S
C1098  H1101   1.112   .     S
C1098  H1100   1.111   .     S
O1102  C1103   1.412   .     S
C1103  H1106   1.107   .     S
C1103  H1104   1.113   .     S
C1103  H1105   1.111   .     S
C1107  H1110   1.111   .     S
C1107  H1109   1.107   .     S
C1107  H1108   1.110   .     S
C1111  H1112   1.110   .     S
C1111  H1113   1.111   .     S
C1111  H1114   1.107   .     S
C1115  H1116   1.103   .     S
C1115  H1117   1.108   .     S
C1115  H1118   1.111   .     S
C1119  H1121   1.103   .     S
C1119  H1122   1.111   .     S
C1119  H1120   1.108   .     S
C1123  O1143   1.281   .     A
C1123  C1134   1.405   .     S
C1123  O1145   1.280   .     A
C1124  O1144   1.281   .     A
C1124  C1133   1.405   .     S
C1124  O1146   1.280   .     A
C1125  O1149   1.289   .     A
C1125  O1147   1.281   .     A
C1125  C1127   1.421   .     S
C1126  O1148   1.281   .     A
C1126  C1128   1.421   .     S
C1126  O1150   1.289   .     A
C1128  C995    1.358   1_655 S
C1128  O1026   1.396   1_655 S
C1129  C1134   1.400   .     A
C1129  O1163   1.386   .     S
C1130  C1133   1.400   .     A
C1130  O1168   1.386   .     S
C1130  C736    1.389   1_565 S
C1131  C1173   1.515   .     S
C1131  C1133   1.403   .     A
C1131  C733    1.389   1_565 S
C1132  C1177   1.515   .     S
C1132  C1134   1.403   .     A
C1135  H1139   1.083   .     S
C1135  N1142   1.356   .     A
C1136  H1140   1.083   .     S
C1136  N1141   1.356   .     A
C1136  C1732   1.418   .     S
C1137  N1141   1.384   .     A
C1137  C1181   1.501   .     S
C1137  C1729   1.418   .     S
C1138  C1185   1.501   .     S
C1138  N1142   1.384   .     A
N1141  Zn1151  2.019   .     S
N1142  Zn1152  2.019   .     S
O1143  Zn1151  1.965   .     S
O1144  Zn1152  1.965   .     S
O1145  Zn1152  1.991   .     S
O1146  Zn1151  1.991   .     S
O1147  Zn1151  1.991   .     S
O1148  Zn1152  1.991   .     S
O1149  Zn1152  2.007   .     S
O1150  Zn1151  2.007   .     S
O1153  C1154   1.416   .     S
O1153  C995    1.396   1_655 S
C1154  H1155   1.114   .     S
C1154  H1157   1.106   .     S
C1154  H1024   1.110   1_655 S
O1158  C1159   1.416   .     S
C1159  H1162   1.106   .     S
C1159  H1161   1.114   .     S
H1160  C1027   1.110   1_655 S
O1163  C1164   1.412   .     S
C1164  H1165   1.107   .     S
C1164  H1167   1.112   .     S
C1164  H1166   1.111   .     S
O1168  C1169   1.412   .     S
C1169  H1172   1.107   .     S
C1169  H1170   1.113   .     S
C1169  H1171   1.111   .     S
C1173  H1176   1.111   .     S
C1173  H1175   1.107   .     S
C1173  H1174   1.110   .     S
C1177  H1178   1.110   .     S
C1177  H1179   1.111   .     S
C1177  H1180   1.107   .     S
C1181  H1182   1.103   .     S
C1181  H1183   1.108   .     S
C1181  H1184   1.111   .     S
C1185  H1187   1.103   .     S
C1185  H1188   1.111   .     S
C1185  H1186   1.108   .     S
C1189  O1209   1.281   .     A
C1189  C1200   1.405   .     S
C1189  O1211   1.280   .     A
C1190  O1210   1.281   .     A
C1190  C1199   1.405   .     S
C1190  O1212   1.280   .     A
C1191  O1215   1.289   .     A
C1191  O1213   1.281   .     A
C1191  C1193   1.421   .     S
C1192  O1214   1.281   .     A
C1192  C1194   1.421   .     S
C1192  O1216   1.289   .     A
C1193  C1326   1.358   1_455 S
C1193  O1351   1.396   1_455 S
C1194  C1259   1.358   .     S
C1194  O1290   1.396   .     S
C1195  C1200   1.400   .     A
C1195  O1229   1.386   .     S
C1195  C1593   1.389   1_545 S
C1196  C1199   1.400   .     A
C1196  O1234   1.386   .     S
C1196  C1396   1.389   .     S
C1197  C1239   1.515   .     S
C1197  C1199   1.403   .     A
C1197  C1393   1.389   .     S
C1198  C1243   1.515   .     S
C1198  C1200   1.403   .     A
C1198  C1592   1.389   1_545 S
C1201  H1205   1.083   .     S
C1201  N1208   1.356   .     A
C1202  H1206   1.083   .     S
C1202  N1207   1.356   .     A
C1202  C16     1.418   1_556 S
C1203  N1207   1.384   .     A
C1203  C1247   1.501   .     S
C1203  C13     1.418   1_556 S
C1204  C1251   1.501   .     S
C1204  N1208   1.384   .     A
N1207  Zn1217  2.019   .     S
N1208  Zn1218  2.019   .     S
O1209  Zn1217  1.965   .     S
O1210  Zn1218  1.965   .     S
O1211  Zn1218  1.991   .     S
O1212  Zn1217  1.991   .     S
O1213  Zn1217  1.991   .     S
O1214  Zn1218  1.991   .     S
O1215  Zn1218  2.007   .     S
O1216  Zn1217  2.007   .     S
O1219  C1220   1.416   .     S
O1219  C1259   1.396   .     S
C1220  H1221   1.114   .     S
C1220  H1223   1.106   .     S
C1220  H1288   1.110   .     S
H1222  C1352   1.110   1_455 S
O1224  C1225   1.416   .     S
O1224  C1326   1.396   1_455 S
C1225  H1228   1.106   .     S
C1225  H1227   1.114   .     S
C1225  H1358   1.110   1_455 S
H1226  C1291   1.110   .     S
O1229  C1230   1.412   .     S
C1230  H1231   1.107   .     S
C1230  H1233   1.112   .     S
C1230  H1232   1.111   .     S
O1234  C1235   1.412   .     S
C1235  H1238   1.107   .     S
C1235  H1236   1.113   .     S
C1235  H1237   1.111   .     S
C1239  H1242   1.111   .     S
C1239  H1241   1.107   .     S
C1239  H1240   1.110   .     S
C1243  H1244   1.110   .     S
C1243  H1245   1.111   .     S
C1243  H1246   1.107   .     S
C1247  H1248   1.103   .     S
C1247  H1249   1.108   .     S
C1247  H1250   1.111   .     S
C1251  H1253   1.103   .     S
C1251  H1254   1.111   .     S
C1251  H1252   1.108   .     S
C1255  O1275   1.281   .     A
C1255  C1266   1.405   .     S
C1255  O1277   1.280   .     A
C1256  O1276   1.281   .     A
C1256  C1265   1.405   .     S
C1256  O1278   1.280   .     A
C1257  O1281   1.289   .     A
C1257  O1279   1.281   .     A
C1257  C1259   1.421   .     S
C1258  O1280   1.281   .     A
C1258  C1260   1.421   .     S
C1258  O1282   1.289   .     A
C1260  C1325   1.358   .     S
C1260  O1356   1.396   .     S
C1261  C1266   1.400   .     A
C1261  O1295   1.386   .     S
C1261  C1659   1.389   1_545 S
C1262  C1265   1.400   .     A
C1262  O1300   1.386   .     S
C1262  C1462   1.389   .     S
C1263  C1305   1.515   .     S
C1263  C1265   1.403   .     A
C1263  C1459   1.389   .     S
C1264  C1309   1.515   .     S
C1264  C1266   1.403   .     A
C1264  C1658   1.389   1_545 S
C1267  H1271   1.083   .     S
C1267  N1274   1.356   .     A
C1268  H1272   1.083   .     S
C1268  N1273   1.356   .     A
C1268  C82     1.418   1_556 S
C1269  N1273   1.384   .     A
C1269  C1313   1.501   .     S
C1269  C79     1.418   1_556 S
C1270  C1317   1.501   .     S
C1270  N1274   1.384   .     A
N1273  Zn1283  2.019   .     S
N1274  Zn1284  2.019   .     S
O1275  Zn1283  1.965   .     S
O1276  Zn1284  1.965   .     S
O1277  Zn1284  1.991   .     S
O1278  Zn1283  1.991   .     S
O1279  Zn1283  1.991   .     S
O1280  Zn1284  1.991   .     S
O1281  Zn1284  2.007   .     S
O1282  Zn1283  2.007   .     S
O1285  C1286   1.416   .     S
O1285  C1325   1.396   .     S
C1286  H1287   1.114   .     S
C1286  H1289   1.106   .     S
C1286  H1354   1.110   .     S
O1290  C1291   1.416   .     S
C1291  H1294   1.106   .     S
C1291  H1293   1.114   .     S
H1292  C1357   1.110   .     S
O1295  C1296   1.412   .     S
C1296  H1297   1.107   .     S
C1296  H1299   1.112   .     S
C1296  H1298   1.111   .     S
O1300  C1301   1.412   .     S
C1301  H1304   1.107   .     S
C1301  H1302   1.113   .     S
C1301  H1303   1.111   .     S
C1305  H1308   1.111   .     S
C1305  H1307   1.107   .     S
C1305  H1306   1.110   .     S
C1309  H1310   1.110   .     S
C1309  H1311   1.111   .     S
C1309  H1312   1.107   .     S
C1313  H1314   1.103   .     S
C1313  H1315   1.108   .     S
C1313  H1316   1.111   .     S
C1317  H1319   1.103   .     S
C1317  H1320   1.111   .     S
C1317  H1318   1.108   .     S
C1321  O1341   1.281   .     A
C1321  C1332   1.405   .     S
C1321  O1343   1.280   .     A
C1322  O1342   1.281   .     A
C1322  C1331   1.405   .     S
C1322  O1344   1.280   .     A
C1323  O1347   1.289   .     A
C1323  O1345   1.281   .     A
C1323  C1325   1.421   .     S
C1324  O1346   1.281   .     A
C1324  C1326   1.421   .     S
C1324  O1348   1.289   .     A
C1326  C1193   1.358   1_655 S
C1326  O1224   1.396   1_655 S
C1327  C1332   1.400   .     A
C1327  O1361   1.386   .     S
C1327  C1725   1.389   1_545 S
C1328  C1331   1.400   .     A
C1328  O1366   1.386   .     S
C1328  C1528   1.389   .     S
C1329  C1371   1.515   .     S
C1329  C1331   1.403   .     A
C1329  C1525   1.389   .     S
C1330  C1375   1.515   .     S
C1330  C1332   1.403   .     A
C1330  C1724   1.389   1_545 S
C1333  H1337   1.083   .     S
C1333  N1340   1.356   .     A
C1334  H1338   1.083   .     S
C1334  N1339   1.356   .     A
C1334  C148    1.418   1_556 S
C1335  N1339   1.384   .     A
C1335  C1379   1.501   .     S
C1335  C145    1.418   1_556 S
C1336  C1383   1.501   .     S
C1336  N1340   1.384   .     A
N1339  Zn1349  2.019   .     S
N1340  Zn1350  2.019   .     S
O1341  Zn1349  1.965   .     S
O1342  Zn1350  1.965   .     S
O1343  Zn1350  1.991   .     S
O1344  Zn1349  1.991   .     S
O1345  Zn1349  1.991   .     S
O1346  Zn1350  1.991   .     S
O1347  Zn1350  2.007   .     S
O1348  Zn1349  2.007   .     S
O1351  C1352   1.416   .     S
O1351  C1193   1.396   1_655 S
C1352  H1353   1.114   .     S
C1352  H1355   1.106   .     S
C1352  H1222   1.110   1_655 S
O1356  C1357   1.416   .     S
C1357  H1360   1.106   .     S
C1357  H1359   1.114   .     S
H1358  C1225   1.110   1_655 S
O1361  C1362   1.412   .     S
C1362  H1363   1.107   .     S
C1362  H1365   1.112   .     S
C1362  H1364   1.111   .     S
O1366  C1367   1.412   .     S
C1367  H1370   1.107   .     S
C1367  H1368   1.113   .     S
C1367  H1369   1.111   .     S
C1371  H1374   1.111   .     S
C1371  H1373   1.107   .     S
C1371  H1372   1.110   .     S
C1375  H1376   1.110   .     S
C1375  H1377   1.111   .     S
C1375  H1378   1.107   .     S
C1379  H1380   1.103   .     S
C1379  H1381   1.108   .     S
C1379  H1382   1.111   .     S
C1383  H1385   1.103   .     S
C1383  H1386   1.111   .     S
C1383  H1384   1.108   .     S
C1387  O1407   1.281   .     A
C1387  C1398   1.405   .     S
C1387  O1409   1.280   .     A
C1388  O1408   1.281   .     A
C1388  C1397   1.405   .     S
C1388  O1410   1.280   .     A
C1389  O1413   1.289   .     A
C1389  O1411   1.281   .     A
C1389  C1391   1.421   .     S
C1390  O1412   1.281   .     A
C1390  C1392   1.421   .     S
C1390  O1414   1.289   .     A
C1391  C1524   1.358   1_455 S
C1391  O1549   1.396   1_455 S
C1392  C1457   1.358   .     S
C1392  O1488   1.396   .     S
C1393  C1398   1.400   .     A
C1393  O1427   1.386   .     S
C1394  C1397   1.400   .     A
C1394  O1432   1.386   .     S
C1394  C1594   1.389   .     S
C1395  C1437   1.515   .     S
C1395  C1397   1.403   .     A
C1395  C1591   1.389   .     S
C1396  C1441   1.515   .     S
C1396  C1398   1.403   .     A
C1399  H1403   1.083   .     S
C1399  N1406   1.356   .     A
C1400  H1404   1.083   .     S
C1400  N1405   1.356   .     A
C1400  C214    1.418   1_556 S
C1401  N1405   1.384   .     A
C1401  C1445   1.501   .     S
C1401  C211    1.418   1_556 S
C1402  C1449   1.501   .     S
C1402  N1406   1.384   .     A
N1405  Zn1415  2.019   .     S
N1406  Zn1416  2.019   .     S
O1407  Zn1415  1.965   .     S
O1408  Zn1416  1.965   .     S
O1409  Zn1416  1.991   .     S
O1410  Zn1415  1.991   .     S
O1411  Zn1415  1.991   .     S
O1412  Zn1416  1.991   .     S
O1413  Zn1416  2.007   .     S
O1414  Zn1415  2.007   .     S
O1417  C1418   1.416   .     S
O1417  C1457   1.396   .     S
C1418  H1419   1.114   .     S
C1418  H1421   1.106   .     S
C1418  H1486   1.110   .     S
H1420  C1550   1.110   1_455 S
O1422  C1423   1.416   .     S
O1422  C1524   1.396   1_455 S
C1423  H1426   1.106   .     S
C1423  H1425   1.114   .     S
C1423  H1556   1.110   1_455 S
H1424  C1489   1.110   .     S
O1427  C1428   1.412   .     S
C1428  H1429   1.107   .     S
C1428  H1431   1.112   .     S
C1428  H1430   1.111   .     S
O1432  C1433   1.412   .     S
C1433  H1436   1.107   .     S
C1433  H1434   1.113   .     S
C1433  H1435   1.111   .     S
C1437  H1440   1.111   .     S
C1437  H1439   1.107   .     S
C1437  H1438   1.110   .     S
C1441  H1442   1.110   .     S
C1441  H1443   1.111   .     S
C1441  H1444   1.107   .     S
C1445  H1446   1.103   .     S
C1445  H1447   1.108   .     S
C1445  H1448   1.111   .     S
C1449  H1451   1.103   .     S
C1449  H1452   1.111   .     S
C1449  H1450   1.108   .     S
C1453  O1473   1.281   .     A
C1453  C1464   1.405   .     S
C1453  O1475   1.280   .     A
C1454  O1474   1.281   .     A
C1454  C1463   1.405   .     S
C1454  O1476   1.280   .     A
C1455  O1479   1.289   .     A
C1455  O1477   1.281   .     A
C1455  C1457   1.421   .     S
C1456  O1478   1.281   .     A
C1456  C1458   1.421   .     S
C1456  O1480   1.289   .     A
C1458  C1523   1.358   .     S
C1458  O1554   1.396   .     S
C1459  C1464   1.400   .     A
C1459  O1493   1.386   .     S
C1460  C1463   1.400   .     A
C1460  O1498   1.386   .     S
C1460  C1660   1.389   .     S
C1461  C1503   1.515   .     S
C1461  C1463   1.403   .     A
C1461  C1657   1.389   .     S
C1462  C1507   1.515   .     S
C1462  C1464   1.403   .     A
C1465  H1469   1.083   .     S
C1465  N1472   1.356   .     A
C1466  H1470   1.083   .     S
C1466  N1471   1.356   .     A
C1466  C280    1.418   1_556 S
C1467  N1471   1.384   .     A
C1467  C1511   1.501   .     S
C1467  C277    1.418   1_556 S
C1468  C1515   1.501   .     S
C1468  N1472   1.384   .     A
N1471  Zn1481  2.019   .     S
N1472  Zn1482  2.019   .     S
O1473  Zn1481  1.965   .     S
O1474  Zn1482  1.965   .     S
O1475  Zn1482  1.991   .     S
O1476  Zn1481  1.991   .     S
O1477  Zn1481  1.991   .     S
O1478  Zn1482  1.991   .     S
O1479  Zn1482  2.007   .     S
O1480  Zn1481  2.007   .     S
O1483  C1484   1.416   .     S
O1483  C1523   1.396   .     S
C1484  H1485   1.114   .     S
C1484  H1487   1.106   .     S
C1484  H1552   1.110   .     S
O1488  C1489   1.416   .     S
C1489  H1492   1.106   .     S
C1489  H1491   1.114   .     S
H1490  C1555   1.110   .     S
O1493  C1494   1.412   .     S
C1494  H1495   1.107   .     S
C1494  H1497   1.112   .     S
C1494  H1496   1.111   .     S
O1498  C1499   1.412   .     S
C1499  H1502   1.107   .     S
C1499  H1500   1.113   .     S
C1499  H1501   1.111   .     S
C1503  H1506   1.111   .     S
C1503  H1505   1.107   .     S
C1503  H1504   1.110   .     S
C1507  H1508   1.110   .     S
C1507  H1509   1.111   .     S
C1507  H1510   1.107   .     S
C1511  H1512   1.103   .     S
C1511  H1513   1.108   .     S
C1511  H1514   1.111   .     S
C1515  H1517   1.103   .     S
C1515  H1518   1.111   .     S
C1515  H1516   1.108   .     S
C1519  O1539   1.281   .     A
C1519  C1530   1.405   .     S
C1519  O1541   1.280   .     A
C1520  O1540   1.281   .     A
C1520  C1529   1.405   .     S
C1520  O1542   1.280   .     A
C1521  O1545   1.289   .     A
C1521  O1543   1.281   .     A
C1521  C1523   1.421   .     S
C1522  O1544   1.281   .     A
C1522  C1524   1.421   .     S
C1522  O1546   1.289   .     A
C1524  C1391   1.358   1_655 S
C1524  O1422   1.396   1_655 S
C1525  C1530   1.400   .     A
C1525  O1559   1.386   .     S
C1526  C1529   1.400   .     A
C1526  O1564   1.386   .     S
C1526  C1726   1.389   .     S
C1527  C1569   1.515   .     S
C1527  C1529   1.403   .     A
C1527  C1723   1.389   .     S
C1528  C1573   1.515   .     S
C1528  C1530   1.403   .     A
C1531  H1535   1.083   .     S
C1531  N1538   1.356   .     A
C1532  H1536   1.083   .     S
C1532  N1537   1.356   .     A
C1532  C346    1.418   1_556 S
C1533  N1537   1.384   .     A
C1533  C1577   1.501   .     S
C1533  C343    1.418   1_556 S
C1534  C1581   1.501   .     S
C1534  N1538   1.384   .     A
N1537  Zn1547  2.019   .     S
N1538  Zn1548  2.019   .     S
O1539  Zn1547  1.965   .     S
O1540  Zn1548  1.965   .     S
O1541  Zn1548  1.991   .     S
O1542  Zn1547  1.991   .     S
O1543  Zn1547  1.991   .     S
O1544  Zn1548  1.991   .     S
O1545  Zn1548  2.007   .     S
O1546  Zn1547  2.007   .     S
O1549  C1550   1.416   .     S
O1549  C1391   1.396   1_655 S
C1550  H1551   1.114   .     S
C1550  H1553   1.106   .     S
C1550  H1420   1.110   1_655 S
O1554  C1555   1.416   .     S
C1555  H1558   1.106   .     S
C1555  H1557   1.114   .     S
H1556  C1423   1.110   1_655 S
O1559  C1560   1.412   .     S
C1560  H1561   1.107   .     S
C1560  H1563   1.112   .     S
C1560  H1562   1.111   .     S
O1564  C1565   1.412   .     S
C1565  H1568   1.107   .     S
C1565  H1566   1.113   .     S
C1565  H1567   1.111   .     S
C1569  H1572   1.111   .     S
C1569  H1571   1.107   .     S
C1569  H1570   1.110   .     S
C1573  H1574   1.110   .     S
C1573  H1575   1.111   .     S
C1573  H1576   1.107   .     S
C1577  H1578   1.103   .     S
C1577  H1579   1.108   .     S
C1577  H1580   1.111   .     S
C1581  H1583   1.103   .     S
C1581  H1584   1.111   .     S
C1581  H1582   1.108   .     S
C1585  O1605   1.281   .     A
C1585  C1596   1.405   .     S
C1585  O1607   1.280   .     A
C1586  O1606   1.281   .     A
C1586  C1595   1.405   .     S
C1586  O1608   1.280   .     A
C1587  O1611   1.289   .     A
C1587  O1609   1.281   .     A
C1587  C1589   1.421   .     S
C1588  O1610   1.281   .     A
C1588  C1590   1.421   .     S
C1588  O1612   1.289   .     A
C1589  C1722   1.358   1_455 S
C1589  O1747   1.396   1_455 S
C1590  C1655   1.358   .     S
C1590  O1686   1.396   .     S
C1591  C1596   1.400   .     A
C1591  O1625   1.386   .     S
C1592  C1595   1.400   .     A
C1592  O1630   1.386   .     S
C1592  C1198   1.389   1_565 S
C1593  C1635   1.515   .     S
C1593  C1595   1.403   .     A
C1593  C1195   1.389   1_565 S
C1594  C1639   1.515   .     S
C1594  C1596   1.403   .     A
C1597  H1601   1.083   .     S
C1597  N1604   1.356   .     A
C1598  H1602   1.083   .     S
C1598  N1603   1.356   .     A
C1598  C412    1.418   1_556 S
C1599  N1603   1.384   .     A
C1599  C1643   1.501   .     S
C1599  C409    1.418   1_556 S
C1600  C1647   1.501   .     S
C1600  N1604   1.384   .     A
N1603  Zn1613  2.019   .     S
N1604  Zn1614  2.019   .     S
O1605  Zn1613  1.965   .     S
O1606  Zn1614  1.965   .     S
O1607  Zn1614  1.991   .     S
O1608  Zn1613  1.991   .     S
O1609  Zn1613  1.991   .     S
O1610  Zn1614  1.991   .     S
O1611  Zn1614  2.007   .     S
O1612  Zn1613  2.007   .     S
O1615  C1616   1.416   .     S
O1615  C1655   1.396   .     S
C1616  H1617   1.114   .     S
C1616  H1619   1.106   .     S
C1616  H1684   1.110   .     S
H1618  C1748   1.110   1_455 S
O1620  C1621   1.416   .     S
O1620  C1722   1.396   1_455 S
C1621  H1624   1.106   .     S
C1621  H1623   1.114   .     S
C1621  H1754   1.110   1_455 S
H1622  C1687   1.110   .     S
O1625  C1626   1.412   .     S
C1626  H1627   1.107   .     S
C1626  H1629   1.112   .     S
C1626  H1628   1.111   .     S
O1630  C1631   1.412   .     S
C1631  H1634   1.107   .     S
C1631  H1632   1.113   .     S
C1631  H1633   1.111   .     S
C1635  H1638   1.111   .     S
C1635  H1637   1.107   .     S
C1635  H1636   1.110   .     S
C1639  H1640   1.110   .     S
C1639  H1641   1.111   .     S
C1639  H1642   1.107   .     S
C1643  H1644   1.103   .     S
C1643  H1645   1.108   .     S
C1643  H1646   1.111   .     S
C1647  H1649   1.103   .     S
C1647  H1650   1.111   .     S
C1647  H1648   1.108   .     S
C1651  O1671   1.281   .     A
C1651  C1662   1.405   .     S
C1651  O1673   1.280   .     A
C1652  O1672   1.281   .     A
C1652  C1661   1.405   .     S
C1652  O1674   1.280   .     A
C1653  O1677   1.289   .     A
C1653  O1675   1.281   .     A
C1653  C1655   1.421   .     S
C1654  O1676   1.281   .     A
C1654  C1656   1.421   .     S
C1654  O1678   1.289   .     A
C1656  C1721   1.358   .     S
C1656  O1752   1.396   .     S
C1657  C1662   1.400   .     A
C1657  O1691   1.386   .     S
C1658  C1661   1.400   .     A
C1658  O1696   1.386   .     S
C1658  C1264   1.389   1_565 S
C1659  C1701   1.515   .     S
C1659  C1661   1.403   .     A
C1659  C1261   1.389   1_565 S
C1660  C1705   1.515   .     S
C1660  C1662   1.403   .     A
C1663  H1667   1.083   .     S
C1663  N1670   1.356   .     A
C1664  H1668   1.083   .     S
C1664  N1669   1.356   .     A
C1664  C478    1.418   1_556 S
C1665  N1669   1.384   .     A
C1665  C1709   1.501   .     S
C1665  C475    1.418   1_556 S
C1666  C1713   1.501   .     S
C1666  N1670   1.384   .     A
N1669  Zn1679  2.019   .     S
N1670  Zn1680  2.019   .     S
O1671  Zn1679  1.965   .     S
O1672  Zn1680  1.965   .     S
O1673  Zn1680  1.991   .     S
O1674  Zn1679  1.991   .     S
O1675  Zn1679  1.991   .     S
O1676  Zn1680  1.991   .     S
O1677  Zn1680  2.007   .     S
O1678  Zn1679  2.007   .     S
O1681  C1682   1.416   .     S
O1681  C1721   1.396   .     S
C1682  H1683   1.114   .     S
C1682  H1685   1.106   .     S
C1682  H1750   1.110   .     S
O1686  C1687   1.416   .     S
C1687  H1690   1.106   .     S
C1687  H1689   1.114   .     S
H1688  C1753   1.110   .     S
O1691  C1692   1.412   .     S
C1692  H1693   1.107   .     S
C1692  H1695   1.112   .     S
C1692  H1694   1.111   .     S
O1696  C1697   1.412   .     S
C1697  H1700   1.107   .     S
C1697  H1698   1.113   .     S
C1697  H1699   1.111   .     S
C1701  H1704   1.111   .     S
C1701  H1703   1.107   .     S
C1701  H1702   1.110   .     S
C1705  H1706   1.110   .     S
C1705  H1707   1.111   .     S
C1705  H1708   1.107   .     S
C1709  H1710   1.103   .     S
C1709  H1711   1.108   .     S
C1709  H1712   1.111   .     S
C1713  H1715   1.103   .     S
C1713  H1716   1.111   .     S
C1713  H1714   1.108   .     S
C1717  O1737   1.281   .     A
C1717  C1728   1.405   .     S
C1717  O1739   1.280   .     A
C1718  O1738   1.281   .     A
C1718  C1727   1.405   .     S
C1718  O1740   1.280   .     A
C1719  O1743   1.289   .     A
C1719  O1741   1.281   .     A
C1719  C1721   1.421   .     S
C1720  O1742   1.281   .     A
C1720  C1722   1.421   .     S
C1720  O1744   1.289   .     A
C1722  C1589   1.358   1_655 S
C1722  O1620   1.396   1_655 S
C1723  C1728   1.400   .     A
C1723  O1757   1.386   .     S
C1724  C1727   1.400   .     A
C1724  O1762   1.386   .     S
C1724  C1330   1.389   1_565 S
C1725  C1767   1.515   .     S
C1725  C1727   1.403   .     A
C1725  C1327   1.389   1_565 S
C1726  C1771   1.515   .     S
C1726  C1728   1.403   .     A
C1729  H1733   1.083   .     S
C1729  N1736   1.356   .     A
C1730  H1734   1.083   .     S
C1730  N1735   1.356   .     A
C1730  C544    1.418   1_556 S
C1731  N1735   1.384   .     A
C1731  C1775   1.501   .     S
C1731  C541    1.418   1_556 S
C1732  C1779   1.501   .     S
C1732  N1736   1.384   .     A
N1735  Zn1745  2.019   .     S
N1736  Zn1746  2.019   .     S
O1737  Zn1745  1.965   .     S
O1738  Zn1746  1.965   .     S
O1739  Zn1746  1.991   .     S
O1740  Zn1745  1.991   .     S
O1741  Zn1745  1.991   .     S
O1742  Zn1746  1.991   .     S
O1743  Zn1746  2.007   .     S
O1744  Zn1745  2.007   .     S
O1747  C1748   1.416   .     S
O1747  C1589   1.396   1_655 S
C1748  H1749   1.114   .     S
C1748  H1751   1.106   .     S
C1748  H1618   1.110   1_655 S
O1752  C1753   1.416   .     S
C1753  H1756   1.106   .     S
C1753  H1755   1.114   .     S
H1754  C1621   1.110   1_655 S
O1757  C1758   1.412   .     S
C1758  H1759   1.107   .     S
C1758  H1761   1.112   .     S
C1758  H1760   1.111   .     S
O1762  C1763   1.412   .     S
C1763  H1766   1.107   .     S
C1763  H1764   1.113   .     S
C1763  H1765   1.111   .     S
C1767  H1770   1.111   .     S
C1767  H1769   1.107   .     S
C1767  H1768   1.110   .     S
C1771  H1772   1.110   .     S
C1771  H1773   1.111   .     S
C1771  H1774   1.107   .     S
C1775  H1776   1.103   .     S
C1775  H1777   1.108   .     S
C1775  H1778   1.111   .     S
C1779  H1781   1.103   .     S
C1779  H1782   1.111   .     S
C1779  H1780   1.108   .     S
