data_str_m3_o1_o16_pcu_sym.9
_audit_creation_date              2020-01-03
_audit_creation_method            'Materials Studio'
_symmetry_space_group_name_H-M    'P1'
_symmetry_Int_Tables_number       1
_symmetry_cell_setting            triclinic
loop_
_symmetry_equiv_pos_as_xyz
  x,y,z
_cell_length_a                    29.6488
_cell_length_b                    32.1364
_cell_length_c                    26.3759
_cell_angle_alpha                 89.3482
_cell_angle_beta                  69.2244
_cell_angle_gamma                 88.7580
loop_
_atom_site_label
_atom_site_type_symbol
_atom_site_fract_x
_atom_site_fract_y
_atom_site_fract_z
_atom_site_U_iso_or_equiv
_atom_site_adp_type
_atom_site_occupancy
C1     C     0.16635   0.24651   0.24976   0.00000  Uiso   1.00
C2     C     0.12196   0.16558   0.41180   0.00000  Uiso   1.00
C3     C     0.19179   0.31026   0.27673   0.00000  Uiso   1.00
C4     C     0.13969   0.16562   0.35233   0.00000  Uiso   1.00
C5     C     0.19329   0.01942   0.27624   0.00000  Uiso   1.00
C6     C     0.16838   0.04217   0.24811   0.00000  Uiso   1.00
C7     C     0.14321   0.02199   0.21929   0.00000  Uiso   1.00
C8     C     0.14169   0.31224   0.22101   0.00000  Uiso   1.00
C9     C     0.16593   0.29041   0.24966   0.00000  Uiso   1.00
C10    C     0.31812   0.13463   0.22715   0.00000  Uiso   1.00
C11    C     0.03240   0.13499   0.22693   0.00000  Uiso   1.00
C12    C     0.14376   0.16465   0.49264   0.00000  Uiso   1.00
C13    C     0.01576   0.19844   0.27337   0.00000  Uiso   1.00
C14    C     0.30125   0.19847   0.27328   0.00000  Uiso   1.00
C15    C     0.16722   0.08659   0.24961   0.00000  Uiso   1.00
C16    C     0.19376   0.16684   0.14768   0.00000  Uiso   1.00
C17    C     0.25759   0.12485   0.00868   0.00000  Uiso   1.00
C18    C     0.21122   0.16360   0.08855   0.00000  Uiso   1.00
C19    C     0.07828   0.18602   0.44052   0.00000  Uiso   1.00
C20    C     0.06576   0.19351   0.49572   0.00000  Uiso   1.00
C21    C     0.09806   0.18297   0.02175   0.00000  Uiso   1.00
C22    C     0.15231   0.15109   0.43938   0.00000  Uiso   1.00
C23    C     0.18087   0.15830   0.01466   0.00000  Uiso   1.00
C24    C     0.22159   0.13234   0.48665   0.00000  Uiso   1.00
C25    C     0.22567   0.11438   0.43709   0.00000  Uiso   1.00
C26    C     0.19116   0.12355   0.41439   0.00000  Uiso   1.00
C27    C     0.18017   0.17828   0.06222   0.00000  Uiso   1.00
C28    C     0.25192   0.13902   0.05996   0.00000  Uiso   1.00
Cl29   Cl    0.29660   0.12395   0.08605   0.00000  Uiso   1.00
Cl30   Cl    0.22570   0.04161   0.31310   0.00000  Uiso   1.00
Cl31   Cl    0.30285   0.09112   0.19790   0.00000  Uiso   1.00
Cl32   Cl    0.27458   0.08143   0.40050   0.00000  Uiso   1.00
Cl33   Cl    0.01102   0.21923   0.03151   0.00000  Uiso   1.00
H34    H     0.12281   0.29577   0.19912   0.00000  Uiso   1.00
H35    H     0.10574   0.02557   0.17162   0.00000  Uiso   1.00
H36    H     0.16249   0.22862   0.10633   0.00000  Uiso   1.00
H37    H     0.05723   0.10972   0.20838   0.00000  Uiso   1.00
H38    H     0.02723   0.22386   0.29217   0.00000  Uiso   1.00
H39    H     0.27673   0.22390   0.29205   0.00000  Uiso   1.00
H40    H     0.28938   0.10613   0.48758   0.00000  Uiso   1.00
H41    H     0.05463   0.19722   0.41986   0.00000  Uiso   1.00
H42    H     0.08595   0.18818   0.06488   0.00000  Uiso   1.00
H43    H     0.19484   0.10862   0.37680   0.00000  Uiso   1.00
H44    H     0.21043   0.29261   0.29890   0.00000  Uiso   1.00
N45    N     0.04760   0.16668   0.25001   0.00000  Uiso   1.00
N46    N     0.28573   0.16665   0.25000   0.00000  Uiso   1.00
O47    O     0.12846   0.22775   0.25000   0.00000  Uiso   1.00
O48    O     0.15095   0.21308   0.08116   0.00000  Uiso   1.00
O49    O     0.20490   0.22774   0.25000   0.00000  Uiso   1.00
O50    O     0.10947   0.16666   0.32681   0.00000  Uiso   1.00
O51    O     0.18591   0.16665   0.32681   0.00000  Uiso   1.00
O52    O     0.12843   0.10559   0.24999   0.00000  Uiso   1.00
O53    O     0.20488   0.10558   0.24999   0.00000  Uiso   1.00
O54    O     0.14742   0.16668   0.17319   0.00000  Uiso   1.00
O55    O     0.22387   0.16667   0.17319   0.00000  Uiso   1.00
O56    O     0.12165   0.04476   0.18895   0.00000  Uiso   1.00
Zn57   Zn    0.11562   0.16667   0.25000   0.00000  Uiso   1.00
Zn58   Zn    0.21771   0.16666   0.25000   0.00000  Uiso   1.00
C59    C     0.49968   0.24651   0.24976   0.00000  Uiso   1.00
C60    C     0.45530   0.16558   0.41180   0.00000  Uiso   1.00
C61    C     0.52513   0.31026   0.27673   0.00000  Uiso   1.00
C62    C     0.47302   0.16562   0.35233   0.00000  Uiso   1.00
C63    C     0.52662   0.01942   0.27624   0.00000  Uiso   1.00
C64    C     0.50171   0.04217   0.24811   0.00000  Uiso   1.00
C65    C     0.47655   0.02199   0.21929   0.00000  Uiso   1.00
C66    C     0.47502   0.31224   0.22101   0.00000  Uiso   1.00
C67    C     0.49927   0.29041   0.24966   0.00000  Uiso   1.00
C68    C     0.65145   0.13463   0.22715   0.00000  Uiso   1.00
C69    C     0.36574   0.13499   0.22693   0.00000  Uiso   1.00
C70    C     0.47710   0.16465   0.49264   0.00000  Uiso   1.00
C71    C     0.34909   0.19844   0.27337   0.00000  Uiso   1.00
C72    C     0.63458   0.19847   0.27328   0.00000  Uiso   1.00
C73    C     0.50055   0.08659   0.24961   0.00000  Uiso   1.00
C74    C     0.52710   0.16684   0.14768   0.00000  Uiso   1.00
C75    C     0.59093   0.12485   0.00868   0.00000  Uiso   1.00
C76    C     0.54455   0.16360   0.08855   0.00000  Uiso   1.00
C77    C     0.41162   0.18602   0.44052   0.00000  Uiso   1.00
C78    C     0.39909   0.19351   0.49572   0.00000  Uiso   1.00
C79    C     0.43139   0.18297   0.02175   0.00000  Uiso   1.00
C80    C     0.48564   0.15109   0.43938   0.00000  Uiso   1.00
C81    C     0.51421   0.15830   0.01466   0.00000  Uiso   1.00
C82    C     0.55492   0.13234   0.48665   0.00000  Uiso   1.00
C83    C     0.55901   0.11438   0.43709   0.00000  Uiso   1.00
C84    C     0.52449   0.12355   0.41439   0.00000  Uiso   1.00
C85    C     0.51351   0.17828   0.06222   0.00000  Uiso   1.00
C86    C     0.58525   0.13902   0.05996   0.00000  Uiso   1.00
Cl87   Cl    0.62993   0.12395   0.08605   0.00000  Uiso   1.00
Cl88   Cl    0.55904   0.04161   0.31310   0.00000  Uiso   1.00
Cl89   Cl    0.63618   0.09112   0.19790   0.00000  Uiso   1.00
Cl90   Cl    0.60791   0.08143   0.40050   0.00000  Uiso   1.00
Cl91   Cl    0.34435   0.21923   0.03151   0.00000  Uiso   1.00
H92    H     0.45614   0.29577   0.19912   0.00000  Uiso   1.00
H93    H     0.43907   0.02557   0.17162   0.00000  Uiso   1.00
H94    H     0.49583   0.22862   0.10633   0.00000  Uiso   1.00
H95    H     0.39056   0.10972   0.20838   0.00000  Uiso   1.00
H96    H     0.36056   0.22386   0.29217   0.00000  Uiso   1.00
H97    H     0.61006   0.22390   0.29205   0.00000  Uiso   1.00
H98    H     0.62271   0.10613   0.48758   0.00000  Uiso   1.00
H99    H     0.38796   0.19722   0.41986   0.00000  Uiso   1.00
H100   H     0.41929   0.18818   0.06488   0.00000  Uiso   1.00
H101   H     0.52817   0.10862   0.37680   0.00000  Uiso   1.00
H102   H     0.54377   0.29261   0.29890   0.00000  Uiso   1.00
N103   N     0.38093   0.16668   0.25001   0.00000  Uiso   1.00
N104   N     0.61906   0.16665   0.25000   0.00000  Uiso   1.00
O105   O     0.46179   0.22775   0.25000   0.00000  Uiso   1.00
O106   O     0.48428   0.21308   0.08116   0.00000  Uiso   1.00
O107   O     0.53823   0.22774   0.25000   0.00000  Uiso   1.00
O108   O     0.44280   0.16666   0.32681   0.00000  Uiso   1.00
O109   O     0.51924   0.16665   0.32681   0.00000  Uiso   1.00
O110   O     0.46177   0.10559   0.24999   0.00000  Uiso   1.00
O111   O     0.53821   0.10558   0.24999   0.00000  Uiso   1.00
O112   O     0.48076   0.16668   0.17319   0.00000  Uiso   1.00
O113   O     0.55720   0.16667   0.17319   0.00000  Uiso   1.00
O114   O     0.45499   0.04476   0.18895   0.00000  Uiso   1.00
Zn115  Zn    0.44896   0.16667   0.25000   0.00000  Uiso   1.00
Zn116  Zn    0.55104   0.16666   0.25000   0.00000  Uiso   1.00
C117   C     0.83302   0.24651   0.24976   0.00000  Uiso   1.00
C118   C     0.78863   0.16558   0.41180   0.00000  Uiso   1.00
C119   C     0.85846   0.31026   0.27673   0.00000  Uiso   1.00
C120   C     0.80635   0.16562   0.35233   0.00000  Uiso   1.00
C121   C     0.85995   0.01942   0.27624   0.00000  Uiso   1.00
C122   C     0.83505   0.04217   0.24811   0.00000  Uiso   1.00
C123   C     0.80988   0.02199   0.21929   0.00000  Uiso   1.00
C124   C     0.80836   0.31224   0.22101   0.00000  Uiso   1.00
C125   C     0.83260   0.29041   0.24966   0.00000  Uiso   1.00
C126   C     0.98478   0.13463   0.22715   0.00000  Uiso   1.00
C127   C     0.69907   0.13499   0.22693   0.00000  Uiso   1.00
C128   C     0.81043   0.16465   0.49264   0.00000  Uiso   1.00
C129   C     0.68243   0.19844   0.27337   0.00000  Uiso   1.00
C130   C     0.96791   0.19847   0.27328   0.00000  Uiso   1.00
C131   C     0.83388   0.08659   0.24961   0.00000  Uiso   1.00
C132   C     0.86043   0.16684   0.14768   0.00000  Uiso   1.00
C133   C     0.92426   0.12485   0.00868   0.00000  Uiso   1.00
C134   C     0.87789   0.16360   0.08855   0.00000  Uiso   1.00
C135   C     0.74495   0.18602   0.44052   0.00000  Uiso   1.00
C136   C     0.73243   0.19351   0.49572   0.00000  Uiso   1.00
C137   C     0.76473   0.18297   0.02175   0.00000  Uiso   1.00
C138   C     0.81897   0.15109   0.43938   0.00000  Uiso   1.00
C139   C     0.84754   0.15830   0.01466   0.00000  Uiso   1.00
C140   C     0.88825   0.13234   0.48665   0.00000  Uiso   1.00
C141   C     0.89234   0.11438   0.43709   0.00000  Uiso   1.00
C142   C     0.85783   0.12355   0.41439   0.00000  Uiso   1.00
C143   C     0.84684   0.17828   0.06222   0.00000  Uiso   1.00
C144   C     0.91859   0.13902   0.05996   0.00000  Uiso   1.00
Cl145  Cl    0.96327   0.12395   0.08605   0.00000  Uiso   1.00
Cl146  Cl    0.89237   0.04161   0.31310   0.00000  Uiso   1.00
Cl147  Cl    0.96952   0.09112   0.19790   0.00000  Uiso   1.00
Cl148  Cl    0.94124   0.08143   0.40050   0.00000  Uiso   1.00
Cl149  Cl    0.67768   0.21923   0.03151   0.00000  Uiso   1.00
H150   H     0.78948   0.29577   0.19912   0.00000  Uiso   1.00
H151   H     0.77240   0.02557   0.17162   0.00000  Uiso   1.00
H152   H     0.82916   0.22862   0.10633   0.00000  Uiso   1.00
H153   H     0.72390   0.10972   0.20838   0.00000  Uiso   1.00
H154   H     0.69390   0.22386   0.29217   0.00000  Uiso   1.00
H155   H     0.94339   0.22390   0.29205   0.00000  Uiso   1.00
H156   H     0.95605   0.10613   0.48758   0.00000  Uiso   1.00
H157   H     0.72129   0.19722   0.41986   0.00000  Uiso   1.00
H158   H     0.75262   0.18818   0.06488   0.00000  Uiso   1.00
H159   H     0.86150   0.10862   0.37680   0.00000  Uiso   1.00
H160   H     0.87710   0.29261   0.29890   0.00000  Uiso   1.00
N161   N     0.71426   0.16668   0.25001   0.00000  Uiso   1.00
N162   N     0.95239   0.16665   0.25000   0.00000  Uiso   1.00
O163   O     0.79512   0.22775   0.25000   0.00000  Uiso   1.00
O164   O     0.81761   0.21308   0.08116   0.00000  Uiso   1.00
O165   O     0.87157   0.22774   0.25000   0.00000  Uiso   1.00
O166   O     0.77613   0.16666   0.32681   0.00000  Uiso   1.00
O167   O     0.85258   0.16665   0.32681   0.00000  Uiso   1.00
O168   O     0.79510   0.10559   0.24999   0.00000  Uiso   1.00
O169   O     0.87154   0.10558   0.24999   0.00000  Uiso   1.00
O170   O     0.81409   0.16668   0.17319   0.00000  Uiso   1.00
O171   O     0.89053   0.16667   0.17319   0.00000  Uiso   1.00
O172   O     0.78832   0.04476   0.18895   0.00000  Uiso   1.00
Zn173  Zn    0.78229   0.16667   0.25000   0.00000  Uiso   1.00
Zn174  Zn    0.88438   0.16666   0.25000   0.00000  Uiso   1.00
C175   C     0.16635   0.57984   0.24976   0.00000  Uiso   1.00
C176   C     0.12196   0.49892   0.41180   0.00000  Uiso   1.00
C177   C     0.19179   0.64359   0.27673   0.00000  Uiso   1.00
C178   C     0.13969   0.49896   0.35233   0.00000  Uiso   1.00
C179   C     0.19329   0.35276   0.27624   0.00000  Uiso   1.00
C180   C     0.16838   0.37550   0.24811   0.00000  Uiso   1.00
C181   C     0.14321   0.35532   0.21929   0.00000  Uiso   1.00
C182   C     0.14169   0.64558   0.22101   0.00000  Uiso   1.00
C183   C     0.16593   0.62374   0.24966   0.00000  Uiso   1.00
C184   C     0.31812   0.46796   0.22715   0.00000  Uiso   1.00
C185   C     0.03240   0.46833   0.22693   0.00000  Uiso   1.00
C186   C     0.14376   0.49798   0.49264   0.00000  Uiso   1.00
C187   C     0.01576   0.53177   0.27337   0.00000  Uiso   1.00
C188   C     0.30125   0.53180   0.27328   0.00000  Uiso   1.00
C189   C     0.16722   0.41992   0.24961   0.00000  Uiso   1.00
C190   C     0.19376   0.50017   0.14768   0.00000  Uiso   1.00
C191   C     0.25759   0.45818   0.00868   0.00000  Uiso   1.00
C192   C     0.21122   0.49694   0.08855   0.00000  Uiso   1.00
C193   C     0.07828   0.51935   0.44052   0.00000  Uiso   1.00
C194   C     0.06576   0.52684   0.49572   0.00000  Uiso   1.00
C195   C     0.09806   0.51630   0.02175   0.00000  Uiso   1.00
C196   C     0.15231   0.48442   0.43938   0.00000  Uiso   1.00
C197   C     0.18087   0.49163   0.01466   0.00000  Uiso   1.00
C198   C     0.22159   0.46567   0.48665   0.00000  Uiso   1.00
C199   C     0.22567   0.44772   0.43709   0.00000  Uiso   1.00
C200   C     0.19116   0.45689   0.41439   0.00000  Uiso   1.00
C201   C     0.18017   0.51161   0.06222   0.00000  Uiso   1.00
C202   C     0.25192   0.47235   0.05996   0.00000  Uiso   1.00
Cl203  Cl    0.29660   0.45728   0.08605   0.00000  Uiso   1.00
Cl204  Cl    0.22570   0.37494   0.31310   0.00000  Uiso   1.00
Cl205  Cl    0.30285   0.42446   0.19790   0.00000  Uiso   1.00
Cl206  Cl    0.27458   0.41476   0.40050   0.00000  Uiso   1.00
Cl207  Cl    0.01102   0.55257   0.03151   0.00000  Uiso   1.00
H208   H     0.12281   0.62910   0.19912   0.00000  Uiso   1.00
H209   H     0.10574   0.35890   0.17162   0.00000  Uiso   1.00
H210   H     0.16249   0.56195   0.10633   0.00000  Uiso   1.00
H211   H     0.05723   0.44305   0.20838   0.00000  Uiso   1.00
H212   H     0.02723   0.55720   0.29217   0.00000  Uiso   1.00
H213   H     0.27673   0.55723   0.29205   0.00000  Uiso   1.00
H214   H     0.28938   0.43947   0.48758   0.00000  Uiso   1.00
H215   H     0.05463   0.53055   0.41986   0.00000  Uiso   1.00
H216   H     0.08595   0.52152   0.06488   0.00000  Uiso   1.00
H217   H     0.19484   0.44196   0.37680   0.00000  Uiso   1.00
H218   H     0.21043   0.62594   0.29890   0.00000  Uiso   1.00
N219   N     0.04760   0.50001   0.25001   0.00000  Uiso   1.00
N220   N     0.28573   0.49998   0.25000   0.00000  Uiso   1.00
O221   O     0.12846   0.56108   0.25000   0.00000  Uiso   1.00
O222   O     0.15095   0.54642   0.08116   0.00000  Uiso   1.00
O223   O     0.20490   0.56107   0.25000   0.00000  Uiso   1.00
O224   O     0.10947   0.50000   0.32681   0.00000  Uiso   1.00
O225   O     0.18591   0.49999   0.32681   0.00000  Uiso   1.00
O226   O     0.12843   0.43893   0.24999   0.00000  Uiso   1.00
O227   O     0.20488   0.43892   0.24999   0.00000  Uiso   1.00
O228   O     0.14742   0.50001   0.17319   0.00000  Uiso   1.00
O229   O     0.22387   0.50000   0.17319   0.00000  Uiso   1.00
O230   O     0.12165   0.37809   0.18895   0.00000  Uiso   1.00
Zn231  Zn    0.11562   0.50001   0.25000   0.00000  Uiso   1.00
Zn232  Zn    0.21771   0.49999   0.25000   0.00000  Uiso   1.00
C233   C     0.49968   0.57984   0.24976   0.00000  Uiso   1.00
C234   C     0.45530   0.49892   0.41180   0.00000  Uiso   1.00
C235   C     0.52513   0.64359   0.27673   0.00000  Uiso   1.00
C236   C     0.47302   0.49896   0.35233   0.00000  Uiso   1.00
C237   C     0.52662   0.35276   0.27624   0.00000  Uiso   1.00
C238   C     0.50171   0.37550   0.24811   0.00000  Uiso   1.00
C239   C     0.47655   0.35532   0.21929   0.00000  Uiso   1.00
C240   C     0.47502   0.64558   0.22101   0.00000  Uiso   1.00
C241   C     0.49927   0.62374   0.24966   0.00000  Uiso   1.00
C242   C     0.65145   0.46796   0.22715   0.00000  Uiso   1.00
C243   C     0.36574   0.46833   0.22693   0.00000  Uiso   1.00
C244   C     0.47710   0.49798   0.49264   0.00000  Uiso   1.00
C245   C     0.34909   0.53177   0.27337   0.00000  Uiso   1.00
C246   C     0.63458   0.53180   0.27328   0.00000  Uiso   1.00
C247   C     0.50055   0.41992   0.24961   0.00000  Uiso   1.00
C248   C     0.52710   0.50017   0.14768   0.00000  Uiso   1.00
C249   C     0.59093   0.45818   0.00868   0.00000  Uiso   1.00
C250   C     0.54455   0.49694   0.08855   0.00000  Uiso   1.00
C251   C     0.41162   0.51935   0.44052   0.00000  Uiso   1.00
C252   C     0.39909   0.52684   0.49572   0.00000  Uiso   1.00
C253   C     0.43139   0.51630   0.02175   0.00000  Uiso   1.00
C254   C     0.48564   0.48442   0.43938   0.00000  Uiso   1.00
C255   C     0.51421   0.49163   0.01466   0.00000  Uiso   1.00
C256   C     0.55492   0.46567   0.48665   0.00000  Uiso   1.00
C257   C     0.55901   0.44772   0.43709   0.00000  Uiso   1.00
C258   C     0.52449   0.45689   0.41439   0.00000  Uiso   1.00
C259   C     0.51351   0.51161   0.06222   0.00000  Uiso   1.00
C260   C     0.58525   0.47235   0.05996   0.00000  Uiso   1.00
Cl261  Cl    0.62993   0.45728   0.08605   0.00000  Uiso   1.00
Cl262  Cl    0.55904   0.37494   0.31310   0.00000  Uiso   1.00
Cl263  Cl    0.63618   0.42446   0.19790   0.00000  Uiso   1.00
Cl264  Cl    0.60791   0.41476   0.40050   0.00000  Uiso   1.00
Cl265  Cl    0.34435   0.55257   0.03151   0.00000  Uiso   1.00
H266   H     0.45614   0.62910   0.19912   0.00000  Uiso   1.00
H267   H     0.43907   0.35890   0.17162   0.00000  Uiso   1.00
H268   H     0.49583   0.56195   0.10633   0.00000  Uiso   1.00
H269   H     0.39056   0.44305   0.20838   0.00000  Uiso   1.00
H270   H     0.36056   0.55720   0.29217   0.00000  Uiso   1.00
H271   H     0.61006   0.55723   0.29205   0.00000  Uiso   1.00
H272   H     0.62271   0.43947   0.48758   0.00000  Uiso   1.00
H273   H     0.38796   0.53055   0.41986   0.00000  Uiso   1.00
H274   H     0.41929   0.52152   0.06488   0.00000  Uiso   1.00
H275   H     0.52817   0.44196   0.37680   0.00000  Uiso   1.00
H276   H     0.54377   0.62594   0.29890   0.00000  Uiso   1.00
N277   N     0.38093   0.50001   0.25001   0.00000  Uiso   1.00
N278   N     0.61906   0.49998   0.25000   0.00000  Uiso   1.00
O279   O     0.46179   0.56108   0.25000   0.00000  Uiso   1.00
O280   O     0.48428   0.54642   0.08116   0.00000  Uiso   1.00
O281   O     0.53823   0.56107   0.25000   0.00000  Uiso   1.00
O282   O     0.44280   0.50000   0.32681   0.00000  Uiso   1.00
O283   O     0.51924   0.49999   0.32681   0.00000  Uiso   1.00
O284   O     0.46177   0.43893   0.24999   0.00000  Uiso   1.00
O285   O     0.53821   0.43892   0.24999   0.00000  Uiso   1.00
O286   O     0.48076   0.50001   0.17319   0.00000  Uiso   1.00
O287   O     0.55720   0.50000   0.17319   0.00000  Uiso   1.00
O288   O     0.45499   0.37809   0.18895   0.00000  Uiso   1.00
Zn289  Zn    0.44896   0.50001   0.25000   0.00000  Uiso   1.00
Zn290  Zn    0.55104   0.49999   0.25000   0.00000  Uiso   1.00
C291   C     0.83302   0.57984   0.24976   0.00000  Uiso   1.00
C292   C     0.78863   0.49892   0.41180   0.00000  Uiso   1.00
C293   C     0.85846   0.64359   0.27673   0.00000  Uiso   1.00
C294   C     0.80635   0.49896   0.35233   0.00000  Uiso   1.00
C295   C     0.85995   0.35276   0.27624   0.00000  Uiso   1.00
C296   C     0.83505   0.37550   0.24811   0.00000  Uiso   1.00
C297   C     0.80988   0.35532   0.21929   0.00000  Uiso   1.00
C298   C     0.80836   0.64558   0.22101   0.00000  Uiso   1.00
C299   C     0.83260   0.62374   0.24966   0.00000  Uiso   1.00
C300   C     0.98478   0.46796   0.22715   0.00000  Uiso   1.00
C301   C     0.69907   0.46833   0.22693   0.00000  Uiso   1.00
C302   C     0.81043   0.49798   0.49264   0.00000  Uiso   1.00
C303   C     0.68243   0.53177   0.27337   0.00000  Uiso   1.00
C304   C     0.96791   0.53180   0.27328   0.00000  Uiso   1.00
C305   C     0.83388   0.41992   0.24961   0.00000  Uiso   1.00
C306   C     0.86043   0.50017   0.14768   0.00000  Uiso   1.00
C307   C     0.92426   0.45818   0.00868   0.00000  Uiso   1.00
C308   C     0.87789   0.49694   0.08855   0.00000  Uiso   1.00
C309   C     0.74495   0.51935   0.44052   0.00000  Uiso   1.00
C310   C     0.73243   0.52684   0.49572   0.00000  Uiso   1.00
C311   C     0.76473   0.51630   0.02175   0.00000  Uiso   1.00
C312   C     0.81897   0.48442   0.43938   0.00000  Uiso   1.00
C313   C     0.84754   0.49163   0.01466   0.00000  Uiso   1.00
C314   C     0.88825   0.46567   0.48665   0.00000  Uiso   1.00
C315   C     0.89234   0.44772   0.43709   0.00000  Uiso   1.00
C316   C     0.85783   0.45689   0.41439   0.00000  Uiso   1.00
C317   C     0.84684   0.51161   0.06222   0.00000  Uiso   1.00
C318   C     0.91859   0.47235   0.05996   0.00000  Uiso   1.00
Cl319  Cl    0.96327   0.45728   0.08605   0.00000  Uiso   1.00
Cl320  Cl    0.89237   0.37494   0.31310   0.00000  Uiso   1.00
Cl321  Cl    0.96952   0.42446   0.19790   0.00000  Uiso   1.00
Cl322  Cl    0.94124   0.41476   0.40050   0.00000  Uiso   1.00
Cl323  Cl    0.67768   0.55257   0.03151   0.00000  Uiso   1.00
H324   H     0.78948   0.62910   0.19912   0.00000  Uiso   1.00
H325   H     0.77240   0.35890   0.17162   0.00000  Uiso   1.00
H326   H     0.82916   0.56195   0.10633   0.00000  Uiso   1.00
H327   H     0.72390   0.44305   0.20838   0.00000  Uiso   1.00
H328   H     0.69390   0.55720   0.29217   0.00000  Uiso   1.00
H329   H     0.94339   0.55723   0.29205   0.00000  Uiso   1.00
H330   H     0.95605   0.43947   0.48758   0.00000  Uiso   1.00
H331   H     0.72129   0.53055   0.41986   0.00000  Uiso   1.00
H332   H     0.75262   0.52152   0.06488   0.00000  Uiso   1.00
H333   H     0.86150   0.44196   0.37680   0.00000  Uiso   1.00
H334   H     0.87710   0.62594   0.29890   0.00000  Uiso   1.00
N335   N     0.71426   0.50001   0.25001   0.00000  Uiso   1.00
N336   N     0.95239   0.49998   0.25000   0.00000  Uiso   1.00
O337   O     0.79512   0.56108   0.25000   0.00000  Uiso   1.00
O338   O     0.81761   0.54642   0.08116   0.00000  Uiso   1.00
O339   O     0.87157   0.56107   0.25000   0.00000  Uiso   1.00
O340   O     0.77613   0.50000   0.32681   0.00000  Uiso   1.00
O341   O     0.85258   0.49999   0.32681   0.00000  Uiso   1.00
O342   O     0.79510   0.43893   0.24999   0.00000  Uiso   1.00
O343   O     0.87154   0.43892   0.24999   0.00000  Uiso   1.00
O344   O     0.81409   0.50001   0.17319   0.00000  Uiso   1.00
O345   O     0.89053   0.50000   0.17319   0.00000  Uiso   1.00
O346   O     0.78832   0.37809   0.18895   0.00000  Uiso   1.00
Zn347  Zn    0.78229   0.50001   0.25000   0.00000  Uiso   1.00
Zn348  Zn    0.88438   0.49999   0.25000   0.00000  Uiso   1.00
C349   C     0.16635   0.91318   0.24976   0.00000  Uiso   1.00
C350   C     0.12196   0.83225   0.41180   0.00000  Uiso   1.00
C351   C     0.19179   0.97693   0.27673   0.00000  Uiso   1.00
C352   C     0.13969   0.83229   0.35233   0.00000  Uiso   1.00
C353   C     0.19329   0.68609   0.27624   0.00000  Uiso   1.00
C354   C     0.16838   0.70884   0.24811   0.00000  Uiso   1.00
C355   C     0.14321   0.68865   0.21929   0.00000  Uiso   1.00
C356   C     0.14169   0.97891   0.22101   0.00000  Uiso   1.00
C357   C     0.16593   0.95708   0.24966   0.00000  Uiso   1.00
C358   C     0.31812   0.80129   0.22715   0.00000  Uiso   1.00
C359   C     0.03240   0.80166   0.22693   0.00000  Uiso   1.00
C360   C     0.14376   0.83132   0.49264   0.00000  Uiso   1.00
C361   C     0.01576   0.86510   0.27337   0.00000  Uiso   1.00
C362   C     0.30125   0.86513   0.27328   0.00000  Uiso   1.00
C363   C     0.16722   0.75325   0.24961   0.00000  Uiso   1.00
C364   C     0.19376   0.83351   0.14768   0.00000  Uiso   1.00
C365   C     0.25759   0.79152   0.00868   0.00000  Uiso   1.00
C366   C     0.21122   0.83027   0.08855   0.00000  Uiso   1.00
C367   C     0.07828   0.85269   0.44052   0.00000  Uiso   1.00
C368   C     0.06576   0.86017   0.49572   0.00000  Uiso   1.00
C369   C     0.09806   0.84964   0.02175   0.00000  Uiso   1.00
C370   C     0.15231   0.81776   0.43938   0.00000  Uiso   1.00
C371   C     0.18087   0.82496   0.01466   0.00000  Uiso   1.00
C372   C     0.22159   0.79900   0.48665   0.00000  Uiso   1.00
C373   C     0.22567   0.78105   0.43709   0.00000  Uiso   1.00
C374   C     0.19116   0.79022   0.41439   0.00000  Uiso   1.00
C375   C     0.18017   0.84495   0.06222   0.00000  Uiso   1.00
C376   C     0.25192   0.80568   0.05996   0.00000  Uiso   1.00
Cl377  Cl    0.29660   0.79061   0.08605   0.00000  Uiso   1.00
Cl378  Cl    0.22570   0.70827   0.31310   0.00000  Uiso   1.00
Cl379  Cl    0.30285   0.75779   0.19790   0.00000  Uiso   1.00
Cl380  Cl    0.27458   0.74809   0.40050   0.00000  Uiso   1.00
Cl381  Cl    0.01102   0.88590   0.03151   0.00000  Uiso   1.00
H382   H     0.12281   0.96244   0.19912   0.00000  Uiso   1.00
H383   H     0.10574   0.69223   0.17162   0.00000  Uiso   1.00
H384   H     0.16249   0.89529   0.10633   0.00000  Uiso   1.00
H385   H     0.05723   0.77639   0.20838   0.00000  Uiso   1.00
H386   H     0.02723   0.89053   0.29217   0.00000  Uiso   1.00
H387   H     0.27673   0.89057   0.29205   0.00000  Uiso   1.00
H388   H     0.28938   0.77280   0.48758   0.00000  Uiso   1.00
H389   H     0.05463   0.86388   0.41986   0.00000  Uiso   1.00
H390   H     0.08595   0.85485   0.06488   0.00000  Uiso   1.00
H391   H     0.19484   0.77529   0.37680   0.00000  Uiso   1.00
H392   H     0.21043   0.95928   0.29890   0.00000  Uiso   1.00
N393   N     0.04760   0.83334   0.25001   0.00000  Uiso   1.00
N394   N     0.28573   0.83331   0.25000   0.00000  Uiso   1.00
O395   O     0.12846   0.89442   0.25000   0.00000  Uiso   1.00
O396   O     0.15095   0.87975   0.08116   0.00000  Uiso   1.00
O397   O     0.20490   0.89441   0.25000   0.00000  Uiso   1.00
O398   O     0.10947   0.83333   0.32681   0.00000  Uiso   1.00
O399   O     0.18591   0.83332   0.32681   0.00000  Uiso   1.00
O400   O     0.12843   0.77226   0.24999   0.00000  Uiso   1.00
O401   O     0.20488   0.77225   0.24999   0.00000  Uiso   1.00
O402   O     0.14742   0.83335   0.17319   0.00000  Uiso   1.00
O403   O     0.22387   0.83334   0.17319   0.00000  Uiso   1.00
O404   O     0.12165   0.71142   0.18895   0.00000  Uiso   1.00
Zn405  Zn    0.11562   0.83334   0.25000   0.00000  Uiso   1.00
Zn406  Zn    0.21771   0.83333   0.25000   0.00000  Uiso   1.00
C407   C     0.49968   0.91318   0.24976   0.00000  Uiso   1.00
C408   C     0.45530   0.83225   0.41180   0.00000  Uiso   1.00
C409   C     0.52513   0.97693   0.27673   0.00000  Uiso   1.00
C410   C     0.47302   0.83229   0.35233   0.00000  Uiso   1.00
C411   C     0.52662   0.68609   0.27624   0.00000  Uiso   1.00
C412   C     0.50171   0.70884   0.24811   0.00000  Uiso   1.00
C413   C     0.47655   0.68865   0.21929   0.00000  Uiso   1.00
C414   C     0.47502   0.97891   0.22101   0.00000  Uiso   1.00
C415   C     0.49927   0.95708   0.24966   0.00000  Uiso   1.00
C416   C     0.65145   0.80129   0.22715   0.00000  Uiso   1.00
C417   C     0.36574   0.80166   0.22693   0.00000  Uiso   1.00
C418   C     0.47710   0.83132   0.49264   0.00000  Uiso   1.00
C419   C     0.34909   0.86510   0.27337   0.00000  Uiso   1.00
C420   C     0.63458   0.86513   0.27328   0.00000  Uiso   1.00
C421   C     0.50055   0.75325   0.24961   0.00000  Uiso   1.00
C422   C     0.52710   0.83351   0.14768   0.00000  Uiso   1.00
C423   C     0.59093   0.79152   0.00868   0.00000  Uiso   1.00
C424   C     0.54455   0.83027   0.08855   0.00000  Uiso   1.00
C425   C     0.41162   0.85269   0.44052   0.00000  Uiso   1.00
C426   C     0.39909   0.86017   0.49572   0.00000  Uiso   1.00
C427   C     0.43139   0.84964   0.02175   0.00000  Uiso   1.00
C428   C     0.48564   0.81776   0.43938   0.00000  Uiso   1.00
C429   C     0.51421   0.82496   0.01466   0.00000  Uiso   1.00
C430   C     0.55492   0.79900   0.48665   0.00000  Uiso   1.00
C431   C     0.55901   0.78105   0.43709   0.00000  Uiso   1.00
C432   C     0.52449   0.79022   0.41439   0.00000  Uiso   1.00
C433   C     0.51351   0.84495   0.06222   0.00000  Uiso   1.00
C434   C     0.58525   0.80568   0.05996   0.00000  Uiso   1.00
Cl435  Cl    0.62993   0.79061   0.08605   0.00000  Uiso   1.00
Cl436  Cl    0.55904   0.70827   0.31310   0.00000  Uiso   1.00
Cl437  Cl    0.63618   0.75779   0.19790   0.00000  Uiso   1.00
Cl438  Cl    0.60791   0.74809   0.40050   0.00000  Uiso   1.00
Cl439  Cl    0.34435   0.88590   0.03151   0.00000  Uiso   1.00
H440   H     0.45614   0.96244   0.19912   0.00000  Uiso   1.00
H441   H     0.43907   0.69223   0.17162   0.00000  Uiso   1.00
H442   H     0.49583   0.89529   0.10633   0.00000  Uiso   1.00
H443   H     0.39056   0.77639   0.20838   0.00000  Uiso   1.00
H444   H     0.36056   0.89053   0.29217   0.00000  Uiso   1.00
H445   H     0.61006   0.89057   0.29205   0.00000  Uiso   1.00
H446   H     0.62271   0.77280   0.48758   0.00000  Uiso   1.00
H447   H     0.38796   0.86388   0.41986   0.00000  Uiso   1.00
H448   H     0.41929   0.85485   0.06488   0.00000  Uiso   1.00
H449   H     0.52817   0.77529   0.37680   0.00000  Uiso   1.00
H450   H     0.54377   0.95928   0.29890   0.00000  Uiso   1.00
N451   N     0.38093   0.83334   0.25001   0.00000  Uiso   1.00
N452   N     0.61906   0.83331   0.25000   0.00000  Uiso   1.00
O453   O     0.46179   0.89442   0.25000   0.00000  Uiso   1.00
O454   O     0.48428   0.87975   0.08116   0.00000  Uiso   1.00
O455   O     0.53823   0.89441   0.25000   0.00000  Uiso   1.00
O456   O     0.44280   0.83333   0.32681   0.00000  Uiso   1.00
O457   O     0.51924   0.83332   0.32681   0.00000  Uiso   1.00
O458   O     0.46177   0.77226   0.24999   0.00000  Uiso   1.00
O459   O     0.53821   0.77225   0.24999   0.00000  Uiso   1.00
O460   O     0.48076   0.83335   0.17319   0.00000  Uiso   1.00
O461   O     0.55720   0.83334   0.17319   0.00000  Uiso   1.00
O462   O     0.45499   0.71142   0.18895   0.00000  Uiso   1.00
Zn463  Zn    0.44896   0.83334   0.25000   0.00000  Uiso   1.00
Zn464  Zn    0.55104   0.83333   0.25000   0.00000  Uiso   1.00
C465   C     0.83302   0.91318   0.24976   0.00000  Uiso   1.00
C466   C     0.78863   0.83225   0.41180   0.00000  Uiso   1.00
C467   C     0.85846   0.97693   0.27673   0.00000  Uiso   1.00
C468   C     0.80635   0.83229   0.35233   0.00000  Uiso   1.00
C469   C     0.85995   0.68609   0.27624   0.00000  Uiso   1.00
C470   C     0.83505   0.70884   0.24811   0.00000  Uiso   1.00
C471   C     0.80988   0.68865   0.21929   0.00000  Uiso   1.00
C472   C     0.80836   0.97891   0.22101   0.00000  Uiso   1.00
C473   C     0.83260   0.95708   0.24966   0.00000  Uiso   1.00
C474   C     0.98478   0.80129   0.22715   0.00000  Uiso   1.00
C475   C     0.69907   0.80166   0.22693   0.00000  Uiso   1.00
C476   C     0.81043   0.83132   0.49264   0.00000  Uiso   1.00
C477   C     0.68243   0.86510   0.27337   0.00000  Uiso   1.00
C478   C     0.96791   0.86513   0.27328   0.00000  Uiso   1.00
C479   C     0.83388   0.75325   0.24961   0.00000  Uiso   1.00
C480   C     0.86043   0.83351   0.14768   0.00000  Uiso   1.00
C481   C     0.92426   0.79152   0.00868   0.00000  Uiso   1.00
C482   C     0.87789   0.83027   0.08855   0.00000  Uiso   1.00
C483   C     0.74495   0.85269   0.44052   0.00000  Uiso   1.00
C484   C     0.73243   0.86017   0.49572   0.00000  Uiso   1.00
C485   C     0.76473   0.84964   0.02175   0.00000  Uiso   1.00
C486   C     0.81897   0.81776   0.43938   0.00000  Uiso   1.00
C487   C     0.84754   0.82496   0.01466   0.00000  Uiso   1.00
C488   C     0.88825   0.79900   0.48665   0.00000  Uiso   1.00
C489   C     0.89234   0.78105   0.43709   0.00000  Uiso   1.00
C490   C     0.85783   0.79022   0.41439   0.00000  Uiso   1.00
C491   C     0.84684   0.84495   0.06222   0.00000  Uiso   1.00
C492   C     0.91859   0.80568   0.05996   0.00000  Uiso   1.00
Cl493  Cl    0.96327   0.79061   0.08605   0.00000  Uiso   1.00
Cl494  Cl    0.89237   0.70827   0.31310   0.00000  Uiso   1.00
Cl495  Cl    0.96952   0.75779   0.19790   0.00000  Uiso   1.00
Cl496  Cl    0.94124   0.74809   0.40050   0.00000  Uiso   1.00
Cl497  Cl    0.67768   0.88590   0.03151   0.00000  Uiso   1.00
H498   H     0.78948   0.96244   0.19912   0.00000  Uiso   1.00
H499   H     0.77240   0.69223   0.17162   0.00000  Uiso   1.00
H500   H     0.82916   0.89529   0.10633   0.00000  Uiso   1.00
H501   H     0.72390   0.77639   0.20838   0.00000  Uiso   1.00
H502   H     0.69390   0.89053   0.29217   0.00000  Uiso   1.00
H503   H     0.94339   0.89057   0.29205   0.00000  Uiso   1.00
H504   H     0.95605   0.77280   0.48758   0.00000  Uiso   1.00
H505   H     0.72129   0.86388   0.41986   0.00000  Uiso   1.00
H506   H     0.75262   0.85485   0.06488   0.00000  Uiso   1.00
H507   H     0.86150   0.77529   0.37680   0.00000  Uiso   1.00
H508   H     0.87710   0.95928   0.29890   0.00000  Uiso   1.00
N509   N     0.71426   0.83334   0.25001   0.00000  Uiso   1.00
N510   N     0.95239   0.83331   0.25000   0.00000  Uiso   1.00
O511   O     0.79512   0.89442   0.25000   0.00000  Uiso   1.00
O512   O     0.81761   0.87975   0.08116   0.00000  Uiso   1.00
O513   O     0.87157   0.89441   0.25000   0.00000  Uiso   1.00
O514   O     0.77613   0.83333   0.32681   0.00000  Uiso   1.00
O515   O     0.85258   0.83332   0.32681   0.00000  Uiso   1.00
O516   O     0.79510   0.77226   0.24999   0.00000  Uiso   1.00
O517   O     0.87154   0.77225   0.24999   0.00000  Uiso   1.00
O518   O     0.81409   0.83335   0.17319   0.00000  Uiso   1.00
O519   O     0.89053   0.83334   0.17319   0.00000  Uiso   1.00
O520   O     0.78832   0.71142   0.18895   0.00000  Uiso   1.00
Zn521  Zn    0.78229   0.83334   0.25000   0.00000  Uiso   1.00
Zn522  Zn    0.88438   0.83333   0.25000   0.00000  Uiso   1.00
C523   C     0.16635   0.24651   0.74976   0.00000  Uiso   1.00
C524   C     0.12196   0.16558   0.91180   0.00000  Uiso   1.00
C525   C     0.19179   0.31026   0.77673   0.00000  Uiso   1.00
C526   C     0.13969   0.16562   0.85233   0.00000  Uiso   1.00
C527   C     0.19329   0.01942   0.77624   0.00000  Uiso   1.00
C528   C     0.16838   0.04217   0.74811   0.00000  Uiso   1.00
C529   C     0.14321   0.02199   0.71929   0.00000  Uiso   1.00
C530   C     0.14169   0.31224   0.72101   0.00000  Uiso   1.00
C531   C     0.16593   0.29041   0.74966   0.00000  Uiso   1.00
C532   C     0.31812   0.13463   0.72715   0.00000  Uiso   1.00
C533   C     0.03240   0.13499   0.72693   0.00000  Uiso   1.00
C534   C     0.14376   0.16465   0.99264   0.00000  Uiso   1.00
C535   C     0.01576   0.19844   0.77337   0.00000  Uiso   1.00
C536   C     0.30125   0.19847   0.77328   0.00000  Uiso   1.00
C537   C     0.16722   0.08659   0.74961   0.00000  Uiso   1.00
C538   C     0.19376   0.16684   0.64768   0.00000  Uiso   1.00
C539   C     0.25759   0.12485   0.50868   0.00000  Uiso   1.00
C540   C     0.21122   0.16360   0.58855   0.00000  Uiso   1.00
C541   C     0.07828   0.18602   0.94052   0.00000  Uiso   1.00
C542   C     0.06576   0.19351   0.99572   0.00000  Uiso   1.00
C543   C     0.09806   0.18297   0.52175   0.00000  Uiso   1.00
C544   C     0.15231   0.15109   0.93938   0.00000  Uiso   1.00
C545   C     0.18087   0.15830   0.51466   0.00000  Uiso   1.00
C546   C     0.22159   0.13234   0.98665   0.00000  Uiso   1.00
C547   C     0.22567   0.11438   0.93709   0.00000  Uiso   1.00
C548   C     0.19116   0.12355   0.91439   0.00000  Uiso   1.00
C549   C     0.18017   0.17828   0.56222   0.00000  Uiso   1.00
C550   C     0.25192   0.13902   0.55996   0.00000  Uiso   1.00
Cl551  Cl    0.29660   0.12395   0.58605   0.00000  Uiso   1.00
Cl552  Cl    0.22570   0.04161   0.81310   0.00000  Uiso   1.00
Cl553  Cl    0.30285   0.09112   0.69790   0.00000  Uiso   1.00
Cl554  Cl    0.27458   0.08143   0.90050   0.00000  Uiso   1.00
Cl555  Cl    0.01102   0.21923   0.53151   0.00000  Uiso   1.00
H556   H     0.12281   0.29577   0.69912   0.00000  Uiso   1.00
H557   H     0.10574   0.02557   0.67162   0.00000  Uiso   1.00
H558   H     0.16249   0.22862   0.60633   0.00000  Uiso   1.00
H559   H     0.05723   0.10972   0.70838   0.00000  Uiso   1.00
H560   H     0.02723   0.22386   0.79217   0.00000  Uiso   1.00
H561   H     0.27673   0.22390   0.79205   0.00000  Uiso   1.00
H562   H     0.28938   0.10613   0.98758   0.00000  Uiso   1.00
H563   H     0.05463   0.19722   0.91986   0.00000  Uiso   1.00
H564   H     0.08595   0.18818   0.56488   0.00000  Uiso   1.00
H565   H     0.19484   0.10862   0.87680   0.00000  Uiso   1.00
H566   H     0.21043   0.29261   0.79890   0.00000  Uiso   1.00
N567   N     0.04760   0.16668   0.75001   0.00000  Uiso   1.00
N568   N     0.28573   0.16665   0.75000   0.00000  Uiso   1.00
O569   O     0.12846   0.22775   0.75000   0.00000  Uiso   1.00
O570   O     0.15095   0.21308   0.58116   0.00000  Uiso   1.00
O571   O     0.20490   0.22774   0.75000   0.00000  Uiso   1.00
O572   O     0.10947   0.16666   0.82681   0.00000  Uiso   1.00
O573   O     0.18591   0.16665   0.82681   0.00000  Uiso   1.00
O574   O     0.12843   0.10559   0.74999   0.00000  Uiso   1.00
O575   O     0.20488   0.10558   0.74999   0.00000  Uiso   1.00
O576   O     0.14742   0.16668   0.67319   0.00000  Uiso   1.00
O577   O     0.22387   0.16667   0.67319   0.00000  Uiso   1.00
O578   O     0.12165   0.04476   0.68895   0.00000  Uiso   1.00
Zn579  Zn    0.11562   0.16667   0.75000   0.00000  Uiso   1.00
Zn580  Zn    0.21771   0.16666   0.75000   0.00000  Uiso   1.00
C581   C     0.49968   0.24651   0.74976   0.00000  Uiso   1.00
C582   C     0.45530   0.16558   0.91180   0.00000  Uiso   1.00
C583   C     0.52513   0.31026   0.77673   0.00000  Uiso   1.00
C584   C     0.47302   0.16562   0.85233   0.00000  Uiso   1.00
C585   C     0.52662   0.01942   0.77624   0.00000  Uiso   1.00
C586   C     0.50171   0.04217   0.74811   0.00000  Uiso   1.00
C587   C     0.47655   0.02199   0.71929   0.00000  Uiso   1.00
C588   C     0.47502   0.31224   0.72101   0.00000  Uiso   1.00
C589   C     0.49927   0.29041   0.74966   0.00000  Uiso   1.00
C590   C     0.65145   0.13463   0.72715   0.00000  Uiso   1.00
C591   C     0.36574   0.13499   0.72693   0.00000  Uiso   1.00
C592   C     0.47710   0.16465   0.99264   0.00000  Uiso   1.00
C593   C     0.34909   0.19844   0.77337   0.00000  Uiso   1.00
C594   C     0.63458   0.19847   0.77328   0.00000  Uiso   1.00
C595   C     0.50055   0.08659   0.74961   0.00000  Uiso   1.00
C596   C     0.52710   0.16684   0.64768   0.00000  Uiso   1.00
C597   C     0.59093   0.12485   0.50868   0.00000  Uiso   1.00
C598   C     0.54455   0.16360   0.58855   0.00000  Uiso   1.00
C599   C     0.41162   0.18602   0.94052   0.00000  Uiso   1.00
C600   C     0.39909   0.19351   0.99572   0.00000  Uiso   1.00
C601   C     0.43139   0.18297   0.52175   0.00000  Uiso   1.00
C602   C     0.48564   0.15109   0.93938   0.00000  Uiso   1.00
C603   C     0.51421   0.15830   0.51466   0.00000  Uiso   1.00
C604   C     0.55492   0.13234   0.98665   0.00000  Uiso   1.00
C605   C     0.55901   0.11438   0.93709   0.00000  Uiso   1.00
C606   C     0.52449   0.12355   0.91439   0.00000  Uiso   1.00
C607   C     0.51351   0.17828   0.56222   0.00000  Uiso   1.00
C608   C     0.58525   0.13902   0.55996   0.00000  Uiso   1.00
Cl609  Cl    0.62993   0.12395   0.58605   0.00000  Uiso   1.00
Cl610  Cl    0.55904   0.04161   0.81310   0.00000  Uiso   1.00
Cl611  Cl    0.63618   0.09112   0.69790   0.00000  Uiso   1.00
Cl612  Cl    0.60791   0.08143   0.90050   0.00000  Uiso   1.00
Cl613  Cl    0.34435   0.21923   0.53151   0.00000  Uiso   1.00
H614   H     0.45614   0.29577   0.69912   0.00000  Uiso   1.00
H615   H     0.43907   0.02557   0.67162   0.00000  Uiso   1.00
H616   H     0.49583   0.22862   0.60633   0.00000  Uiso   1.00
H617   H     0.39056   0.10972   0.70838   0.00000  Uiso   1.00
H618   H     0.36056   0.22386   0.79217   0.00000  Uiso   1.00
H619   H     0.61006   0.22390   0.79205   0.00000  Uiso   1.00
H620   H     0.62271   0.10613   0.98758   0.00000  Uiso   1.00
H621   H     0.38796   0.19722   0.91986   0.00000  Uiso   1.00
H622   H     0.41929   0.18818   0.56488   0.00000  Uiso   1.00
H623   H     0.52817   0.10862   0.87680   0.00000  Uiso   1.00
H624   H     0.54377   0.29261   0.79890   0.00000  Uiso   1.00
N625   N     0.38093   0.16668   0.75001   0.00000  Uiso   1.00
N626   N     0.61906   0.16665   0.75000   0.00000  Uiso   1.00
O627   O     0.46179   0.22775   0.75000   0.00000  Uiso   1.00
O628   O     0.48428   0.21308   0.58116   0.00000  Uiso   1.00
O629   O     0.53823   0.22774   0.75000   0.00000  Uiso   1.00
O630   O     0.44280   0.16666   0.82681   0.00000  Uiso   1.00
O631   O     0.51924   0.16665   0.82681   0.00000  Uiso   1.00
O632   O     0.46177   0.10559   0.74999   0.00000  Uiso   1.00
O633   O     0.53821   0.10558   0.74999   0.00000  Uiso   1.00
O634   O     0.48076   0.16668   0.67319   0.00000  Uiso   1.00
O635   O     0.55720   0.16667   0.67319   0.00000  Uiso   1.00
O636   O     0.45499   0.04476   0.68895   0.00000  Uiso   1.00
Zn637  Zn    0.44896   0.16667   0.75000   0.00000  Uiso   1.00
Zn638  Zn    0.55104   0.16666   0.75000   0.00000  Uiso   1.00
C639   C     0.83302   0.24651   0.74976   0.00000  Uiso   1.00
C640   C     0.78863   0.16558   0.91180   0.00000  Uiso   1.00
C641   C     0.85846   0.31026   0.77673   0.00000  Uiso   1.00
C642   C     0.80635   0.16562   0.85233   0.00000  Uiso   1.00
C643   C     0.85995   0.01942   0.77624   0.00000  Uiso   1.00
C644   C     0.83505   0.04217   0.74811   0.00000  Uiso   1.00
C645   C     0.80988   0.02199   0.71929   0.00000  Uiso   1.00
C646   C     0.80836   0.31224   0.72101   0.00000  Uiso   1.00
C647   C     0.83260   0.29041   0.74966   0.00000  Uiso   1.00
C648   C     0.98478   0.13463   0.72715   0.00000  Uiso   1.00
C649   C     0.69907   0.13499   0.72693   0.00000  Uiso   1.00
C650   C     0.81043   0.16465   0.99264   0.00000  Uiso   1.00
C651   C     0.68243   0.19844   0.77337   0.00000  Uiso   1.00
C652   C     0.96791   0.19847   0.77328   0.00000  Uiso   1.00
C653   C     0.83388   0.08659   0.74961   0.00000  Uiso   1.00
C654   C     0.86043   0.16684   0.64768   0.00000  Uiso   1.00
C655   C     0.92426   0.12485   0.50868   0.00000  Uiso   1.00
C656   C     0.87789   0.16360   0.58855   0.00000  Uiso   1.00
C657   C     0.74495   0.18602   0.94052   0.00000  Uiso   1.00
C658   C     0.73243   0.19351   0.99572   0.00000  Uiso   1.00
C659   C     0.76473   0.18297   0.52175   0.00000  Uiso   1.00
C660   C     0.81897   0.15109   0.93938   0.00000  Uiso   1.00
C661   C     0.84754   0.15830   0.51466   0.00000  Uiso   1.00
C662   C     0.88825   0.13234   0.98665   0.00000  Uiso   1.00
C663   C     0.89234   0.11438   0.93709   0.00000  Uiso   1.00
C664   C     0.85783   0.12355   0.91439   0.00000  Uiso   1.00
C665   C     0.84684   0.17828   0.56222   0.00000  Uiso   1.00
C666   C     0.91859   0.13902   0.55996   0.00000  Uiso   1.00
Cl667  Cl    0.96327   0.12395   0.58605   0.00000  Uiso   1.00
Cl668  Cl    0.89237   0.04161   0.81310   0.00000  Uiso   1.00
Cl669  Cl    0.96952   0.09112   0.69790   0.00000  Uiso   1.00
Cl670  Cl    0.94124   0.08143   0.90050   0.00000  Uiso   1.00
Cl671  Cl    0.67768   0.21923   0.53151   0.00000  Uiso   1.00
H672   H     0.78948   0.29577   0.69912   0.00000  Uiso   1.00
H673   H     0.77240   0.02557   0.67162   0.00000  Uiso   1.00
H674   H     0.82916   0.22862   0.60633   0.00000  Uiso   1.00
H675   H     0.72390   0.10972   0.70838   0.00000  Uiso   1.00
H676   H     0.69390   0.22386   0.79217   0.00000  Uiso   1.00
H677   H     0.94339   0.22390   0.79205   0.00000  Uiso   1.00
H678   H     0.95605   0.10613   0.98758   0.00000  Uiso   1.00
H679   H     0.72129   0.19722   0.91986   0.00000  Uiso   1.00
H680   H     0.75262   0.18818   0.56488   0.00000  Uiso   1.00
H681   H     0.86150   0.10862   0.87680   0.00000  Uiso   1.00
H682   H     0.87710   0.29261   0.79890   0.00000  Uiso   1.00
N683   N     0.71426   0.16668   0.75001   0.00000  Uiso   1.00
N684   N     0.95239   0.16665   0.75000   0.00000  Uiso   1.00
O685   O     0.79512   0.22775   0.75000   0.00000  Uiso   1.00
O686   O     0.81761   0.21308   0.58116   0.00000  Uiso   1.00
O687   O     0.87157   0.22774   0.75000   0.00000  Uiso   1.00
O688   O     0.77613   0.16666   0.82681   0.00000  Uiso   1.00
O689   O     0.85258   0.16665   0.82681   0.00000  Uiso   1.00
O690   O     0.79510   0.10559   0.74999   0.00000  Uiso   1.00
O691   O     0.87154   0.10558   0.74999   0.00000  Uiso   1.00
O692   O     0.81409   0.16668   0.67319   0.00000  Uiso   1.00
O693   O     0.89053   0.16667   0.67319   0.00000  Uiso   1.00
O694   O     0.78832   0.04476   0.68895   0.00000  Uiso   1.00
Zn695  Zn    0.78229   0.16667   0.75000   0.00000  Uiso   1.00
Zn696  Zn    0.88438   0.16666   0.75000   0.00000  Uiso   1.00
C697   C     0.16635   0.57984   0.74976   0.00000  Uiso   1.00
C698   C     0.12196   0.49892   0.91180   0.00000  Uiso   1.00
C699   C     0.19179   0.64359   0.77673   0.00000  Uiso   1.00
C700   C     0.13969   0.49896   0.85233   0.00000  Uiso   1.00
C701   C     0.19329   0.35276   0.77624   0.00000  Uiso   1.00
C702   C     0.16838   0.37550   0.74811   0.00000  Uiso   1.00
C703   C     0.14321   0.35532   0.71929   0.00000  Uiso   1.00
C704   C     0.14169   0.64558   0.72101   0.00000  Uiso   1.00
C705   C     0.16593   0.62374   0.74966   0.00000  Uiso   1.00
C706   C     0.31812   0.46796   0.72715   0.00000  Uiso   1.00
C707   C     0.03240   0.46833   0.72693   0.00000  Uiso   1.00
C708   C     0.14376   0.49798   0.99264   0.00000  Uiso   1.00
C709   C     0.01576   0.53177   0.77337   0.00000  Uiso   1.00
C710   C     0.30125   0.53180   0.77328   0.00000  Uiso   1.00
C711   C     0.16722   0.41992   0.74961   0.00000  Uiso   1.00
C712   C     0.19376   0.50017   0.64768   0.00000  Uiso   1.00
C713   C     0.25759   0.45818   0.50868   0.00000  Uiso   1.00
C714   C     0.21122   0.49694   0.58855   0.00000  Uiso   1.00
C715   C     0.07828   0.51935   0.94052   0.00000  Uiso   1.00
C716   C     0.06576   0.52684   0.99572   0.00000  Uiso   1.00
C717   C     0.09806   0.51630   0.52175   0.00000  Uiso   1.00
C718   C     0.15231   0.48442   0.93938   0.00000  Uiso   1.00
C719   C     0.18087   0.49163   0.51466   0.00000  Uiso   1.00
C720   C     0.22159   0.46567   0.98665   0.00000  Uiso   1.00
C721   C     0.22567   0.44772   0.93709   0.00000  Uiso   1.00
C722   C     0.19116   0.45689   0.91439   0.00000  Uiso   1.00
C723   C     0.18017   0.51161   0.56222   0.00000  Uiso   1.00
C724   C     0.25192   0.47235   0.55996   0.00000  Uiso   1.00
Cl725  Cl    0.29660   0.45728   0.58605   0.00000  Uiso   1.00
Cl726  Cl    0.22570   0.37494   0.81310   0.00000  Uiso   1.00
Cl727  Cl    0.30285   0.42446   0.69790   0.00000  Uiso   1.00
Cl728  Cl    0.27458   0.41476   0.90050   0.00000  Uiso   1.00
Cl729  Cl    0.01102   0.55257   0.53151   0.00000  Uiso   1.00
H730   H     0.12281   0.62910   0.69912   0.00000  Uiso   1.00
H731   H     0.10574   0.35890   0.67162   0.00000  Uiso   1.00
H732   H     0.16249   0.56195   0.60633   0.00000  Uiso   1.00
H733   H     0.05723   0.44305   0.70838   0.00000  Uiso   1.00
H734   H     0.02723   0.55720   0.79217   0.00000  Uiso   1.00
H735   H     0.27673   0.55723   0.79205   0.00000  Uiso   1.00
H736   H     0.28938   0.43947   0.98758   0.00000  Uiso   1.00
H737   H     0.05463   0.53055   0.91986   0.00000  Uiso   1.00
H738   H     0.08595   0.52152   0.56488   0.00000  Uiso   1.00
H739   H     0.19484   0.44196   0.87680   0.00000  Uiso   1.00
H740   H     0.21043   0.62594   0.79890   0.00000  Uiso   1.00
N741   N     0.04760   0.50001   0.75001   0.00000  Uiso   1.00
N742   N     0.28573   0.49998   0.75000   0.00000  Uiso   1.00
O743   O     0.12846   0.56108   0.75000   0.00000  Uiso   1.00
O744   O     0.15095   0.54642   0.58116   0.00000  Uiso   1.00
O745   O     0.20490   0.56107   0.75000   0.00000  Uiso   1.00
O746   O     0.10947   0.50000   0.82681   0.00000  Uiso   1.00
O747   O     0.18591   0.49999   0.82681   0.00000  Uiso   1.00
O748   O     0.12843   0.43893   0.74999   0.00000  Uiso   1.00
O749   O     0.20488   0.43892   0.74999   0.00000  Uiso   1.00
O750   O     0.14742   0.50001   0.67319   0.00000  Uiso   1.00
O751   O     0.22387   0.50000   0.67319   0.00000  Uiso   1.00
O752   O     0.12165   0.37809   0.68895   0.00000  Uiso   1.00
Zn753  Zn    0.11562   0.50001   0.75000   0.00000  Uiso   1.00
Zn754  Zn    0.21771   0.49999   0.75000   0.00000  Uiso   1.00
C755   C     0.49968   0.57984   0.74976   0.00000  Uiso   1.00
C756   C     0.45530   0.49892   0.91180   0.00000  Uiso   1.00
C757   C     0.52513   0.64359   0.77673   0.00000  Uiso   1.00
C758   C     0.47302   0.49896   0.85233   0.00000  Uiso   1.00
C759   C     0.52662   0.35276   0.77624   0.00000  Uiso   1.00
C760   C     0.50171   0.37550   0.74811   0.00000  Uiso   1.00
C761   C     0.47655   0.35532   0.71929   0.00000  Uiso   1.00
C762   C     0.47502   0.64558   0.72101   0.00000  Uiso   1.00
C763   C     0.49927   0.62374   0.74966   0.00000  Uiso   1.00
C764   C     0.65145   0.46796   0.72715   0.00000  Uiso   1.00
C765   C     0.36574   0.46833   0.72693   0.00000  Uiso   1.00
C766   C     0.47710   0.49798   0.99264   0.00000  Uiso   1.00
C767   C     0.34909   0.53177   0.77337   0.00000  Uiso   1.00
C768   C     0.63458   0.53180   0.77328   0.00000  Uiso   1.00
C769   C     0.50055   0.41992   0.74961   0.00000  Uiso   1.00
C770   C     0.52710   0.50017   0.64768   0.00000  Uiso   1.00
C771   C     0.59093   0.45818   0.50868   0.00000  Uiso   1.00
C772   C     0.54455   0.49694   0.58855   0.00000  Uiso   1.00
C773   C     0.41162   0.51935   0.94052   0.00000  Uiso   1.00
C774   C     0.39909   0.52684   0.99572   0.00000  Uiso   1.00
C775   C     0.43139   0.51630   0.52175   0.00000  Uiso   1.00
C776   C     0.48564   0.48442   0.93938   0.00000  Uiso   1.00
C777   C     0.51421   0.49163   0.51466   0.00000  Uiso   1.00
C778   C     0.55492   0.46567   0.98665   0.00000  Uiso   1.00
C779   C     0.55901   0.44772   0.93709   0.00000  Uiso   1.00
C780   C     0.52449   0.45689   0.91439   0.00000  Uiso   1.00
C781   C     0.51351   0.51161   0.56222   0.00000  Uiso   1.00
C782   C     0.58525   0.47235   0.55996   0.00000  Uiso   1.00
Cl783  Cl    0.62993   0.45728   0.58605   0.00000  Uiso   1.00
Cl784  Cl    0.55904   0.37494   0.81310   0.00000  Uiso   1.00
Cl785  Cl    0.63618   0.42446   0.69790   0.00000  Uiso   1.00
Cl786  Cl    0.60791   0.41476   0.90050   0.00000  Uiso   1.00
Cl787  Cl    0.34435   0.55257   0.53151   0.00000  Uiso   1.00
H788   H     0.45614   0.62910   0.69912   0.00000  Uiso   1.00
H789   H     0.43907   0.35890   0.67162   0.00000  Uiso   1.00
H790   H     0.49583   0.56195   0.60633   0.00000  Uiso   1.00
H791   H     0.39056   0.44305   0.70838   0.00000  Uiso   1.00
H792   H     0.36056   0.55720   0.79217   0.00000  Uiso   1.00
H793   H     0.61006   0.55723   0.79205   0.00000  Uiso   1.00
H794   H     0.62271   0.43947   0.98758   0.00000  Uiso   1.00
H795   H     0.38796   0.53055   0.91986   0.00000  Uiso   1.00
H796   H     0.41929   0.52152   0.56488   0.00000  Uiso   1.00
H797   H     0.52817   0.44196   0.87680   0.00000  Uiso   1.00
H798   H     0.54377   0.62594   0.79890   0.00000  Uiso   1.00
N799   N     0.38093   0.50001   0.75001   0.00000  Uiso   1.00
N800   N     0.61906   0.49998   0.75000   0.00000  Uiso   1.00
O801   O     0.46179   0.56108   0.75000   0.00000  Uiso   1.00
O802   O     0.48428   0.54642   0.58116   0.00000  Uiso   1.00
O803   O     0.53823   0.56107   0.75000   0.00000  Uiso   1.00
O804   O     0.44280   0.50000   0.82681   0.00000  Uiso   1.00
O805   O     0.51924   0.49999   0.82681   0.00000  Uiso   1.00
O806   O     0.46177   0.43893   0.74999   0.00000  Uiso   1.00
O807   O     0.53821   0.43892   0.74999   0.00000  Uiso   1.00
O808   O     0.48076   0.50001   0.67319   0.00000  Uiso   1.00
O809   O     0.55720   0.50000   0.67319   0.00000  Uiso   1.00
O810   O     0.45499   0.37809   0.68895   0.00000  Uiso   1.00
Zn811  Zn    0.44896   0.50001   0.75000   0.00000  Uiso   1.00
Zn812  Zn    0.55104   0.49999   0.75000   0.00000  Uiso   1.00
C813   C     0.83302   0.57984   0.74976   0.00000  Uiso   1.00
C814   C     0.78863   0.49892   0.91180   0.00000  Uiso   1.00
C815   C     0.85846   0.64359   0.77673   0.00000  Uiso   1.00
C816   C     0.80635   0.49896   0.85233   0.00000  Uiso   1.00
C817   C     0.85995   0.35276   0.77624   0.00000  Uiso   1.00
C818   C     0.83505   0.37550   0.74811   0.00000  Uiso   1.00
C819   C     0.80988   0.35532   0.71929   0.00000  Uiso   1.00
C820   C     0.80836   0.64558   0.72101   0.00000  Uiso   1.00
C821   C     0.83260   0.62374   0.74966   0.00000  Uiso   1.00
C822   C     0.98478   0.46796   0.72715   0.00000  Uiso   1.00
C823   C     0.69907   0.46833   0.72693   0.00000  Uiso   1.00
C824   C     0.81043   0.49798   0.99264   0.00000  Uiso   1.00
C825   C     0.68243   0.53177   0.77337   0.00000  Uiso   1.00
C826   C     0.96791   0.53180   0.77328   0.00000  Uiso   1.00
C827   C     0.83388   0.41992   0.74961   0.00000  Uiso   1.00
C828   C     0.86043   0.50017   0.64768   0.00000  Uiso   1.00
C829   C     0.92426   0.45818   0.50868   0.00000  Uiso   1.00
C830   C     0.87789   0.49694   0.58855   0.00000  Uiso   1.00
C831   C     0.74495   0.51935   0.94052   0.00000  Uiso   1.00
C832   C     0.73243   0.52684   0.99572   0.00000  Uiso   1.00
C833   C     0.76473   0.51630   0.52175   0.00000  Uiso   1.00
C834   C     0.81897   0.48442   0.93938   0.00000  Uiso   1.00
C835   C     0.84754   0.49163   0.51466   0.00000  Uiso   1.00
C836   C     0.88825   0.46567   0.98665   0.00000  Uiso   1.00
C837   C     0.89234   0.44772   0.93709   0.00000  Uiso   1.00
C838   C     0.85783   0.45689   0.91439   0.00000  Uiso   1.00
C839   C     0.84684   0.51161   0.56222   0.00000  Uiso   1.00
C840   C     0.91859   0.47235   0.55996   0.00000  Uiso   1.00
Cl841  Cl    0.96327   0.45728   0.58605   0.00000  Uiso   1.00
Cl842  Cl    0.89237   0.37494   0.81310   0.00000  Uiso   1.00
Cl843  Cl    0.96952   0.42446   0.69790   0.00000  Uiso   1.00
Cl844  Cl    0.94124   0.41476   0.90050   0.00000  Uiso   1.00
Cl845  Cl    0.67768   0.55257   0.53151   0.00000  Uiso   1.00
H846   H     0.78948   0.62910   0.69912   0.00000  Uiso   1.00
H847   H     0.77240   0.35890   0.67162   0.00000  Uiso   1.00
H848   H     0.82916   0.56195   0.60633   0.00000  Uiso   1.00
H849   H     0.72390   0.44305   0.70838   0.00000  Uiso   1.00
H850   H     0.69390   0.55720   0.79217   0.00000  Uiso   1.00
H851   H     0.94339   0.55723   0.79205   0.00000  Uiso   1.00
H852   H     0.95605   0.43947   0.98758   0.00000  Uiso   1.00
H853   H     0.72129   0.53055   0.91986   0.00000  Uiso   1.00
H854   H     0.75262   0.52152   0.56488   0.00000  Uiso   1.00
H855   H     0.86150   0.44196   0.87680   0.00000  Uiso   1.00
H856   H     0.87710   0.62594   0.79890   0.00000  Uiso   1.00
N857   N     0.71426   0.50001   0.75001   0.00000  Uiso   1.00
N858   N     0.95239   0.49998   0.75000   0.00000  Uiso   1.00
O859   O     0.79512   0.56108   0.75000   0.00000  Uiso   1.00
O860   O     0.81761   0.54642   0.58116   0.00000  Uiso   1.00
O861   O     0.87157   0.56107   0.75000   0.00000  Uiso   1.00
O862   O     0.77613   0.50000   0.82681   0.00000  Uiso   1.00
O863   O     0.85258   0.49999   0.82681   0.00000  Uiso   1.00
O864   O     0.79510   0.43893   0.74999   0.00000  Uiso   1.00
O865   O     0.87154   0.43892   0.74999   0.00000  Uiso   1.00
O866   O     0.81409   0.50001   0.67319   0.00000  Uiso   1.00
O867   O     0.89053   0.50000   0.67319   0.00000  Uiso   1.00
O868   O     0.78832   0.37809   0.68895   0.00000  Uiso   1.00
Zn869  Zn    0.78229   0.50001   0.75000   0.00000  Uiso   1.00
Zn870  Zn    0.88438   0.49999   0.75000   0.00000  Uiso   1.00
C871   C     0.16635   0.91318   0.74976   0.00000  Uiso   1.00
C872   C     0.12196   0.83225   0.91180   0.00000  Uiso   1.00
C873   C     0.19179   0.97693   0.77673   0.00000  Uiso   1.00
C874   C     0.13969   0.83229   0.85233   0.00000  Uiso   1.00
C875   C     0.19329   0.68609   0.77624   0.00000  Uiso   1.00
C876   C     0.16838   0.70884   0.74811   0.00000  Uiso   1.00
C877   C     0.14321   0.68865   0.71929   0.00000  Uiso   1.00
C878   C     0.14169   0.97891   0.72101   0.00000  Uiso   1.00
C879   C     0.16593   0.95708   0.74966   0.00000  Uiso   1.00
C880   C     0.31812   0.80129   0.72715   0.00000  Uiso   1.00
C881   C     0.03240   0.80166   0.72693   0.00000  Uiso   1.00
C882   C     0.14376   0.83132   0.99264   0.00000  Uiso   1.00
C883   C     0.01576   0.86510   0.77337   0.00000  Uiso   1.00
C884   C     0.30125   0.86513   0.77328   0.00000  Uiso   1.00
C885   C     0.16722   0.75325   0.74961   0.00000  Uiso   1.00
C886   C     0.19376   0.83351   0.64768   0.00000  Uiso   1.00
C887   C     0.25759   0.79152   0.50868   0.00000  Uiso   1.00
C888   C     0.21122   0.83027   0.58855   0.00000  Uiso   1.00
C889   C     0.07828   0.85269   0.94052   0.00000  Uiso   1.00
C890   C     0.06576   0.86017   0.99572   0.00000  Uiso   1.00
C891   C     0.09806   0.84964   0.52175   0.00000  Uiso   1.00
C892   C     0.15231   0.81776   0.93938   0.00000  Uiso   1.00
C893   C     0.18087   0.82496   0.51466   0.00000  Uiso   1.00
C894   C     0.22159   0.79900   0.98665   0.00000  Uiso   1.00
C895   C     0.22567   0.78105   0.93709   0.00000  Uiso   1.00
C896   C     0.19116   0.79022   0.91439   0.00000  Uiso   1.00
C897   C     0.18017   0.84495   0.56222   0.00000  Uiso   1.00
C898   C     0.25192   0.80568   0.55996   0.00000  Uiso   1.00
Cl899  Cl    0.29660   0.79061   0.58605   0.00000  Uiso   1.00
Cl900  Cl    0.22570   0.70827   0.81310   0.00000  Uiso   1.00
Cl901  Cl    0.30285   0.75779   0.69790   0.00000  Uiso   1.00
Cl902  Cl    0.27458   0.74809   0.90050   0.00000  Uiso   1.00
Cl903  Cl    0.01102   0.88590   0.53151   0.00000  Uiso   1.00
H904   H     0.12281   0.96244   0.69912   0.00000  Uiso   1.00
H905   H     0.10574   0.69223   0.67162   0.00000  Uiso   1.00
H906   H     0.16249   0.89529   0.60633   0.00000  Uiso   1.00
H907   H     0.05723   0.77639   0.70838   0.00000  Uiso   1.00
H908   H     0.02723   0.89053   0.79217   0.00000  Uiso   1.00
H909   H     0.27673   0.89057   0.79205   0.00000  Uiso   1.00
H910   H     0.28938   0.77280   0.98758   0.00000  Uiso   1.00
H911   H     0.05463   0.86388   0.91986   0.00000  Uiso   1.00
H912   H     0.08595   0.85485   0.56488   0.00000  Uiso   1.00
H913   H     0.19484   0.77529   0.87680   0.00000  Uiso   1.00
H914   H     0.21043   0.95928   0.79890   0.00000  Uiso   1.00
N915   N     0.04760   0.83334   0.75001   0.00000  Uiso   1.00
N916   N     0.28573   0.83331   0.75000   0.00000  Uiso   1.00
O917   O     0.12846   0.89442   0.75000   0.00000  Uiso   1.00
O918   O     0.15095   0.87975   0.58116   0.00000  Uiso   1.00
O919   O     0.20490   0.89441   0.75000   0.00000  Uiso   1.00
O920   O     0.10947   0.83333   0.82681   0.00000  Uiso   1.00
O921   O     0.18591   0.83332   0.82681   0.00000  Uiso   1.00
O922   O     0.12843   0.77226   0.74999   0.00000  Uiso   1.00
O923   O     0.20488   0.77225   0.74999   0.00000  Uiso   1.00
O924   O     0.14742   0.83335   0.67319   0.00000  Uiso   1.00
O925   O     0.22387   0.83334   0.67319   0.00000  Uiso   1.00
O926   O     0.12165   0.71142   0.68895   0.00000  Uiso   1.00
Zn927  Zn    0.11562   0.83334   0.75000   0.00000  Uiso   1.00
Zn928  Zn    0.21771   0.83333   0.75000   0.00000  Uiso   1.00
C929   C     0.49968   0.91318   0.74976   0.00000  Uiso   1.00
C930   C     0.45530   0.83225   0.91180   0.00000  Uiso   1.00
C931   C     0.52513   0.97693   0.77673   0.00000  Uiso   1.00
C932   C     0.47302   0.83229   0.85233   0.00000  Uiso   1.00
C933   C     0.52662   0.68609   0.77624   0.00000  Uiso   1.00
C934   C     0.50171   0.70884   0.74811   0.00000  Uiso   1.00
C935   C     0.47655   0.68865   0.71929   0.00000  Uiso   1.00
C936   C     0.47502   0.97891   0.72101   0.00000  Uiso   1.00
C937   C     0.49927   0.95708   0.74966   0.00000  Uiso   1.00
C938   C     0.65145   0.80129   0.72715   0.00000  Uiso   1.00
C939   C     0.36574   0.80166   0.72693   0.00000  Uiso   1.00
C940   C     0.47710   0.83132   0.99264   0.00000  Uiso   1.00
C941   C     0.34909   0.86510   0.77337   0.00000  Uiso   1.00
C942   C     0.63458   0.86513   0.77328   0.00000  Uiso   1.00
C943   C     0.50055   0.75325   0.74961   0.00000  Uiso   1.00
C944   C     0.52710   0.83351   0.64768   0.00000  Uiso   1.00
C945   C     0.59093   0.79152   0.50868   0.00000  Uiso   1.00
C946   C     0.54455   0.83027   0.58855   0.00000  Uiso   1.00
C947   C     0.41162   0.85269   0.94052   0.00000  Uiso   1.00
C948   C     0.39909   0.86017   0.99572   0.00000  Uiso   1.00
C949   C     0.43139   0.84964   0.52175   0.00000  Uiso   1.00
C950   C     0.48564   0.81776   0.93938   0.00000  Uiso   1.00
C951   C     0.51421   0.82496   0.51466   0.00000  Uiso   1.00
C952   C     0.55492   0.79900   0.98665   0.00000  Uiso   1.00
C953   C     0.55901   0.78105   0.93709   0.00000  Uiso   1.00
C954   C     0.52449   0.79022   0.91439   0.00000  Uiso   1.00
C955   C     0.51351   0.84495   0.56222   0.00000  Uiso   1.00
C956   C     0.58525   0.80568   0.55996   0.00000  Uiso   1.00
Cl957  Cl    0.62993   0.79061   0.58605   0.00000  Uiso   1.00
Cl958  Cl    0.55904   0.70827   0.81310   0.00000  Uiso   1.00
Cl959  Cl    0.63618   0.75779   0.69790   0.00000  Uiso   1.00
Cl960  Cl    0.60791   0.74809   0.90050   0.00000  Uiso   1.00
Cl961  Cl    0.34435   0.88590   0.53151   0.00000  Uiso   1.00
H962   H     0.45614   0.96244   0.69912   0.00000  Uiso   1.00
H963   H     0.43907   0.69223   0.67162   0.00000  Uiso   1.00
H964   H     0.49583   0.89529   0.60633   0.00000  Uiso   1.00
H965   H     0.39056   0.77639   0.70838   0.00000  Uiso   1.00
H966   H     0.36056   0.89053   0.79217   0.00000  Uiso   1.00
H967   H     0.61006   0.89057   0.79205   0.00000  Uiso   1.00
H968   H     0.62271   0.77280   0.98758   0.00000  Uiso   1.00
H969   H     0.38796   0.86388   0.91986   0.00000  Uiso   1.00
H970   H     0.41929   0.85485   0.56488   0.00000  Uiso   1.00
H971   H     0.52817   0.77529   0.87680   0.00000  Uiso   1.00
H972   H     0.54377   0.95928   0.79890   0.00000  Uiso   1.00
N973   N     0.38093   0.83334   0.75001   0.00000  Uiso   1.00
N974   N     0.61906   0.83331   0.75000   0.00000  Uiso   1.00
O975   O     0.46179   0.89442   0.75000   0.00000  Uiso   1.00
O976   O     0.48428   0.87975   0.58116   0.00000  Uiso   1.00
O977   O     0.53823   0.89441   0.75000   0.00000  Uiso   1.00
O978   O     0.44280   0.83333   0.82681   0.00000  Uiso   1.00
O979   O     0.51924   0.83332   0.82681   0.00000  Uiso   1.00
O980   O     0.46177   0.77226   0.74999   0.00000  Uiso   1.00
O981   O     0.53821   0.77225   0.74999   0.00000  Uiso   1.00
O982   O     0.48076   0.83335   0.67319   0.00000  Uiso   1.00
O983   O     0.55720   0.83334   0.67319   0.00000  Uiso   1.00
O984   O     0.45499   0.71142   0.68895   0.00000  Uiso   1.00
Zn985  Zn    0.44896   0.83334   0.75000   0.00000  Uiso   1.00
Zn986  Zn    0.55104   0.83333   0.75000   0.00000  Uiso   1.00
C987   C     0.83302   0.91318   0.74976   0.00000  Uiso   1.00
C988   C     0.78863   0.83225   0.91180   0.00000  Uiso   1.00
C989   C     0.85846   0.97693   0.77673   0.00000  Uiso   1.00
C990   C     0.80635   0.83229   0.85233   0.00000  Uiso   1.00
C991   C     0.85995   0.68609   0.77624   0.00000  Uiso   1.00
C992   C     0.83505   0.70884   0.74811   0.00000  Uiso   1.00
C993   C     0.80988   0.68865   0.71929   0.00000  Uiso   1.00
C994   C     0.80836   0.97891   0.72101   0.00000  Uiso   1.00
C995   C     0.83260   0.95708   0.74966   0.00000  Uiso   1.00
C996   C     0.98478   0.80129   0.72715   0.00000  Uiso   1.00
C997   C     0.69907   0.80166   0.72693   0.00000  Uiso   1.00
C998   C     0.81043   0.83132   0.99264   0.00000  Uiso   1.00
C999   C     0.68243   0.86510   0.77337   0.00000  Uiso   1.00
C1000  C     0.96791   0.86513   0.77328   0.00000  Uiso   1.00
C1001  C     0.83388   0.75325   0.74961   0.00000  Uiso   1.00
C1002  C     0.86043   0.83351   0.64768   0.00000  Uiso   1.00
C1003  C     0.92426   0.79152   0.50868   0.00000  Uiso   1.00
C1004  C     0.87789   0.83027   0.58855   0.00000  Uiso   1.00
C1005  C     0.74495   0.85269   0.94052   0.00000  Uiso   1.00
C1006  C     0.73243   0.86017   0.99572   0.00000  Uiso   1.00
C1007  C     0.76473   0.84964   0.52175   0.00000  Uiso   1.00
C1008  C     0.81897   0.81776   0.93938   0.00000  Uiso   1.00
C1009  C     0.84754   0.82496   0.51466   0.00000  Uiso   1.00
C1010  C     0.88825   0.79900   0.98665   0.00000  Uiso   1.00
C1011  C     0.89234   0.78105   0.93709   0.00000  Uiso   1.00
C1012  C     0.85783   0.79022   0.91439   0.00000  Uiso   1.00
C1013  C     0.84684   0.84495   0.56222   0.00000  Uiso   1.00
C1014  C     0.91859   0.80568   0.55996   0.00000  Uiso   1.00
Cl1015 Cl    0.96327   0.79061   0.58605   0.00000  Uiso   1.00
Cl1016 Cl    0.89237   0.70827   0.81310   0.00000  Uiso   1.00
Cl1017 Cl    0.96952   0.75779   0.69790   0.00000  Uiso   1.00
Cl1018 Cl    0.94124   0.74809   0.90050   0.00000  Uiso   1.00
Cl1019 Cl    0.67768   0.88590   0.53151   0.00000  Uiso   1.00
H1020  H     0.78948   0.96244   0.69912   0.00000  Uiso   1.00
H1021  H     0.77240   0.69223   0.67162   0.00000  Uiso   1.00
H1022  H     0.82916   0.89529   0.60633   0.00000  Uiso   1.00
H1023  H     0.72390   0.77639   0.70838   0.00000  Uiso   1.00
H1024  H     0.69390   0.89053   0.79217   0.00000  Uiso   1.00
H1025  H     0.94339   0.89057   0.79205   0.00000  Uiso   1.00
H1026  H     0.95605   0.77280   0.98758   0.00000  Uiso   1.00
H1027  H     0.72129   0.86388   0.91986   0.00000  Uiso   1.00
H1028  H     0.75262   0.85485   0.56488   0.00000  Uiso   1.00
H1029  H     0.86150   0.77529   0.87680   0.00000  Uiso   1.00
H1030  H     0.87710   0.95928   0.79890   0.00000  Uiso   1.00
N1031  N     0.71426   0.83334   0.75001   0.00000  Uiso   1.00
N1032  N     0.95239   0.83331   0.75000   0.00000  Uiso   1.00
O1033  O     0.79512   0.89442   0.75000   0.00000  Uiso   1.00
O1034  O     0.81761   0.87975   0.58116   0.00000  Uiso   1.00
O1035  O     0.87157   0.89441   0.75000   0.00000  Uiso   1.00
O1036  O     0.77613   0.83333   0.82681   0.00000  Uiso   1.00
O1037  O     0.85258   0.83332   0.82681   0.00000  Uiso   1.00
O1038  O     0.79510   0.77226   0.74999   0.00000  Uiso   1.00
O1039  O     0.87154   0.77225   0.74999   0.00000  Uiso   1.00
O1040  O     0.81409   0.83335   0.67319   0.00000  Uiso   1.00
O1041  O     0.89053   0.83334   0.67319   0.00000  Uiso   1.00
O1042  O     0.78832   0.71142   0.68895   0.00000  Uiso   1.00
Zn1043 Zn    0.78229   0.83334   0.75000   0.00000  Uiso   1.00
Zn1044 Zn    0.88438   0.83333   0.75000   0.00000  Uiso   1.00
loop_
_geom_bond_atom_site_label_1
_geom_bond_atom_site_label_2
_geom_bond_distance
_geom_bond_site_symmetry_2
_ccdc_geom_bond_type
C1     C9      1.411   .     S
C1     O47     1.285   .     A
C1     O49     1.283   .     A
C2     C22     1.412   .     A
C2     C4      1.467   .     S
C2     C19     1.400   .     A
C3     C9      1.387   .     A
C3     H44     1.085   .     S
C3     C179    1.367   .     S
C4     O51     1.296   .     A
C4     O50     1.297   .     A
C5     C6      1.408   .     A
C5     Cl30    1.757   .     S
C5     C351    1.367   1_545 S
C6     C7      1.411   .     A
C6     C15     1.428   .     S
C7     O56     1.383   .     S
C7     C356    1.386   1_545 S
C8     H34     1.084   .     S
C8     C9      1.390   .     A
C8     C181    1.386   .     S
C10    N46     1.380   .     A
C10    Cl31    1.748   .     S
C10    C69     1.410   .     S
C11    N45     1.356   .     A
C11    H37     1.081   .     S
C11    C126    1.410   1_455 S
C12    C22     1.409   .     A
C12    C543    1.418   .     S
C12    C545    1.425   .     S
C13    N45     1.368   .     A
C13    H38     1.082   .     S
C13    C130    1.419   1_455 S
C14    N46     1.367   .     A
C14    H39     1.082   .     S
C14    C71     1.419   .     S
C15    O52     1.287   .     A
C15    O53     1.287   .     A
C16    O55     1.294   .     A
C16    O54     1.298   .     A
C16    C18     1.463   .     S
C17    C28     1.384   .     A
C17    C546    1.400   1_554 S
C17    H562    1.082   1_554 S
C18    C28     1.406   .     A
C18    C27     1.407   .     A
C19    C20     1.391   .     A
C19    H41     1.084   .     S
C20    C543    1.396   .     S
C20    Cl555   1.755   .     S
C21    H42     1.079   .     S
C21    C542    1.396   1_554 S
C21    C534    1.418   1_554 S
C22    C26     1.405   .     A
C23    C27     1.409   .     A
C23    C534    1.425   1_554 S
C23    C546    1.427   1_554 S
C24    C25     1.399   .     A
C24    C539    1.400   .     S
C24    C545    1.427   .     S
C25    Cl32    1.766   .     S
C25    C26     1.382   .     A
C26    H43     1.076   .     S
C27    O48     1.384   .     S
C28    Cl29    1.753   .     S
Cl33   C542    1.755   1_554 S
H35    O56     0.992   .     S
H36    O48     0.992   .     S
H40    C539    1.082   .     S
N45    Zn57    2.017   .     S
N46    Zn58    2.017   .     S
O47    Zn57    2.007   .     S
O49    Zn58    1.991   .     S
O50    Zn57    1.969   .     S
O51    Zn58    1.907   .     S
O52    Zn57    1.991   .     S
O53    Zn58    2.007   .     S
O54    Zn57    1.907   .     S
O55    Zn58    1.969   .     S
C59    C67     1.411   .     S
C59    O105    1.285   .     A
C59    O107    1.283   .     A
C60    C80     1.412   .     A
C60    C62     1.467   .     S
C60    C77     1.400   .     A
C61    C67     1.387   .     A
C61    H102    1.085   .     S
C61    C237    1.367   .     S
C62    O109    1.296   .     A
C62    O108    1.297   .     A
C63    C64     1.408   .     A
C63    Cl88    1.757   .     S
C63    C409    1.367   1_545 S
C64    C65     1.411   .     A
C64    C73     1.428   .     S
C65    O114    1.383   .     S
C65    C414    1.386   1_545 S
C66    H92     1.084   .     S
C66    C67     1.390   .     A
C66    C239    1.386   .     S
C68    N104    1.380   .     A
C68    Cl89    1.748   .     S
C68    C127    1.410   .     S
C69    N103    1.356   .     A
C69    H95     1.081   .     S
C70    C80     1.409   .     A
C70    C601    1.418   .     S
C70    C603    1.425   .     S
C71    N103    1.368   .     A
C71    H96     1.082   .     S
C72    N104    1.367   .     A
C72    H97     1.082   .     S
C72    C129    1.419   .     S
C73    O110    1.287   .     A
C73    O111    1.287   .     A
C74    O113    1.294   .     A
C74    O112    1.298   .     A
C74    C76     1.463   .     S
C75    C86     1.384   .     A
C75    C604    1.400   1_554 S
C75    H620    1.082   1_554 S
C76    C86     1.406   .     A
C76    C85     1.407   .     A
C77    C78     1.391   .     A
C77    H99     1.084   .     S
C78    C601    1.396   .     S
C78    Cl613   1.755   .     S
C79    H100    1.079   .     S
C79    C600    1.396   1_554 S
C79    C592    1.418   1_554 S
C80    C84     1.405   .     A
C81    C85     1.409   .     A
C81    C592    1.425   1_554 S
C81    C604    1.427   1_554 S
C82    C83     1.399   .     A
C82    C597    1.400   .     S
C82    C603    1.427   .     S
C83    Cl90    1.766   .     S
C83    C84     1.382   .     A
C84    H101    1.076   .     S
C85    O106    1.384   .     S
C86    Cl87    1.753   .     S
Cl91   C600    1.755   1_554 S
H93    O114    0.992   .     S
H94    O106    0.992   .     S
H98    C597    1.082   .     S
N103   Zn115   2.017   .     S
N104   Zn116   2.017   .     S
O105   Zn115   2.007   .     S
O107   Zn116   1.991   .     S
O108   Zn115   1.969   .     S
O109   Zn116   1.907   .     S
O110   Zn115   1.991   .     S
O111   Zn116   2.007   .     S
O112   Zn115   1.907   .     S
O113   Zn116   1.969   .     S
C117   C125    1.411   .     S
C117   O163    1.285   .     A
C117   O165    1.283   .     A
C118   C138    1.412   .     A
C118   C120    1.467   .     S
C118   C135    1.400   .     A
C119   C125    1.387   .     A
C119   H160    1.085   .     S
C119   C295    1.367   .     S
C120   O167    1.296   .     A
C120   O166    1.297   .     A
C121   C122    1.408   .     A
C121   Cl146   1.757   .     S
C121   C467    1.367   1_545 S
C122   C123    1.411   .     A
C122   C131    1.428   .     S
C123   O172    1.383   .     S
C123   C472    1.386   1_545 S
C124   H150    1.084   .     S
C124   C125    1.390   .     A
C124   C297    1.386   .     S
C126   N162    1.380   .     A
C126   Cl147   1.748   .     S
C126   C11     1.410   1_655 S
C127   N161    1.356   .     A
C127   H153    1.081   .     S
C128   C138    1.409   .     A
C128   C659    1.418   .     S
C128   C661    1.425   .     S
C129   N161    1.368   .     A
C129   H154    1.082   .     S
C130   N162    1.367   .     A
C130   H155    1.082   .     S
C130   C13     1.419   1_655 S
C131   O168    1.287   .     A
C131   O169    1.287   .     A
C132   O171    1.294   .     A
C132   O170    1.298   .     A
C132   C134    1.463   .     S
C133   C144    1.384   .     A
C133   C662    1.400   1_554 S
C133   H678    1.082   1_554 S
C134   C144    1.406   .     A
C134   C143    1.407   .     A
C135   C136    1.391   .     A
C135   H157    1.084   .     S
C136   C659    1.396   .     S
C136   Cl671   1.755   .     S
C137   H158    1.079   .     S
C137   C658    1.396   1_554 S
C137   C650    1.418   1_554 S
C138   C142    1.405   .     A
C139   C143    1.409   .     A
C139   C650    1.425   1_554 S
C139   C662    1.427   1_554 S
C140   C141    1.399   .     A
C140   C655    1.400   .     S
C140   C661    1.427   .     S
C141   Cl148   1.766   .     S
C141   C142    1.382   .     A
C142   H159    1.076   .     S
C143   O164    1.384   .     S
C144   Cl145   1.753   .     S
Cl149  C658    1.755   1_554 S
H151   O172    0.992   .     S
H152   O164    0.992   .     S
H156   C655    1.082   .     S
N161   Zn173   2.017   .     S
N162   Zn174   2.017   .     S
O163   Zn173   2.007   .     S
O165   Zn174   1.991   .     S
O166   Zn173   1.969   .     S
O167   Zn174   1.907   .     S
O168   Zn173   1.991   .     S
O169   Zn174   2.007   .     S
O170   Zn173   1.907   .     S
O171   Zn174   1.969   .     S
C175   C183    1.411   .     S
C175   O221    1.285   .     A
C175   O223    1.283   .     A
C176   C196    1.412   .     A
C176   C178    1.467   .     S
C176   C193    1.400   .     A
C177   C183    1.387   .     A
C177   H218    1.085   .     S
C177   C353    1.367   .     S
C178   O225    1.296   .     A
C178   O224    1.297   .     A
C179   C180    1.408   .     A
C179   Cl204   1.757   .     S
C180   C181    1.411   .     A
C180   C189    1.428   .     S
C181   O230    1.383   .     S
C182   H208    1.084   .     S
C182   C183    1.390   .     A
C182   C355    1.386   .     S
C184   N220    1.380   .     A
C184   Cl205   1.748   .     S
C184   C243    1.410   .     S
C185   N219    1.356   .     A
C185   H211    1.081   .     S
C185   C300    1.410   1_455 S
C186   C196    1.409   .     A
C186   C717    1.418   .     S
C186   C719    1.425   .     S
C187   N219    1.368   .     A
C187   H212    1.082   .     S
C187   C304    1.419   1_455 S
C188   N220    1.367   .     A
C188   H213    1.082   .     S
C188   C245    1.419   .     S
C189   O226    1.287   .     A
C189   O227    1.287   .     A
C190   O229    1.294   .     A
C190   O228    1.298   .     A
C190   C192    1.463   .     S
C191   C202    1.384   .     A
C191   C720    1.400   1_554 S
C191   H736    1.082   1_554 S
C192   C202    1.406   .     A
C192   C201    1.407   .     A
C193   C194    1.391   .     A
C193   H215    1.084   .     S
C194   C717    1.396   .     S
C194   Cl729   1.755   .     S
C195   H216    1.079   .     S
C195   C716    1.396   1_554 S
C195   C708    1.418   1_554 S
C196   C200    1.405   .     A
C197   C201    1.409   .     A
C197   C708    1.425   1_554 S
C197   C720    1.427   1_554 S
C198   C199    1.399   .     A
C198   C713    1.400   .     S
C198   C719    1.427   .     S
C199   Cl206   1.766   .     S
C199   C200    1.382   .     A
C200   H217    1.076   .     S
C201   O222    1.384   .     S
C202   Cl203   1.753   .     S
Cl207  C716    1.755   1_554 S
H209   O230    0.992   .     S
H210   O222    0.992   .     S
H214   C713    1.082   .     S
N219   Zn231   2.017   .     S
N220   Zn232   2.017   .     S
O221   Zn231   2.007   .     S
O223   Zn232   1.991   .     S
O224   Zn231   1.969   .     S
O225   Zn232   1.907   .     S
O226   Zn231   1.991   .     S
O227   Zn232   2.007   .     S
O228   Zn231   1.907   .     S
O229   Zn232   1.969   .     S
C233   C241    1.411   .     S
C233   O279    1.285   .     A
C233   O281    1.283   .     A
C234   C254    1.412   .     A
C234   C236    1.467   .     S
C234   C251    1.400   .     A
C235   C241    1.387   .     A
C235   H276    1.085   .     S
C235   C411    1.367   .     S
C236   O283    1.296   .     A
C236   O282    1.297   .     A
C237   C238    1.408   .     A
C237   Cl262   1.757   .     S
C238   C239    1.411   .     A
C238   C247    1.428   .     S
C239   O288    1.383   .     S
C240   H266    1.084   .     S
C240   C241    1.390   .     A
C240   C413    1.386   .     S
C242   N278    1.380   .     A
C242   Cl263   1.748   .     S
C242   C301    1.410   .     S
C243   N277    1.356   .     A
C243   H269    1.081   .     S
C244   C254    1.409   .     A
C244   C775    1.418   .     S
C244   C777    1.425   .     S
C245   N277    1.368   .     A
C245   H270    1.082   .     S
C246   N278    1.367   .     A
C246   H271    1.082   .     S
C246   C303    1.419   .     S
C247   O284    1.287   .     A
C247   O285    1.287   .     A
C248   O287    1.294   .     A
C248   O286    1.298   .     A
C248   C250    1.463   .     S
C249   C260    1.384   .     A
C249   C778    1.400   1_554 S
C249   H794    1.082   1_554 S
C250   C260    1.406   .     A
C250   C259    1.407   .     A
C251   C252    1.391   .     A
C251   H273    1.084   .     S
C252   C775    1.396   .     S
C252   Cl787   1.755   .     S
C253   H274    1.079   .     S
C253   C774    1.396   1_554 S
C253   C766    1.418   1_554 S
C254   C258    1.405   .     A
C255   C259    1.409   .     A
C255   C766    1.425   1_554 S
C255   C778    1.427   1_554 S
C256   C257    1.399   .     A
C256   C771    1.400   .     S
C256   C777    1.427   .     S
C257   Cl264   1.766   .     S
C257   C258    1.382   .     A
C258   H275    1.076   .     S
C259   O280    1.384   .     S
C260   Cl261   1.753   .     S
Cl265  C774    1.755   1_554 S
H267   O288    0.992   .     S
H268   O280    0.992   .     S
H272   C771    1.082   .     S
N277   Zn289   2.017   .     S
N278   Zn290   2.017   .     S
O279   Zn289   2.007   .     S
O281   Zn290   1.991   .     S
O282   Zn289   1.969   .     S
O283   Zn290   1.907   .     S
O284   Zn289   1.991   .     S
O285   Zn290   2.007   .     S
O286   Zn289   1.907   .     S
O287   Zn290   1.969   .     S
C291   C299    1.411   .     S
C291   O337    1.285   .     A
C291   O339    1.283   .     A
C292   C312    1.412   .     A
C292   C294    1.467   .     S
C292   C309    1.400   .     A
C293   C299    1.387   .     A
C293   H334    1.085   .     S
C293   C469    1.367   .     S
C294   O341    1.296   .     A
C294   O340    1.297   .     A
C295   C296    1.408   .     A
C295   Cl320   1.757   .     S
C296   C297    1.411   .     A
C296   C305    1.428   .     S
C297   O346    1.383   .     S
C298   H324    1.084   .     S
C298   C299    1.390   .     A
C298   C471    1.386   .     S
C300   N336    1.380   .     A
C300   Cl321   1.748   .     S
C300   C185    1.410   1_655 S
C301   N335    1.356   .     A
C301   H327    1.081   .     S
C302   C312    1.409   .     A
C302   C833    1.418   .     S
C302   C835    1.425   .     S
C303   N335    1.368   .     A
C303   H328    1.082   .     S
C304   N336    1.367   .     A
C304   H329    1.082   .     S
C304   C187    1.419   1_655 S
C305   O342    1.287   .     A
C305   O343    1.287   .     A
C306   O345    1.294   .     A
C306   O344    1.298   .     A
C306   C308    1.463   .     S
C307   C318    1.384   .     A
C307   C836    1.400   1_554 S
C307   H852    1.082   1_554 S
C308   C318    1.406   .     A
C308   C317    1.407   .     A
C309   C310    1.391   .     A
C309   H331    1.084   .     S
C310   C833    1.396   .     S
C310   Cl845   1.755   .     S
C311   H332    1.079   .     S
C311   C832    1.396   1_554 S
C311   C824    1.418   1_554 S
C312   C316    1.405   .     A
C313   C317    1.409   .     A
C313   C824    1.425   1_554 S
C313   C836    1.427   1_554 S
C314   C315    1.399   .     A
C314   C829    1.400   .     S
C314   C835    1.427   .     S
C315   Cl322   1.766   .     S
C315   C316    1.382   .     A
C316   H333    1.076   .     S
C317   O338    1.384   .     S
C318   Cl319   1.753   .     S
Cl323  C832    1.755   1_554 S
H325   O346    0.992   .     S
H326   O338    0.992   .     S
H330   C829    1.082   .     S
N335   Zn347   2.017   .     S
N336   Zn348   2.017   .     S
O337   Zn347   2.007   .     S
O339   Zn348   1.991   .     S
O340   Zn347   1.969   .     S
O341   Zn348   1.907   .     S
O342   Zn347   1.991   .     S
O343   Zn348   2.007   .     S
O344   Zn347   1.907   .     S
O345   Zn348   1.969   .     S
C349   C357    1.411   .     S
C349   O395    1.285   .     A
C349   O397    1.283   .     A
C350   C370    1.412   .     A
C350   C352    1.467   .     S
C350   C367    1.400   .     A
C351   C357    1.387   .     A
C351   H392    1.085   .     S
C351   C5      1.367   1_565 S
C352   O399    1.296   .     A
C352   O398    1.297   .     A
C353   C354    1.408   .     A
C353   Cl378   1.757   .     S
C354   C355    1.411   .     A
C354   C363    1.428   .     S
C355   O404    1.383   .     S
C356   H382    1.084   .     S
C356   C357    1.390   .     A
C356   C7      1.386   1_565 S
C358   N394    1.380   .     A
C358   Cl379   1.748   .     S
C358   C417    1.410   .     S
C359   N393    1.356   .     A
C359   H385    1.081   .     S
C359   C474    1.410   1_455 S
C360   C370    1.409   .     A
C360   C891    1.418   .     S
C360   C893    1.425   .     S
C361   N393    1.368   .     A
C361   H386    1.082   .     S
C361   C478    1.419   1_455 S
C362   N394    1.367   .     A
C362   H387    1.082   .     S
C362   C419    1.419   .     S
C363   O400    1.287   .     A
C363   O401    1.287   .     A
C364   O403    1.294   .     A
C364   O402    1.298   .     A
C364   C366    1.463   .     S
C365   C376    1.384   .     A
C365   C894    1.400   1_554 S
C365   H910    1.082   1_554 S
C366   C376    1.406   .     A
C366   C375    1.407   .     A
C367   C368    1.391   .     A
C367   H389    1.084   .     S
C368   C891    1.396   .     S
C368   Cl903   1.755   .     S
C369   H390    1.079   .     S
C369   C890    1.396   1_554 S
C369   C882    1.418   1_554 S
C370   C374    1.405   .     A
C371   C375    1.409   .     A
C371   C882    1.425   1_554 S
C371   C894    1.427   1_554 S
C372   C373    1.399   .     A
C372   C887    1.400   .     S
C372   C893    1.427   .     S
C373   Cl380   1.766   .     S
C373   C374    1.382   .     A
C374   H391    1.076   .     S
C375   O396    1.384   .     S
C376   Cl377   1.753   .     S
Cl381  C890    1.755   1_554 S
H383   O404    0.992   .     S
H384   O396    0.992   .     S
H388   C887    1.082   .     S
N393   Zn405   2.017   .     S
N394   Zn406   2.017   .     S
O395   Zn405   2.007   .     S
O397   Zn406   1.991   .     S
O398   Zn405   1.969   .     S
O399   Zn406   1.907   .     S
O400   Zn405   1.991   .     S
O401   Zn406   2.007   .     S
O402   Zn405   1.907   .     S
O403   Zn406   1.969   .     S
C407   C415    1.411   .     S
C407   O453    1.285   .     A
C407   O455    1.283   .     A
C408   C428    1.412   .     A
C408   C410    1.467   .     S
C408   C425    1.400   .     A
C409   C415    1.387   .     A
C409   H450    1.085   .     S
C409   C63     1.367   1_565 S
C410   O457    1.296   .     A
C410   O456    1.297   .     A
C411   C412    1.408   .     A
C411   Cl436   1.757   .     S
C412   C413    1.411   .     A
C412   C421    1.428   .     S
C413   O462    1.383   .     S
C414   H440    1.084   .     S
C414   C415    1.390   .     A
C414   C65     1.386   1_565 S
C416   N452    1.380   .     A
C416   Cl437   1.748   .     S
C416   C475    1.410   .     S
C417   N451    1.356   .     A
C417   H443    1.081   .     S
C418   C428    1.409   .     A
C418   C949    1.418   .     S
C418   C951    1.425   .     S
C419   N451    1.368   .     A
C419   H444    1.082   .     S
C420   N452    1.367   .     A
C420   H445    1.082   .     S
C420   C477    1.419   .     S
C421   O458    1.287   .     A
C421   O459    1.287   .     A
C422   O461    1.294   .     A
C422   O460    1.298   .     A
C422   C424    1.463   .     S
C423   C434    1.384   .     A
C423   C952    1.400   1_554 S
C423   H968    1.082   1_554 S
C424   C434    1.406   .     A
C424   C433    1.407   .     A
C425   C426    1.391   .     A
C425   H447    1.084   .     S
C426   C949    1.396   .     S
C426   Cl961   1.755   .     S
C427   H448    1.079   .     S
C427   C948    1.396   1_554 S
C427   C940    1.418   1_554 S
C428   C432    1.405   .     A
C429   C433    1.409   .     A
C429   C940    1.425   1_554 S
C429   C952    1.427   1_554 S
C430   C431    1.399   .     A
C430   C945    1.400   .     S
C430   C951    1.427   .     S
C431   Cl438   1.766   .     S
C431   C432    1.382   .     A
C432   H449    1.076   .     S
C433   O454    1.384   .     S
C434   Cl435   1.753   .     S
Cl439  C948    1.755   1_554 S
H441   O462    0.992   .     S
H442   O454    0.992   .     S
H446   C945    1.082   .     S
N451   Zn463   2.017   .     S
N452   Zn464   2.017   .     S
O453   Zn463   2.007   .     S
O455   Zn464   1.991   .     S
O456   Zn463   1.969   .     S
O457   Zn464   1.907   .     S
O458   Zn463   1.991   .     S
O459   Zn464   2.007   .     S
O460   Zn463   1.907   .     S
O461   Zn464   1.969   .     S
C465   C473    1.411   .     S
C465   O511    1.285   .     A
C465   O513    1.283   .     A
C466   C486    1.412   .     A
C466   C468    1.467   .     S
C466   C483    1.400   .     A
C467   C473    1.387   .     A
C467   H508    1.085   .     S
C467   C121    1.367   1_565 S
C468   O515    1.296   .     A
C468   O514    1.297   .     A
C469   C470    1.408   .     A
C469   Cl494   1.757   .     S
C470   C471    1.411   .     A
C470   C479    1.428   .     S
C471   O520    1.383   .     S
C472   H498    1.084   .     S
C472   C473    1.390   .     A
C472   C123    1.386   1_565 S
C474   N510    1.380   .     A
C474   Cl495   1.748   .     S
C474   C359    1.410   1_655 S
C475   N509    1.356   .     A
C475   H501    1.081   .     S
C476   C486    1.409   .     A
C476   C1007   1.418   .     S
C476   C1009   1.425   .     S
C477   N509    1.368   .     A
C477   H502    1.082   .     S
C478   N510    1.367   .     A
C478   H503    1.082   .     S
C478   C361    1.419   1_655 S
C479   O516    1.287   .     A
C479   O517    1.287   .     A
C480   O519    1.294   .     A
C480   O518    1.298   .     A
C480   C482    1.463   .     S
C481   C492    1.384   .     A
C481   C1010   1.400   1_554 S
C481   H1026   1.082   1_554 S
C482   C492    1.406   .     A
C482   C491    1.407   .     A
C483   C484    1.391   .     A
C483   H505    1.084   .     S
C484   C1007   1.396   .     S
C484   Cl1019  1.755   .     S
C485   H506    1.079   .     S
C485   C1006   1.396   1_554 S
C485   C998    1.418   1_554 S
C486   C490    1.405   .     A
C487   C491    1.409   .     A
C487   C998    1.425   1_554 S
C487   C1010   1.427   1_554 S
C488   C489    1.399   .     A
C488   C1003   1.400   .     S
C488   C1009   1.427   .     S
C489   Cl496   1.766   .     S
C489   C490    1.382   .     A
C490   H507    1.076   .     S
C491   O512    1.384   .     S
C492   Cl493   1.753   .     S
Cl497  C1006   1.755   1_554 S
H499   O520    0.992   .     S
H500   O512    0.992   .     S
H504   C1003   1.082   .     S
N509   Zn521   2.017   .     S
N510   Zn522   2.017   .     S
O511   Zn521   2.007   .     S
O513   Zn522   1.991   .     S
O514   Zn521   1.969   .     S
O515   Zn522   1.907   .     S
O516   Zn521   1.991   .     S
O517   Zn522   2.007   .     S
O518   Zn521   1.907   .     S
O519   Zn522   1.969   .     S
C523   C531    1.411   .     S
C523   O569    1.285   .     A
C523   O571    1.283   .     A
C524   C544    1.412   .     A
C524   C526    1.467   .     S
C524   C541    1.400   .     A
C525   C531    1.387   .     A
C525   H566    1.085   .     S
C525   C701    1.367   .     S
C526   O573    1.296   .     A
C526   O572    1.297   .     A
C527   C528    1.408   .     A
C527   Cl552   1.757   .     S
C527   C873    1.367   1_545 S
C528   C529    1.411   .     A
C528   C537    1.428   .     S
C529   O578    1.383   .     S
C529   C878    1.386   1_545 S
C530   H556    1.084   .     S
C530   C531    1.390   .     A
C530   C703    1.386   .     S
C532   N568    1.380   .     A
C532   Cl553   1.748   .     S
C532   C591    1.410   .     S
C533   N567    1.356   .     A
C533   H559    1.081   .     S
C533   C648    1.410   1_455 S
C534   C544    1.409   .     A
C534   C21     1.418   1_556 S
C534   C23     1.425   1_556 S
C535   N567    1.368   .     A
C535   H560    1.082   .     S
C535   C652    1.419   1_455 S
C536   N568    1.367   .     A
C536   H561    1.082   .     S
C536   C593    1.419   .     S
C537   O574    1.287   .     A
C537   O575    1.287   .     A
C538   O577    1.294   .     A
C538   O576    1.298   .     A
C538   C540    1.463   .     S
C539   C550    1.384   .     A
C540   C550    1.406   .     A
C540   C549    1.407   .     A
C541   C542    1.391   .     A
C541   H563    1.084   .     S
C542   C21     1.396   1_556 S
C542   Cl33    1.755   1_556 S
C543   H564    1.079   .     S
C544   C548    1.405   .     A
C545   C549    1.409   .     A
C546   C547    1.399   .     A
C546   C17     1.400   1_556 S
C546   C23     1.427   1_556 S
C547   Cl554   1.766   .     S
C547   C548    1.382   .     A
C548   H565    1.076   .     S
C549   O570    1.384   .     S
C550   Cl551   1.753   .     S
H557   O578    0.992   .     S
H558   O570    0.992   .     S
H562   C17     1.082   1_556 S
N567   Zn579   2.017   .     S
N568   Zn580   2.017   .     S
O569   Zn579   2.007   .     S
O571   Zn580   1.991   .     S
O572   Zn579   1.969   .     S
O573   Zn580   1.907   .     S
O574   Zn579   1.991   .     S
O575   Zn580   2.007   .     S
O576   Zn579   1.907   .     S
O577   Zn580   1.969   .     S
C581   C589    1.411   .     S
C581   O627    1.285   .     A
C581   O629    1.283   .     A
C582   C602    1.412   .     A
C582   C584    1.467   .     S
C582   C599    1.400   .     A
C583   C589    1.387   .     A
C583   H624    1.085   .     S
C583   C759    1.367   .     S
C584   O631    1.296   .     A
C584   O630    1.297   .     A
C585   C586    1.408   .     A
C585   Cl610   1.757   .     S
C585   C931    1.367   1_545 S
C586   C587    1.411   .     A
C586   C595    1.428   .     S
C587   O636    1.383   .     S
C587   C936    1.386   1_545 S
C588   H614    1.084   .     S
C588   C589    1.390   .     A
C588   C761    1.386   .     S
C590   N626    1.380   .     A
C590   Cl611   1.748   .     S
C590   C649    1.410   .     S
C591   N625    1.356   .     A
C591   H617    1.081   .     S
C592   C602    1.409   .     A
C592   C79     1.418   1_556 S
C592   C81     1.425   1_556 S
C593   N625    1.368   .     A
C593   H618    1.082   .     S
C594   N626    1.367   .     A
C594   H619    1.082   .     S
C594   C651    1.419   .     S
C595   O632    1.287   .     A
C595   O633    1.287   .     A
C596   O635    1.294   .     A
C596   O634    1.298   .     A
C596   C598    1.463   .     S
C597   C608    1.384   .     A
C598   C608    1.406   .     A
C598   C607    1.407   .     A
C599   C600    1.391   .     A
C599   H621    1.084   .     S
C600   C79     1.396   1_556 S
C600   Cl91    1.755   1_556 S
C601   H622    1.079   .     S
C602   C606    1.405   .     A
C603   C607    1.409   .     A
C604   C605    1.399   .     A
C604   C75     1.400   1_556 S
C604   C81     1.427   1_556 S
C605   Cl612   1.766   .     S
C605   C606    1.382   .     A
C606   H623    1.076   .     S
C607   O628    1.384   .     S
C608   Cl609   1.753   .     S
H615   O636    0.992   .     S
H616   O628    0.992   .     S
H620   C75     1.082   1_556 S
N625   Zn637   2.017   .     S
N626   Zn638   2.017   .     S
O627   Zn637   2.007   .     S
O629   Zn638   1.991   .     S
O630   Zn637   1.969   .     S
O631   Zn638   1.907   .     S
O632   Zn637   1.991   .     S
O633   Zn638   2.007   .     S
O634   Zn637   1.907   .     S
O635   Zn638   1.969   .     S
C639   C647    1.411   .     S
C639   O685    1.285   .     A
C639   O687    1.283   .     A
C640   C660    1.412   .     A
C640   C642    1.467   .     S
C640   C657    1.400   .     A
C641   C647    1.387   .     A
C641   H682    1.085   .     S
C641   C817    1.367   .     S
C642   O689    1.296   .     A
C642   O688    1.297   .     A
C643   C644    1.408   .     A
C643   Cl668   1.757   .     S
C643   C989    1.367   1_545 S
C644   C645    1.411   .     A
C644   C653    1.428   .     S
C645   O694    1.383   .     S
C645   C994    1.386   1_545 S
C646   H672    1.084   .     S
C646   C647    1.390   .     A
C646   C819    1.386   .     S
C648   N684    1.380   .     A
C648   Cl669   1.748   .     S
C648   C533    1.410   1_655 S
C649   N683    1.356   .     A
C649   H675    1.081   .     S
C650   C660    1.409   .     A
C650   C137    1.418   1_556 S
C650   C139    1.425   1_556 S
C651   N683    1.368   .     A
C651   H676    1.082   .     S
C652   N684    1.367   .     A
C652   H677    1.082   .     S
C652   C535    1.419   1_655 S
C653   O690    1.287   .     A
C653   O691    1.287   .     A
C654   O693    1.294   .     A
C654   O692    1.298   .     A
C654   C656    1.463   .     S
C655   C666    1.384   .     A
C656   C666    1.406   .     A
C656   C665    1.407   .     A
C657   C658    1.391   .     A
C657   H679    1.084   .     S
C658   C137    1.396   1_556 S
C658   Cl149   1.755   1_556 S
C659   H680    1.079   .     S
C660   C664    1.405   .     A
C661   C665    1.409   .     A
C662   C663    1.399   .     A
C662   C133    1.400   1_556 S
C662   C139    1.427   1_556 S
C663   Cl670   1.766   .     S
C663   C664    1.382   .     A
C664   H681    1.076   .     S
C665   O686    1.384   .     S
C666   Cl667   1.753   .     S
H673   O694    0.992   .     S
H674   O686    0.992   .     S
H678   C133    1.082   1_556 S
N683   Zn695   2.017   .     S
N684   Zn696   2.017   .     S
O685   Zn695   2.007   .     S
O687   Zn696   1.991   .     S
O688   Zn695   1.969   .     S
O689   Zn696   1.907   .     S
O690   Zn695   1.991   .     S
O691   Zn696   2.007   .     S
O692   Zn695   1.907   .     S
O693   Zn696   1.969   .     S
C697   C705    1.411   .     S
C697   O743    1.285   .     A
C697   O745    1.283   .     A
C698   C718    1.412   .     A
C698   C700    1.467   .     S
C698   C715    1.400   .     A
C699   C705    1.387   .     A
C699   H740    1.085   .     S
C699   C875    1.367   .     S
C700   O747    1.296   .     A
C700   O746    1.297   .     A
C701   C702    1.408   .     A
C701   Cl726   1.757   .     S
C702   C703    1.411   .     A
C702   C711    1.428   .     S
C703   O752    1.383   .     S
C704   H730    1.084   .     S
C704   C705    1.390   .     A
C704   C877    1.386   .     S
C706   N742    1.380   .     A
C706   Cl727   1.748   .     S
C706   C765    1.410   .     S
C707   N741    1.356   .     A
C707   H733    1.081   .     S
C707   C822    1.410   1_455 S
C708   C718    1.409   .     A
C708   C195    1.418   1_556 S
C708   C197    1.425   1_556 S
C709   N741    1.368   .     A
C709   H734    1.082   .     S
C709   C826    1.419   1_455 S
C710   N742    1.367   .     A
C710   H735    1.082   .     S
C710   C767    1.419   .     S
C711   O748    1.287   .     A
C711   O749    1.287   .     A
C712   O751    1.294   .     A
C712   O750    1.298   .     A
C712   C714    1.463   .     S
C713   C724    1.384   .     A
C714   C724    1.406   .     A
C714   C723    1.407   .     A
C715   C716    1.391   .     A
C715   H737    1.084   .     S
C716   C195    1.396   1_556 S
C716   Cl207   1.755   1_556 S
C717   H738    1.079   .     S
C718   C722    1.405   .     A
C719   C723    1.409   .     A
C720   C721    1.399   .     A
C720   C191    1.400   1_556 S
C720   C197    1.427   1_556 S
C721   Cl728   1.766   .     S
C721   C722    1.382   .     A
C722   H739    1.076   .     S
C723   O744    1.384   .     S
C724   Cl725   1.753   .     S
H731   O752    0.992   .     S
H732   O744    0.992   .     S
H736   C191    1.082   1_556 S
N741   Zn753   2.017   .     S
N742   Zn754   2.017   .     S
O743   Zn753   2.007   .     S
O745   Zn754   1.991   .     S
O746   Zn753   1.969   .     S
O747   Zn754   1.907   .     S
O748   Zn753   1.991   .     S
O749   Zn754   2.007   .     S
O750   Zn753   1.907   .     S
O751   Zn754   1.969   .     S
C755   C763    1.411   .     S
C755   O801    1.285   .     A
C755   O803    1.283   .     A
C756   C776    1.412   .     A
C756   C758    1.467   .     S
C756   C773    1.400   .     A
C757   C763    1.387   .     A
C757   H798    1.085   .     S
C757   C933    1.367   .     S
C758   O805    1.296   .     A
C758   O804    1.297   .     A
C759   C760    1.408   .     A
C759   Cl784   1.757   .     S
C760   C761    1.411   .     A
C760   C769    1.428   .     S
C761   O810    1.383   .     S
C762   H788    1.084   .     S
C762   C763    1.390   .     A
C762   C935    1.386   .     S
C764   N800    1.380   .     A
C764   Cl785   1.748   .     S
C764   C823    1.410   .     S
C765   N799    1.356   .     A
C765   H791    1.081   .     S
C766   C776    1.409   .     A
C766   C253    1.418   1_556 S
C766   C255    1.425   1_556 S
C767   N799    1.368   .     A
C767   H792    1.082   .     S
C768   N800    1.367   .     A
C768   H793    1.082   .     S
C768   C825    1.419   .     S
C769   O806    1.287   .     A
C769   O807    1.287   .     A
C770   O809    1.294   .     A
C770   O808    1.298   .     A
C770   C772    1.463   .     S
C771   C782    1.384   .     A
C772   C782    1.406   .     A
C772   C781    1.407   .     A
C773   C774    1.391   .     A
C773   H795    1.084   .     S
C774   C253    1.396   1_556 S
C774   Cl265   1.755   1_556 S
C775   H796    1.079   .     S
C776   C780    1.405   .     A
C777   C781    1.409   .     A
C778   C779    1.399   .     A
C778   C249    1.400   1_556 S
C778   C255    1.427   1_556 S
C779   Cl786   1.766   .     S
C779   C780    1.382   .     A
C780   H797    1.076   .     S
C781   O802    1.384   .     S
C782   Cl783   1.753   .     S
H789   O810    0.992   .     S
H790   O802    0.992   .     S
H794   C249    1.082   1_556 S
N799   Zn811   2.017   .     S
N800   Zn812   2.017   .     S
O801   Zn811   2.007   .     S
O803   Zn812   1.991   .     S
O804   Zn811   1.969   .     S
O805   Zn812   1.907   .     S
O806   Zn811   1.991   .     S
O807   Zn812   2.007   .     S
O808   Zn811   1.907   .     S
O809   Zn812   1.969   .     S
C813   C821    1.411   .     S
C813   O859    1.285   .     A
C813   O861    1.283   .     A
C814   C834    1.412   .     A
C814   C816    1.467   .     S
C814   C831    1.400   .     A
C815   C821    1.387   .     A
C815   H856    1.085   .     S
C815   C991    1.367   .     S
C816   O863    1.296   .     A
C816   O862    1.297   .     A
C817   C818    1.408   .     A
C817   Cl842   1.757   .     S
C818   C819    1.411   .     A
C818   C827    1.428   .     S
C819   O868    1.383   .     S
C820   H846    1.084   .     S
C820   C821    1.390   .     A
C820   C993    1.386   .     S
C822   N858    1.380   .     A
C822   Cl843   1.748   .     S
C822   C707    1.410   1_655 S
C823   N857    1.356   .     A
C823   H849    1.081   .     S
C824   C834    1.409   .     A
C824   C311    1.418   1_556 S
C824   C313    1.425   1_556 S
C825   N857    1.368   .     A
C825   H850    1.082   .     S
C826   N858    1.367   .     A
C826   H851    1.082   .     S
C826   C709    1.419   1_655 S
C827   O864    1.287   .     A
C827   O865    1.287   .     A
C828   O867    1.294   .     A
C828   O866    1.298   .     A
C828   C830    1.463   .     S
C829   C840    1.384   .     A
C830   C840    1.406   .     A
C830   C839    1.407   .     A
C831   C832    1.391   .     A
C831   H853    1.084   .     S
C832   C311    1.396   1_556 S
C832   Cl323   1.755   1_556 S
C833   H854    1.079   .     S
C834   C838    1.405   .     A
C835   C839    1.409   .     A
C836   C837    1.399   .     A
C836   C307    1.400   1_556 S
C836   C313    1.427   1_556 S
C837   Cl844   1.766   .     S
C837   C838    1.382   .     A
C838   H855    1.076   .     S
C839   O860    1.384   .     S
C840   Cl841   1.753   .     S
H847   O868    0.992   .     S
H848   O860    0.992   .     S
H852   C307    1.082   1_556 S
N857   Zn869   2.017   .     S
N858   Zn870   2.017   .     S
O859   Zn869   2.007   .     S
O861   Zn870   1.991   .     S
O862   Zn869   1.969   .     S
O863   Zn870   1.907   .     S
O864   Zn869   1.991   .     S
O865   Zn870   2.007   .     S
O866   Zn869   1.907   .     S
O867   Zn870   1.969   .     S
C871   C879    1.411   .     S
C871   O917    1.285   .     A
C871   O919    1.283   .     A
C872   C892    1.412   .     A
C872   C874    1.467   .     S
C872   C889    1.400   .     A
C873   C879    1.387   .     A
C873   H914    1.085   .     S
C873   C527    1.367   1_565 S
C874   O921    1.296   .     A
C874   O920    1.297   .     A
C875   C876    1.408   .     A
C875   Cl900   1.757   .     S
C876   C877    1.411   .     A
C876   C885    1.428   .     S
C877   O926    1.383   .     S
C878   H904    1.084   .     S
C878   C879    1.390   .     A
C878   C529    1.386   1_565 S
C880   N916    1.380   .     A
C880   Cl901   1.748   .     S
C880   C939    1.410   .     S
C881   N915    1.356   .     A
C881   H907    1.081   .     S
C881   C996    1.410   1_455 S
C882   C892    1.409   .     A
C882   C369    1.418   1_556 S
C882   C371    1.425   1_556 S
C883   N915    1.368   .     A
C883   H908    1.082   .     S
C883   C1000   1.419   1_455 S
C884   N916    1.367   .     A
C884   H909    1.082   .     S
C884   C941    1.419   .     S
C885   O922    1.287   .     A
C885   O923    1.287   .     A
C886   O925    1.294   .     A
C886   O924    1.298   .     A
C886   C888    1.463   .     S
C887   C898    1.384   .     A
C888   C898    1.406   .     A
C888   C897    1.407   .     A
C889   C890    1.391   .     A
C889   H911    1.084   .     S
C890   C369    1.396   1_556 S
C890   Cl381   1.755   1_556 S
C891   H912    1.079   .     S
C892   C896    1.405   .     A
C893   C897    1.409   .     A
C894   C895    1.399   .     A
C894   C365    1.400   1_556 S
C894   C371    1.427   1_556 S
C895   Cl902   1.766   .     S
C895   C896    1.382   .     A
C896   H913    1.076   .     S
C897   O918    1.384   .     S
C898   Cl899   1.753   .     S
H905   O926    0.992   .     S
H906   O918    0.992   .     S
H910   C365    1.082   1_556 S
N915   Zn927   2.017   .     S
N916   Zn928   2.017   .     S
O917   Zn927   2.007   .     S
O919   Zn928   1.991   .     S
O920   Zn927   1.969   .     S
O921   Zn928   1.907   .     S
O922   Zn927   1.991   .     S
O923   Zn928   2.007   .     S
O924   Zn927   1.907   .     S
O925   Zn928   1.969   .     S
C929   C937    1.411   .     S
C929   O975    1.285   .     A
C929   O977    1.283   .     A
C930   C950    1.412   .     A
C930   C932    1.467   .     S
C930   C947    1.400   .     A
C931   C937    1.387   .     A
C931   H972    1.085   .     S
C931   C585    1.367   1_565 S
C932   O979    1.296   .     A
C932   O978    1.297   .     A
C933   C934    1.408   .     A
C933   Cl958   1.757   .     S
C934   C935    1.411   .     A
C934   C943    1.428   .     S
C935   O984    1.383   .     S
C936   H962    1.084   .     S
C936   C937    1.390   .     A
C936   C587    1.386   1_565 S
C938   N974    1.380   .     A
C938   Cl959   1.748   .     S
C938   C997    1.410   .     S
C939   N973    1.356   .     A
C939   H965    1.081   .     S
C940   C950    1.409   .     A
C940   C427    1.418   1_556 S
C940   C429    1.425   1_556 S
C941   N973    1.368   .     A
C941   H966    1.082   .     S
C942   N974    1.367   .     A
C942   H967    1.082   .     S
C942   C999    1.419   .     S
C943   O980    1.287   .     A
C943   O981    1.287   .     A
C944   O983    1.294   .     A
C944   O982    1.298   .     A
C944   C946    1.463   .     S
C945   C956    1.384   .     A
C946   C956    1.406   .     A
C946   C955    1.407   .     A
C947   C948    1.391   .     A
C947   H969    1.084   .     S
C948   C427    1.396   1_556 S
C948   Cl439   1.755   1_556 S
C949   H970    1.079   .     S
C950   C954    1.405   .     A
C951   C955    1.409   .     A
C952   C953    1.399   .     A
C952   C423    1.400   1_556 S
C952   C429    1.427   1_556 S
C953   Cl960   1.766   .     S
C953   C954    1.382   .     A
C954   H971    1.076   .     S
C955   O976    1.384   .     S
C956   Cl957   1.753   .     S
H963   O984    0.992   .     S
H964   O976    0.992   .     S
H968   C423    1.082   1_556 S
N973   Zn985   2.017   .     S
N974   Zn986   2.017   .     S
O975   Zn985   2.007   .     S
O977   Zn986   1.991   .     S
O978   Zn985   1.969   .     S
O979   Zn986   1.907   .     S
O980   Zn985   1.991   .     S
O981   Zn986   2.007   .     S
O982   Zn985   1.907   .     S
O983   Zn986   1.969   .     S
C987   C995    1.411   .     S
C987   O1033   1.285   .     A
C987   O1035   1.283   .     A
C988   C1008   1.412   .     A
C988   C990    1.467   .     S
C988   C1005   1.400   .     A
C989   C995    1.387   .     A
C989   H1030   1.085   .     S
C989   C643    1.367   1_565 S
C990   O1037   1.296   .     A
C990   O1036   1.297   .     A
C991   C992    1.408   .     A
C991   Cl1016  1.757   .     S
C992   C993    1.411   .     A
C992   C1001   1.428   .     S
C993   O1042   1.383   .     S
C994   H1020   1.084   .     S
C994   C995    1.390   .     A
C994   C645    1.386   1_565 S
C996   N1032   1.380   .     A
C996   Cl1017  1.748   .     S
C996   C881    1.410   1_655 S
C997   N1031   1.356   .     A
C997   H1023   1.081   .     S
C998   C1008   1.409   .     A
C998   C485    1.418   1_556 S
C998   C487    1.425   1_556 S
C999   N1031   1.368   .     A
C999   H1024   1.082   .     S
C1000  N1032   1.367   .     A
C1000  H1025   1.082   .     S
C1000  C883    1.419   1_655 S
C1001  O1038   1.287   .     A
C1001  O1039   1.287   .     A
C1002  O1041   1.294   .     A
C1002  O1040   1.298   .     A
C1002  C1004   1.463   .     S
C1003  C1014   1.384   .     A
C1004  C1014   1.406   .     A
C1004  C1013   1.407   .     A
C1005  C1006   1.391   .     A
C1005  H1027   1.084   .     S
C1006  C485    1.396   1_556 S
C1006  Cl497   1.755   1_556 S
C1007  H1028   1.079   .     S
C1008  C1012   1.405   .     A
C1009  C1013   1.409   .     A
C1010  C1011   1.399   .     A
C1010  C481    1.400   1_556 S
C1010  C487    1.427   1_556 S
C1011  Cl1018  1.766   .     S
C1011  C1012   1.382   .     A
C1012  H1029   1.076   .     S
C1013  O1034   1.384   .     S
C1014  Cl1015  1.753   .     S
H1021  O1042   0.992   .     S
H1022  O1034   0.992   .     S
H1026  C481    1.082   1_556 S
N1031  Zn1043  2.017   .     S
N1032  Zn1044  2.017   .     S
O1033  Zn1043  2.007   .     S
O1035  Zn1044  1.991   .     S
O1036  Zn1043  1.969   .     S
O1037  Zn1044  1.907   .     S
O1038  Zn1043  1.991   .     S
O1039  Zn1044  2.007   .     S
O1040  Zn1043  1.907   .     S
O1041  Zn1044  1.969   .     S
