data_str_m3_o10_o17_pcu_sym.94
_audit_creation_date              2020-01-03
_audit_creation_method            'Materials Studio'
_symmetry_space_group_name_H-M    'P1'
_symmetry_Int_Tables_number       1
_symmetry_cell_setting            triclinic
loop_
_symmetry_equiv_pos_as_xyz
  x,y,z
_cell_length_a                    23.3255
_cell_length_b                    25.6885
_cell_length_c                    29.7674
_cell_angle_alpha                 91.0399
_cell_angle_beta                  86.0748
_cell_angle_gamma                 93.6831
loop_
_atom_site_label
_atom_site_type_symbol
_atom_site_fract_x
_atom_site_fract_y
_atom_site_fract_z
_atom_site_U_iso_or_equiv
_atom_site_adp_type
_atom_site_occupancy
C1     C     0.18192   0.26489   0.24879   0.00000  Uiso   1.00
C2     C     0.18314   0.21571   0.40696   0.00000  Uiso   1.00
C3     C     0.16358   0.16475   0.11622   0.00000  Uiso   1.00
C4     C     0.16975   0.16858   0.38378   0.00000  Uiso   1.00
C5     C     0.17722   0.21150   0.09406   0.00000  Uiso   1.00
C6     C     0.15612   0.12183   0.40594   0.00000  Uiso   1.00
C7     C     0.17840   0.21266   0.04769   0.00000  Uiso   1.00
C8     C     0.15493   0.12068   0.45231   0.00000  Uiso   1.00
C9     C     0.16578   0.16612   0.02347   0.00000  Uiso   1.00
C10    C     0.16756   0.16721   0.47653   0.00000  Uiso   1.00
C11    C     0.15151   0.11850   0.04612   0.00000  Uiso   1.00
C12    C     0.15142   0.06844   0.25121   0.00000  Uiso   1.00
C13    C     0.18182   0.21484   0.45388   0.00000  Uiso   1.00
C14    C     0.19246   0.25959   0.02532   0.00000  Uiso   1.00
C15    C     0.14088   0.07375   0.47468   0.00000  Uiso   1.00
C16    C     0.19418   0.26073   0.47868   0.00000  Uiso   1.00
C17    C     0.13916   0.07260   0.02132   0.00000  Uiso   1.00
C18    C     0.18994   0.31941   0.24815   0.00000  Uiso   1.00
C19    C     0.14339   0.01392   0.25185   0.00000  Uiso   1.00
C20    C     0.16758   0.16710   0.33630   0.00000  Uiso   1.00
C21    C     0.16575   0.16623   0.16370   0.00000  Uiso   1.00
C22    C     0.15020   0.11762   0.09304   0.00000  Uiso   1.00
H23    H     0.18735   0.24695   0.11316   0.00000  Uiso   1.00
H24    H     0.32881   0.20578   0.28395   0.00000  Uiso   1.00
H25    H     0.13646   0.07533   0.14765   0.00000  Uiso   1.00
H26    H     0.19687   0.25800   0.35235   0.00000  Uiso   1.00
H27    H     0.14599   0.08638   0.38684   0.00000  Uiso   1.00
H28    H     0.20223   0.29538   0.04390   0.00000  Uiso   1.00
H29    H     0.13110   0.03795   0.45610   0.00000  Uiso   1.00
H30    H     0.20523   0.29764   0.46224   0.00000  Uiso   1.00
H31    H     0.12810   0.03570   0.03776   0.00000  Uiso   1.00
H32    H     0.23391   0.00311   0.24467   0.00000  Uiso   1.00
H33    H     0.09943   0.33022   0.25533   0.00000  Uiso   1.00
H34    H     0.00452   0.12755   0.21605   0.00000  Uiso   1.00
N35    N     0.31678   0.15265   0.23783   0.00000  Uiso   1.00
N36    N     0.01656   0.18068   0.26217   0.00000  Uiso   1.00
O37    O     0.12975   0.24619   0.25298   0.00000  Uiso   1.00
O38    O     0.19671   0.26274   0.38538   0.00000  Uiso   1.00
O39    O     0.20358   0.08714   0.24702   0.00000  Uiso   1.00
O40    O     0.22613   0.23721   0.24519   0.00000  Uiso   1.00
O41    O     0.10720   0.09613   0.25481   0.00000  Uiso   1.00
O42    O     0.11847   0.17117   0.31997   0.00000  Uiso   1.00
O43    O     0.21486   0.16216   0.18003   0.00000  Uiso   1.00
O44    O     0.21485   0.16219   0.31217   0.00000  Uiso   1.00
O45    O     0.11848   0.17115   0.18782   0.00000  Uiso   1.00
O46    O     0.13663   0.07060   0.11462   0.00000  Uiso   1.00
Zn47   Zn    0.10231   0.17266   0.25521   0.00000  Uiso   1.00
Zn48   Zn    0.23102   0.16067   0.24479   0.00000  Uiso   1.00
C49    C     0.51525   0.26489   0.24879   0.00000  Uiso   1.00
C50    C     0.51647   0.21571   0.40696   0.00000  Uiso   1.00
C51    C     0.49692   0.16475   0.11622   0.00000  Uiso   1.00
C52    C     0.50308   0.16858   0.38378   0.00000  Uiso   1.00
C53    C     0.51055   0.21150   0.09406   0.00000  Uiso   1.00
C54    C     0.48945   0.12183   0.40594   0.00000  Uiso   1.00
C55    C     0.51173   0.21266   0.04769   0.00000  Uiso   1.00
C56    C     0.48827   0.12068   0.45231   0.00000  Uiso   1.00
C57    C     0.49911   0.16612   0.02347   0.00000  Uiso   1.00
C58    C     0.50089   0.16721   0.47653   0.00000  Uiso   1.00
C59    C     0.48484   0.11850   0.04612   0.00000  Uiso   1.00
C60    C     0.48475   0.06844   0.25121   0.00000  Uiso   1.00
C61    C     0.51516   0.21484   0.45388   0.00000  Uiso   1.00
C62    C     0.52579   0.25959   0.02532   0.00000  Uiso   1.00
C63    C     0.47421   0.07375   0.47468   0.00000  Uiso   1.00
C64    C     0.52751   0.26073   0.47868   0.00000  Uiso   1.00
C65    C     0.47249   0.07260   0.02132   0.00000  Uiso   1.00
C66    C     0.52328   0.31941   0.24815   0.00000  Uiso   1.00
C67    C     0.47672   0.01392   0.25185   0.00000  Uiso   1.00
C68    C     0.50092   0.16710   0.33630   0.00000  Uiso   1.00
C69    C     0.49908   0.16623   0.16370   0.00000  Uiso   1.00
C70    C     0.48353   0.11762   0.09304   0.00000  Uiso   1.00
H71    H     0.52068   0.24695   0.11316   0.00000  Uiso   1.00
H72    H     0.66215   0.20578   0.28395   0.00000  Uiso   1.00
H73    H     0.46979   0.07533   0.14765   0.00000  Uiso   1.00
H74    H     0.53021   0.25800   0.35235   0.00000  Uiso   1.00
H75    H     0.47932   0.08638   0.38684   0.00000  Uiso   1.00
H76    H     0.53557   0.29538   0.04390   0.00000  Uiso   1.00
H77    H     0.46443   0.03795   0.45610   0.00000  Uiso   1.00
H78    H     0.53856   0.29764   0.46224   0.00000  Uiso   1.00
H79    H     0.46144   0.03570   0.03776   0.00000  Uiso   1.00
H80    H     0.56724   0.00311   0.24467   0.00000  Uiso   1.00
H81    H     0.43276   0.33022   0.25533   0.00000  Uiso   1.00
H82    H     0.33785   0.12755   0.21605   0.00000  Uiso   1.00
N83    N     0.65011   0.15265   0.23783   0.00000  Uiso   1.00
N84    N     0.34989   0.18068   0.26217   0.00000  Uiso   1.00
O85    O     0.46308   0.24619   0.25298   0.00000  Uiso   1.00
O86    O     0.53004   0.26274   0.38538   0.00000  Uiso   1.00
O87    O     0.53692   0.08714   0.24702   0.00000  Uiso   1.00
O88    O     0.55946   0.23721   0.24519   0.00000  Uiso   1.00
O89    O     0.44054   0.09613   0.25481   0.00000  Uiso   1.00
O90    O     0.45181   0.17117   0.31997   0.00000  Uiso   1.00
O91    O     0.54819   0.16216   0.18003   0.00000  Uiso   1.00
O92    O     0.54819   0.16219   0.31217   0.00000  Uiso   1.00
O93    O     0.45181   0.17115   0.18782   0.00000  Uiso   1.00
O94    O     0.46996   0.07060   0.11462   0.00000  Uiso   1.00
Zn95   Zn    0.43565   0.17266   0.25521   0.00000  Uiso   1.00
Zn96   Zn    0.56435   0.16067   0.24479   0.00000  Uiso   1.00
C97    C     0.84859   0.26489   0.24879   0.00000  Uiso   1.00
C98    C     0.84980   0.21571   0.40696   0.00000  Uiso   1.00
C99    C     0.83025   0.16475   0.11622   0.00000  Uiso   1.00
C100   C     0.83642   0.16858   0.38378   0.00000  Uiso   1.00
C101   C     0.84388   0.21150   0.09406   0.00000  Uiso   1.00
C102   C     0.82278   0.12183   0.40594   0.00000  Uiso   1.00
C103   C     0.84507   0.21266   0.04769   0.00000  Uiso   1.00
C104   C     0.82160   0.12068   0.45231   0.00000  Uiso   1.00
C105   C     0.83244   0.16612   0.02347   0.00000  Uiso   1.00
C106   C     0.83422   0.16721   0.47653   0.00000  Uiso   1.00
C107   C     0.81818   0.11850   0.04612   0.00000  Uiso   1.00
C108   C     0.81808   0.06844   0.25121   0.00000  Uiso   1.00
C109   C     0.84849   0.21484   0.45388   0.00000  Uiso   1.00
C110   C     0.85912   0.25959   0.02532   0.00000  Uiso   1.00
C111   C     0.80754   0.07375   0.47468   0.00000  Uiso   1.00
C112   C     0.86084   0.26073   0.47868   0.00000  Uiso   1.00
C113   C     0.80582   0.07260   0.02132   0.00000  Uiso   1.00
C114   C     0.85661   0.31941   0.24815   0.00000  Uiso   1.00
C115   C     0.81006   0.01392   0.25185   0.00000  Uiso   1.00
C116   C     0.83425   0.16710   0.33630   0.00000  Uiso   1.00
C117   C     0.83242   0.16623   0.16370   0.00000  Uiso   1.00
C118   C     0.81686   0.11762   0.09304   0.00000  Uiso   1.00
H119   H     0.85401   0.24695   0.11316   0.00000  Uiso   1.00
H120   H     0.99548   0.20578   0.28395   0.00000  Uiso   1.00
H121   H     0.80313   0.07533   0.14765   0.00000  Uiso   1.00
H122   H     0.86354   0.25800   0.35235   0.00000  Uiso   1.00
H123   H     0.81265   0.08638   0.38684   0.00000  Uiso   1.00
H124   H     0.86890   0.29538   0.04390   0.00000  Uiso   1.00
H125   H     0.79777   0.03795   0.45610   0.00000  Uiso   1.00
H126   H     0.87190   0.29764   0.46224   0.00000  Uiso   1.00
H127   H     0.79477   0.03570   0.03776   0.00000  Uiso   1.00
H128   H     0.90058   0.00311   0.24467   0.00000  Uiso   1.00
H129   H     0.76609   0.33022   0.25533   0.00000  Uiso   1.00
H130   H     0.67119   0.12755   0.21605   0.00000  Uiso   1.00
N131   N     0.98344   0.15265   0.23783   0.00000  Uiso   1.00
N132   N     0.68322   0.18068   0.26217   0.00000  Uiso   1.00
O133   O     0.79642   0.24619   0.25298   0.00000  Uiso   1.00
O134   O     0.86337   0.26274   0.38538   0.00000  Uiso   1.00
O135   O     0.87025   0.08714   0.24702   0.00000  Uiso   1.00
O136   O     0.89280   0.23721   0.24519   0.00000  Uiso   1.00
O137   O     0.77387   0.09613   0.25481   0.00000  Uiso   1.00
O138   O     0.78514   0.17117   0.31997   0.00000  Uiso   1.00
O139   O     0.88153   0.16216   0.18003   0.00000  Uiso   1.00
O140   O     0.88152   0.16219   0.31217   0.00000  Uiso   1.00
O141   O     0.78515   0.17115   0.18782   0.00000  Uiso   1.00
O142   O     0.80329   0.07060   0.11462   0.00000  Uiso   1.00
Zn143  Zn    0.76898   0.17266   0.25521   0.00000  Uiso   1.00
Zn144  Zn    0.89769   0.16067   0.24479   0.00000  Uiso   1.00
C145   C     0.18192   0.59823   0.24879   0.00000  Uiso   1.00
C146   C     0.18314   0.54904   0.40696   0.00000  Uiso   1.00
C147   C     0.16358   0.49808   0.11622   0.00000  Uiso   1.00
C148   C     0.16975   0.50192   0.38378   0.00000  Uiso   1.00
C149   C     0.17722   0.54484   0.09406   0.00000  Uiso   1.00
C150   C     0.15612   0.45516   0.40594   0.00000  Uiso   1.00
C151   C     0.17840   0.54599   0.04769   0.00000  Uiso   1.00
C152   C     0.15493   0.45401   0.45231   0.00000  Uiso   1.00
C153   C     0.16578   0.49945   0.02347   0.00000  Uiso   1.00
C154   C     0.16756   0.50055   0.47653   0.00000  Uiso   1.00
C155   C     0.15151   0.45183   0.04612   0.00000  Uiso   1.00
C156   C     0.15142   0.40177   0.25121   0.00000  Uiso   1.00
C157   C     0.18182   0.54817   0.45388   0.00000  Uiso   1.00
C158   C     0.19246   0.59292   0.02532   0.00000  Uiso   1.00
C159   C     0.14088   0.40708   0.47468   0.00000  Uiso   1.00
C160   C     0.19418   0.59406   0.47868   0.00000  Uiso   1.00
C161   C     0.13916   0.40594   0.02132   0.00000  Uiso   1.00
C162   C     0.18994   0.65274   0.24815   0.00000  Uiso   1.00
C163   C     0.14339   0.34726   0.25185   0.00000  Uiso   1.00
C164   C     0.16758   0.50043   0.33630   0.00000  Uiso   1.00
C165   C     0.16575   0.49957   0.16370   0.00000  Uiso   1.00
C166   C     0.15020   0.45096   0.09304   0.00000  Uiso   1.00
H167   H     0.18735   0.58028   0.11316   0.00000  Uiso   1.00
H168   H     0.32881   0.53912   0.28395   0.00000  Uiso   1.00
H169   H     0.13646   0.40866   0.14765   0.00000  Uiso   1.00
H170   H     0.19687   0.59134   0.35235   0.00000  Uiso   1.00
H171   H     0.14599   0.41972   0.38684   0.00000  Uiso   1.00
H172   H     0.20223   0.62872   0.04390   0.00000  Uiso   1.00
H173   H     0.13110   0.37128   0.45610   0.00000  Uiso   1.00
H174   H     0.20523   0.63097   0.46224   0.00000  Uiso   1.00
H175   H     0.12810   0.36903   0.03776   0.00000  Uiso   1.00
H176   H     0.23391   0.33644   0.24467   0.00000  Uiso   1.00
H177   H     0.09943   0.66356   0.25533   0.00000  Uiso   1.00
H178   H     0.00452   0.46088   0.21605   0.00000  Uiso   1.00
N179   N     0.31678   0.48598   0.23783   0.00000  Uiso   1.00
N180   N     0.01656   0.51402   0.26217   0.00000  Uiso   1.00
O181   O     0.12975   0.57952   0.25298   0.00000  Uiso   1.00
O182   O     0.19671   0.59607   0.38538   0.00000  Uiso   1.00
O183   O     0.20358   0.42048   0.24702   0.00000  Uiso   1.00
O184   O     0.22613   0.57054   0.24519   0.00000  Uiso   1.00
O185   O     0.10720   0.42946   0.25481   0.00000  Uiso   1.00
O186   O     0.11847   0.50450   0.31997   0.00000  Uiso   1.00
O187   O     0.21486   0.49550   0.18003   0.00000  Uiso   1.00
O188   O     0.21485   0.49552   0.31217   0.00000  Uiso   1.00
O189   O     0.11848   0.50448   0.18782   0.00000  Uiso   1.00
O190   O     0.13663   0.40393   0.11462   0.00000  Uiso   1.00
Zn191  Zn    0.10231   0.50600   0.25521   0.00000  Uiso   1.00
Zn192  Zn    0.23102   0.49400   0.24479   0.00000  Uiso   1.00
C193   C     0.51525   0.59823   0.24879   0.00000  Uiso   1.00
C194   C     0.51647   0.54904   0.40696   0.00000  Uiso   1.00
C195   C     0.49692   0.49808   0.11622   0.00000  Uiso   1.00
C196   C     0.50308   0.50192   0.38378   0.00000  Uiso   1.00
C197   C     0.51055   0.54484   0.09406   0.00000  Uiso   1.00
C198   C     0.48945   0.45516   0.40594   0.00000  Uiso   1.00
C199   C     0.51173   0.54599   0.04769   0.00000  Uiso   1.00
C200   C     0.48827   0.45401   0.45231   0.00000  Uiso   1.00
C201   C     0.49911   0.49945   0.02347   0.00000  Uiso   1.00
C202   C     0.50089   0.50055   0.47653   0.00000  Uiso   1.00
C203   C     0.48484   0.45183   0.04612   0.00000  Uiso   1.00
C204   C     0.48475   0.40177   0.25121   0.00000  Uiso   1.00
C205   C     0.51516   0.54817   0.45388   0.00000  Uiso   1.00
C206   C     0.52579   0.59292   0.02532   0.00000  Uiso   1.00
C207   C     0.47421   0.40708   0.47468   0.00000  Uiso   1.00
C208   C     0.52751   0.59406   0.47868   0.00000  Uiso   1.00
C209   C     0.47249   0.40594   0.02132   0.00000  Uiso   1.00
C210   C     0.52328   0.65274   0.24815   0.00000  Uiso   1.00
C211   C     0.47672   0.34726   0.25185   0.00000  Uiso   1.00
C212   C     0.50092   0.50043   0.33630   0.00000  Uiso   1.00
C213   C     0.49908   0.49957   0.16370   0.00000  Uiso   1.00
C214   C     0.48353   0.45096   0.09304   0.00000  Uiso   1.00
H215   H     0.52068   0.58028   0.11316   0.00000  Uiso   1.00
H216   H     0.66215   0.53912   0.28395   0.00000  Uiso   1.00
H217   H     0.46979   0.40866   0.14765   0.00000  Uiso   1.00
H218   H     0.53021   0.59134   0.35235   0.00000  Uiso   1.00
H219   H     0.47932   0.41972   0.38684   0.00000  Uiso   1.00
H220   H     0.53557   0.62872   0.04390   0.00000  Uiso   1.00
H221   H     0.46443   0.37128   0.45610   0.00000  Uiso   1.00
H222   H     0.53856   0.63097   0.46224   0.00000  Uiso   1.00
H223   H     0.46144   0.36903   0.03776   0.00000  Uiso   1.00
H224   H     0.56724   0.33644   0.24467   0.00000  Uiso   1.00
H225   H     0.43276   0.66356   0.25533   0.00000  Uiso   1.00
H226   H     0.33785   0.46088   0.21605   0.00000  Uiso   1.00
N227   N     0.65011   0.48598   0.23783   0.00000  Uiso   1.00
N228   N     0.34989   0.51402   0.26217   0.00000  Uiso   1.00
O229   O     0.46308   0.57952   0.25298   0.00000  Uiso   1.00
O230   O     0.53004   0.59607   0.38538   0.00000  Uiso   1.00
O231   O     0.53692   0.42048   0.24702   0.00000  Uiso   1.00
O232   O     0.55946   0.57054   0.24519   0.00000  Uiso   1.00
O233   O     0.44054   0.42946   0.25481   0.00000  Uiso   1.00
O234   O     0.45181   0.50450   0.31997   0.00000  Uiso   1.00
O235   O     0.54819   0.49550   0.18003   0.00000  Uiso   1.00
O236   O     0.54819   0.49552   0.31217   0.00000  Uiso   1.00
O237   O     0.45181   0.50448   0.18782   0.00000  Uiso   1.00
O238   O     0.46996   0.40393   0.11462   0.00000  Uiso   1.00
Zn239  Zn    0.43565   0.50600   0.25521   0.00000  Uiso   1.00
Zn240  Zn    0.56435   0.49400   0.24479   0.00000  Uiso   1.00
C241   C     0.84859   0.59823   0.24879   0.00000  Uiso   1.00
C242   C     0.84980   0.54904   0.40696   0.00000  Uiso   1.00
C243   C     0.83025   0.49808   0.11622   0.00000  Uiso   1.00
C244   C     0.83642   0.50192   0.38378   0.00000  Uiso   1.00
C245   C     0.84388   0.54484   0.09406   0.00000  Uiso   1.00
C246   C     0.82278   0.45516   0.40594   0.00000  Uiso   1.00
C247   C     0.84507   0.54599   0.04769   0.00000  Uiso   1.00
C248   C     0.82160   0.45401   0.45231   0.00000  Uiso   1.00
C249   C     0.83244   0.49945   0.02347   0.00000  Uiso   1.00
C250   C     0.83422   0.50055   0.47653   0.00000  Uiso   1.00
C251   C     0.81818   0.45183   0.04612   0.00000  Uiso   1.00
C252   C     0.81808   0.40177   0.25121   0.00000  Uiso   1.00
C253   C     0.84849   0.54817   0.45388   0.00000  Uiso   1.00
C254   C     0.85912   0.59292   0.02532   0.00000  Uiso   1.00
C255   C     0.80754   0.40708   0.47468   0.00000  Uiso   1.00
C256   C     0.86084   0.59406   0.47868   0.00000  Uiso   1.00
C257   C     0.80582   0.40594   0.02132   0.00000  Uiso   1.00
C258   C     0.85661   0.65274   0.24815   0.00000  Uiso   1.00
C259   C     0.81006   0.34726   0.25185   0.00000  Uiso   1.00
C260   C     0.83425   0.50043   0.33630   0.00000  Uiso   1.00
C261   C     0.83242   0.49957   0.16370   0.00000  Uiso   1.00
C262   C     0.81686   0.45096   0.09304   0.00000  Uiso   1.00
H263   H     0.85401   0.58028   0.11316   0.00000  Uiso   1.00
H264   H     0.99548   0.53912   0.28395   0.00000  Uiso   1.00
H265   H     0.80313   0.40866   0.14765   0.00000  Uiso   1.00
H266   H     0.86354   0.59134   0.35235   0.00000  Uiso   1.00
H267   H     0.81265   0.41972   0.38684   0.00000  Uiso   1.00
H268   H     0.86890   0.62872   0.04390   0.00000  Uiso   1.00
H269   H     0.79777   0.37128   0.45610   0.00000  Uiso   1.00
H270   H     0.87190   0.63097   0.46224   0.00000  Uiso   1.00
H271   H     0.79477   0.36903   0.03776   0.00000  Uiso   1.00
H272   H     0.90058   0.33644   0.24467   0.00000  Uiso   1.00
H273   H     0.76609   0.66356   0.25533   0.00000  Uiso   1.00
H274   H     0.67119   0.46088   0.21605   0.00000  Uiso   1.00
N275   N     0.98344   0.48598   0.23783   0.00000  Uiso   1.00
N276   N     0.68322   0.51402   0.26217   0.00000  Uiso   1.00
O277   O     0.79642   0.57952   0.25298   0.00000  Uiso   1.00
O278   O     0.86337   0.59607   0.38538   0.00000  Uiso   1.00
O279   O     0.87025   0.42048   0.24702   0.00000  Uiso   1.00
O280   O     0.89280   0.57054   0.24519   0.00000  Uiso   1.00
O281   O     0.77387   0.42946   0.25481   0.00000  Uiso   1.00
O282   O     0.78514   0.50450   0.31997   0.00000  Uiso   1.00
O283   O     0.88153   0.49550   0.18003   0.00000  Uiso   1.00
O284   O     0.88152   0.49552   0.31217   0.00000  Uiso   1.00
O285   O     0.78515   0.50448   0.18782   0.00000  Uiso   1.00
O286   O     0.80329   0.40393   0.11462   0.00000  Uiso   1.00
Zn287  Zn    0.76898   0.50600   0.25521   0.00000  Uiso   1.00
Zn288  Zn    0.89769   0.49400   0.24479   0.00000  Uiso   1.00
C289   C     0.18192   0.93156   0.24879   0.00000  Uiso   1.00
C290   C     0.18314   0.88238   0.40696   0.00000  Uiso   1.00
C291   C     0.16358   0.83142   0.11622   0.00000  Uiso   1.00
C292   C     0.16975   0.83525   0.38378   0.00000  Uiso   1.00
C293   C     0.17722   0.87817   0.09406   0.00000  Uiso   1.00
C294   C     0.15612   0.78850   0.40594   0.00000  Uiso   1.00
C295   C     0.17840   0.87932   0.04769   0.00000  Uiso   1.00
C296   C     0.15493   0.78734   0.45231   0.00000  Uiso   1.00
C297   C     0.16578   0.83279   0.02347   0.00000  Uiso   1.00
C298   C     0.16756   0.83388   0.47653   0.00000  Uiso   1.00
C299   C     0.15151   0.78516   0.04612   0.00000  Uiso   1.00
C300   C     0.15142   0.73511   0.25121   0.00000  Uiso   1.00
C301   C     0.18182   0.88150   0.45388   0.00000  Uiso   1.00
C302   C     0.19246   0.92625   0.02532   0.00000  Uiso   1.00
C303   C     0.14088   0.74041   0.47468   0.00000  Uiso   1.00
C304   C     0.19418   0.92740   0.47868   0.00000  Uiso   1.00
C305   C     0.13916   0.73927   0.02132   0.00000  Uiso   1.00
C306   C     0.18994   0.98608   0.24815   0.00000  Uiso   1.00
C307   C     0.14339   0.68059   0.25185   0.00000  Uiso   1.00
C308   C     0.16758   0.83377   0.33630   0.00000  Uiso   1.00
C309   C     0.16575   0.83290   0.16370   0.00000  Uiso   1.00
C310   C     0.15020   0.78429   0.09304   0.00000  Uiso   1.00
H311   H     0.18735   0.91362   0.11316   0.00000  Uiso   1.00
H312   H     0.32881   0.87245   0.28395   0.00000  Uiso   1.00
H313   H     0.13646   0.74200   0.14765   0.00000  Uiso   1.00
H314   H     0.19687   0.92467   0.35235   0.00000  Uiso   1.00
H315   H     0.14599   0.75305   0.38684   0.00000  Uiso   1.00
H316   H     0.20223   0.96205   0.04390   0.00000  Uiso   1.00
H317   H     0.13110   0.70461   0.45610   0.00000  Uiso   1.00
H318   H     0.20523   0.96430   0.46224   0.00000  Uiso   1.00
H319   H     0.12810   0.70236   0.03776   0.00000  Uiso   1.00
H320   H     0.23391   0.66978   0.24467   0.00000  Uiso   1.00
H321   H     0.09943   0.99689   0.25533   0.00000  Uiso   1.00
H322   H     0.00452   0.79422   0.21605   0.00000  Uiso   1.00
N323   N     0.31678   0.81932   0.23783   0.00000  Uiso   1.00
N324   N     0.01656   0.84735   0.26217   0.00000  Uiso   1.00
O325   O     0.12975   0.91286   0.25298   0.00000  Uiso   1.00
O326   O     0.19671   0.92940   0.38538   0.00000  Uiso   1.00
O327   O     0.20358   0.75381   0.24702   0.00000  Uiso   1.00
O328   O     0.22613   0.90387   0.24519   0.00000  Uiso   1.00
O329   O     0.10720   0.76279   0.25481   0.00000  Uiso   1.00
O330   O     0.11847   0.83784   0.31997   0.00000  Uiso   1.00
O331   O     0.21486   0.82883   0.18003   0.00000  Uiso   1.00
O332   O     0.21485   0.82885   0.31217   0.00000  Uiso   1.00
O333   O     0.11848   0.83781   0.18782   0.00000  Uiso   1.00
O334   O     0.13663   0.73726   0.11462   0.00000  Uiso   1.00
Zn335  Zn    0.10231   0.83933   0.25521   0.00000  Uiso   1.00
Zn336  Zn    0.23102   0.82734   0.24479   0.00000  Uiso   1.00
C337   C     0.51525   0.93156   0.24879   0.00000  Uiso   1.00
C338   C     0.51647   0.88238   0.40696   0.00000  Uiso   1.00
C339   C     0.49692   0.83142   0.11622   0.00000  Uiso   1.00
C340   C     0.50308   0.83525   0.38378   0.00000  Uiso   1.00
C341   C     0.51055   0.87817   0.09406   0.00000  Uiso   1.00
C342   C     0.48945   0.78850   0.40594   0.00000  Uiso   1.00
C343   C     0.51173   0.87932   0.04769   0.00000  Uiso   1.00
C344   C     0.48827   0.78734   0.45231   0.00000  Uiso   1.00
C345   C     0.49911   0.83279   0.02347   0.00000  Uiso   1.00
C346   C     0.50089   0.83388   0.47653   0.00000  Uiso   1.00
C347   C     0.48484   0.78516   0.04612   0.00000  Uiso   1.00
C348   C     0.48475   0.73511   0.25121   0.00000  Uiso   1.00
C349   C     0.51516   0.88150   0.45388   0.00000  Uiso   1.00
C350   C     0.52579   0.92625   0.02532   0.00000  Uiso   1.00
C351   C     0.47421   0.74041   0.47468   0.00000  Uiso   1.00
C352   C     0.52751   0.92740   0.47868   0.00000  Uiso   1.00
C353   C     0.47249   0.73927   0.02132   0.00000  Uiso   1.00
C354   C     0.52328   0.98608   0.24815   0.00000  Uiso   1.00
C355   C     0.47672   0.68059   0.25185   0.00000  Uiso   1.00
C356   C     0.50092   0.83377   0.33630   0.00000  Uiso   1.00
C357   C     0.49908   0.83290   0.16370   0.00000  Uiso   1.00
C358   C     0.48353   0.78429   0.09304   0.00000  Uiso   1.00
H359   H     0.52068   0.91362   0.11316   0.00000  Uiso   1.00
H360   H     0.66215   0.87245   0.28395   0.00000  Uiso   1.00
H361   H     0.46979   0.74200   0.14765   0.00000  Uiso   1.00
H362   H     0.53021   0.92467   0.35235   0.00000  Uiso   1.00
H363   H     0.47932   0.75305   0.38684   0.00000  Uiso   1.00
H364   H     0.53557   0.96205   0.04390   0.00000  Uiso   1.00
H365   H     0.46443   0.70461   0.45610   0.00000  Uiso   1.00
H366   H     0.53856   0.96430   0.46224   0.00000  Uiso   1.00
H367   H     0.46144   0.70236   0.03776   0.00000  Uiso   1.00
H368   H     0.56724   0.66978   0.24467   0.00000  Uiso   1.00
H369   H     0.43276   0.99689   0.25533   0.00000  Uiso   1.00
H370   H     0.33785   0.79422   0.21605   0.00000  Uiso   1.00
N371   N     0.65011   0.81932   0.23783   0.00000  Uiso   1.00
N372   N     0.34989   0.84735   0.26217   0.00000  Uiso   1.00
O373   O     0.46308   0.91286   0.25298   0.00000  Uiso   1.00
O374   O     0.53004   0.92940   0.38538   0.00000  Uiso   1.00
O375   O     0.53692   0.75381   0.24702   0.00000  Uiso   1.00
O376   O     0.55946   0.90387   0.24519   0.00000  Uiso   1.00
O377   O     0.44054   0.76279   0.25481   0.00000  Uiso   1.00
O378   O     0.45181   0.83784   0.31997   0.00000  Uiso   1.00
O379   O     0.54819   0.82883   0.18003   0.00000  Uiso   1.00
O380   O     0.54819   0.82885   0.31217   0.00000  Uiso   1.00
O381   O     0.45181   0.83781   0.18782   0.00000  Uiso   1.00
O382   O     0.46996   0.73726   0.11462   0.00000  Uiso   1.00
Zn383  Zn    0.43565   0.83933   0.25521   0.00000  Uiso   1.00
Zn384  Zn    0.56435   0.82734   0.24479   0.00000  Uiso   1.00
C385   C     0.84859   0.93156   0.24879   0.00000  Uiso   1.00
C386   C     0.84980   0.88238   0.40696   0.00000  Uiso   1.00
C387   C     0.83025   0.83142   0.11622   0.00000  Uiso   1.00
C388   C     0.83642   0.83525   0.38378   0.00000  Uiso   1.00
C389   C     0.84388   0.87817   0.09406   0.00000  Uiso   1.00
C390   C     0.82278   0.78850   0.40594   0.00000  Uiso   1.00
C391   C     0.84507   0.87932   0.04769   0.00000  Uiso   1.00
C392   C     0.82160   0.78734   0.45231   0.00000  Uiso   1.00
C393   C     0.83244   0.83279   0.02347   0.00000  Uiso   1.00
C394   C     0.83422   0.83388   0.47653   0.00000  Uiso   1.00
C395   C     0.81818   0.78516   0.04612   0.00000  Uiso   1.00
C396   C     0.81808   0.73511   0.25121   0.00000  Uiso   1.00
C397   C     0.84849   0.88150   0.45388   0.00000  Uiso   1.00
C398   C     0.85912   0.92625   0.02532   0.00000  Uiso   1.00
C399   C     0.80754   0.74041   0.47468   0.00000  Uiso   1.00
C400   C     0.86084   0.92740   0.47868   0.00000  Uiso   1.00
C401   C     0.80582   0.73927   0.02132   0.00000  Uiso   1.00
C402   C     0.85661   0.98608   0.24815   0.00000  Uiso   1.00
C403   C     0.81006   0.68059   0.25185   0.00000  Uiso   1.00
C404   C     0.83425   0.83377   0.33630   0.00000  Uiso   1.00
C405   C     0.83242   0.83290   0.16370   0.00000  Uiso   1.00
C406   C     0.81686   0.78429   0.09304   0.00000  Uiso   1.00
H407   H     0.85401   0.91362   0.11316   0.00000  Uiso   1.00
H408   H     0.99548   0.87245   0.28395   0.00000  Uiso   1.00
H409   H     0.80313   0.74200   0.14765   0.00000  Uiso   1.00
H410   H     0.86354   0.92467   0.35235   0.00000  Uiso   1.00
H411   H     0.81265   0.75305   0.38684   0.00000  Uiso   1.00
H412   H     0.86890   0.96205   0.04390   0.00000  Uiso   1.00
H413   H     0.79777   0.70461   0.45610   0.00000  Uiso   1.00
H414   H     0.87190   0.96430   0.46224   0.00000  Uiso   1.00
H415   H     0.79477   0.70236   0.03776   0.00000  Uiso   1.00
H416   H     0.90058   0.66978   0.24467   0.00000  Uiso   1.00
H417   H     0.76609   0.99689   0.25533   0.00000  Uiso   1.00
H418   H     0.67119   0.79422   0.21605   0.00000  Uiso   1.00
N419   N     0.98344   0.81932   0.23783   0.00000  Uiso   1.00
N420   N     0.68322   0.84735   0.26217   0.00000  Uiso   1.00
O421   O     0.79642   0.91286   0.25298   0.00000  Uiso   1.00
O422   O     0.86337   0.92940   0.38538   0.00000  Uiso   1.00
O423   O     0.87025   0.75381   0.24702   0.00000  Uiso   1.00
O424   O     0.89280   0.90387   0.24519   0.00000  Uiso   1.00
O425   O     0.77387   0.76279   0.25481   0.00000  Uiso   1.00
O426   O     0.78514   0.83784   0.31997   0.00000  Uiso   1.00
O427   O     0.88153   0.82883   0.18003   0.00000  Uiso   1.00
O428   O     0.88152   0.82885   0.31217   0.00000  Uiso   1.00
O429   O     0.78515   0.83781   0.18782   0.00000  Uiso   1.00
O430   O     0.80329   0.73726   0.11462   0.00000  Uiso   1.00
Zn431  Zn    0.76898   0.83933   0.25521   0.00000  Uiso   1.00
Zn432  Zn    0.89769   0.82734   0.24479   0.00000  Uiso   1.00
C433   C     0.18192   0.26489   0.74879   0.00000  Uiso   1.00
C434   C     0.18314   0.21571   0.90696   0.00000  Uiso   1.00
C435   C     0.16358   0.16475   0.61622   0.00000  Uiso   1.00
C436   C     0.16975   0.16858   0.88378   0.00000  Uiso   1.00
C437   C     0.17722   0.21150   0.59406   0.00000  Uiso   1.00
C438   C     0.15612   0.12183   0.90594   0.00000  Uiso   1.00
C439   C     0.17840   0.21266   0.54769   0.00000  Uiso   1.00
C440   C     0.15493   0.12068   0.95231   0.00000  Uiso   1.00
C441   C     0.16578   0.16612   0.52347   0.00000  Uiso   1.00
C442   C     0.16756   0.16721   0.97653   0.00000  Uiso   1.00
C443   C     0.15151   0.11850   0.54612   0.00000  Uiso   1.00
C444   C     0.15142   0.06844   0.75121   0.00000  Uiso   1.00
C445   C     0.18182   0.21484   0.95388   0.00000  Uiso   1.00
C446   C     0.19246   0.25959   0.52532   0.00000  Uiso   1.00
C447   C     0.14088   0.07375   0.97468   0.00000  Uiso   1.00
C448   C     0.19418   0.26073   0.97868   0.00000  Uiso   1.00
C449   C     0.13916   0.07260   0.52132   0.00000  Uiso   1.00
C450   C     0.18994   0.31941   0.74815   0.00000  Uiso   1.00
C451   C     0.14339   0.01392   0.75185   0.00000  Uiso   1.00
C452   C     0.16758   0.16710   0.83630   0.00000  Uiso   1.00
C453   C     0.16575   0.16623   0.66370   0.00000  Uiso   1.00
C454   C     0.15020   0.11762   0.59304   0.00000  Uiso   1.00
H455   H     0.18735   0.24695   0.61316   0.00000  Uiso   1.00
H456   H     0.32881   0.20578   0.78395   0.00000  Uiso   1.00
H457   H     0.13646   0.07533   0.64765   0.00000  Uiso   1.00
H458   H     0.19687   0.25800   0.85235   0.00000  Uiso   1.00
H459   H     0.14599   0.08638   0.88684   0.00000  Uiso   1.00
H460   H     0.20223   0.29538   0.54390   0.00000  Uiso   1.00
H461   H     0.13110   0.03795   0.95610   0.00000  Uiso   1.00
H462   H     0.20523   0.29764   0.96224   0.00000  Uiso   1.00
H463   H     0.12810   0.03570   0.53776   0.00000  Uiso   1.00
H464   H     0.23391   0.00311   0.74467   0.00000  Uiso   1.00
H465   H     0.09943   0.33022   0.75533   0.00000  Uiso   1.00
H466   H     0.00452   0.12755   0.71605   0.00000  Uiso   1.00
N467   N     0.31678   0.15265   0.73783   0.00000  Uiso   1.00
N468   N     0.01656   0.18068   0.76217   0.00000  Uiso   1.00
O469   O     0.12975   0.24619   0.75298   0.00000  Uiso   1.00
O470   O     0.19671   0.26274   0.88538   0.00000  Uiso   1.00
O471   O     0.20358   0.08714   0.74702   0.00000  Uiso   1.00
O472   O     0.22613   0.23721   0.74519   0.00000  Uiso   1.00
O473   O     0.10720   0.09613   0.75481   0.00000  Uiso   1.00
O474   O     0.11847   0.17117   0.81997   0.00000  Uiso   1.00
O475   O     0.21486   0.16216   0.68003   0.00000  Uiso   1.00
O476   O     0.21485   0.16219   0.81217   0.00000  Uiso   1.00
O477   O     0.11848   0.17115   0.68782   0.00000  Uiso   1.00
O478   O     0.13663   0.07060   0.61462   0.00000  Uiso   1.00
Zn479  Zn    0.10231   0.17266   0.75521   0.00000  Uiso   1.00
Zn480  Zn    0.23102   0.16067   0.74479   0.00000  Uiso   1.00
C481   C     0.51525   0.26489   0.74879   0.00000  Uiso   1.00
C482   C     0.51647   0.21571   0.90696   0.00000  Uiso   1.00
C483   C     0.49692   0.16475   0.61622   0.00000  Uiso   1.00
C484   C     0.50308   0.16858   0.88378   0.00000  Uiso   1.00
C485   C     0.51055   0.21150   0.59406   0.00000  Uiso   1.00
C486   C     0.48945   0.12183   0.90594   0.00000  Uiso   1.00
C487   C     0.51173   0.21266   0.54769   0.00000  Uiso   1.00
C488   C     0.48827   0.12068   0.95231   0.00000  Uiso   1.00
C489   C     0.49911   0.16612   0.52347   0.00000  Uiso   1.00
C490   C     0.50089   0.16721   0.97653   0.00000  Uiso   1.00
C491   C     0.48484   0.11850   0.54612   0.00000  Uiso   1.00
C492   C     0.48475   0.06844   0.75121   0.00000  Uiso   1.00
C493   C     0.51516   0.21484   0.95388   0.00000  Uiso   1.00
C494   C     0.52579   0.25959   0.52532   0.00000  Uiso   1.00
C495   C     0.47421   0.07375   0.97468   0.00000  Uiso   1.00
C496   C     0.52751   0.26073   0.97868   0.00000  Uiso   1.00
C497   C     0.47249   0.07260   0.52132   0.00000  Uiso   1.00
C498   C     0.52328   0.31941   0.74815   0.00000  Uiso   1.00
C499   C     0.47672   0.01392   0.75185   0.00000  Uiso   1.00
C500   C     0.50092   0.16710   0.83630   0.00000  Uiso   1.00
C501   C     0.49908   0.16623   0.66370   0.00000  Uiso   1.00
C502   C     0.48353   0.11762   0.59304   0.00000  Uiso   1.00
H503   H     0.52068   0.24695   0.61316   0.00000  Uiso   1.00
H504   H     0.66215   0.20578   0.78395   0.00000  Uiso   1.00
H505   H     0.46979   0.07533   0.64765   0.00000  Uiso   1.00
H506   H     0.53021   0.25800   0.85235   0.00000  Uiso   1.00
H507   H     0.47932   0.08638   0.88684   0.00000  Uiso   1.00
H508   H     0.53557   0.29538   0.54390   0.00000  Uiso   1.00
H509   H     0.46443   0.03795   0.95610   0.00000  Uiso   1.00
H510   H     0.53856   0.29764   0.96224   0.00000  Uiso   1.00
H511   H     0.46144   0.03570   0.53776   0.00000  Uiso   1.00
H512   H     0.56724   0.00311   0.74467   0.00000  Uiso   1.00
H513   H     0.43276   0.33022   0.75533   0.00000  Uiso   1.00
H514   H     0.33785   0.12755   0.71605   0.00000  Uiso   1.00
N515   N     0.65011   0.15265   0.73783   0.00000  Uiso   1.00
N516   N     0.34989   0.18068   0.76217   0.00000  Uiso   1.00
O517   O     0.46308   0.24619   0.75298   0.00000  Uiso   1.00
O518   O     0.53004   0.26274   0.88538   0.00000  Uiso   1.00
O519   O     0.53692   0.08714   0.74702   0.00000  Uiso   1.00
O520   O     0.55946   0.23721   0.74519   0.00000  Uiso   1.00
O521   O     0.44054   0.09613   0.75481   0.00000  Uiso   1.00
O522   O     0.45181   0.17117   0.81997   0.00000  Uiso   1.00
O523   O     0.54819   0.16216   0.68003   0.00000  Uiso   1.00
O524   O     0.54819   0.16219   0.81217   0.00000  Uiso   1.00
O525   O     0.45181   0.17115   0.68782   0.00000  Uiso   1.00
O526   O     0.46996   0.07060   0.61462   0.00000  Uiso   1.00
Zn527  Zn    0.43565   0.17266   0.75521   0.00000  Uiso   1.00
Zn528  Zn    0.56435   0.16067   0.74479   0.00000  Uiso   1.00
C529   C     0.84859   0.26489   0.74879   0.00000  Uiso   1.00
C530   C     0.84980   0.21571   0.90696   0.00000  Uiso   1.00
C531   C     0.83025   0.16475   0.61622   0.00000  Uiso   1.00
C532   C     0.83642   0.16858   0.88378   0.00000  Uiso   1.00
C533   C     0.84388   0.21150   0.59406   0.00000  Uiso   1.00
C534   C     0.82278   0.12183   0.90594   0.00000  Uiso   1.00
C535   C     0.84507   0.21266   0.54769   0.00000  Uiso   1.00
C536   C     0.82160   0.12068   0.95231   0.00000  Uiso   1.00
C537   C     0.83244   0.16612   0.52347   0.00000  Uiso   1.00
C538   C     0.83422   0.16721   0.97653   0.00000  Uiso   1.00
C539   C     0.81818   0.11850   0.54612   0.00000  Uiso   1.00
C540   C     0.81808   0.06844   0.75121   0.00000  Uiso   1.00
C541   C     0.84849   0.21484   0.95388   0.00000  Uiso   1.00
C542   C     0.85912   0.25959   0.52532   0.00000  Uiso   1.00
C543   C     0.80754   0.07375   0.97468   0.00000  Uiso   1.00
C544   C     0.86084   0.26073   0.97868   0.00000  Uiso   1.00
C545   C     0.80582   0.07260   0.52132   0.00000  Uiso   1.00
C546   C     0.85661   0.31941   0.74815   0.00000  Uiso   1.00
C547   C     0.81006   0.01392   0.75185   0.00000  Uiso   1.00
C548   C     0.83425   0.16710   0.83630   0.00000  Uiso   1.00
C549   C     0.83242   0.16623   0.66370   0.00000  Uiso   1.00
C550   C     0.81686   0.11762   0.59304   0.00000  Uiso   1.00
H551   H     0.85401   0.24695   0.61316   0.00000  Uiso   1.00
H552   H     0.99548   0.20578   0.78395   0.00000  Uiso   1.00
H553   H     0.80313   0.07533   0.64765   0.00000  Uiso   1.00
H554   H     0.86354   0.25800   0.85235   0.00000  Uiso   1.00
H555   H     0.81265   0.08638   0.88684   0.00000  Uiso   1.00
H556   H     0.86890   0.29538   0.54390   0.00000  Uiso   1.00
H557   H     0.79777   0.03795   0.95610   0.00000  Uiso   1.00
H558   H     0.87190   0.29764   0.96224   0.00000  Uiso   1.00
H559   H     0.79477   0.03570   0.53776   0.00000  Uiso   1.00
H560   H     0.90058   0.00311   0.74467   0.00000  Uiso   1.00
H561   H     0.76609   0.33022   0.75533   0.00000  Uiso   1.00
H562   H     0.67119   0.12755   0.71605   0.00000  Uiso   1.00
N563   N     0.98344   0.15265   0.73783   0.00000  Uiso   1.00
N564   N     0.68322   0.18068   0.76217   0.00000  Uiso   1.00
O565   O     0.79642   0.24619   0.75298   0.00000  Uiso   1.00
O566   O     0.86337   0.26274   0.88538   0.00000  Uiso   1.00
O567   O     0.87025   0.08714   0.74702   0.00000  Uiso   1.00
O568   O     0.89280   0.23721   0.74519   0.00000  Uiso   1.00
O569   O     0.77387   0.09613   0.75481   0.00000  Uiso   1.00
O570   O     0.78514   0.17117   0.81997   0.00000  Uiso   1.00
O571   O     0.88153   0.16216   0.68003   0.00000  Uiso   1.00
O572   O     0.88152   0.16219   0.81217   0.00000  Uiso   1.00
O573   O     0.78515   0.17115   0.68782   0.00000  Uiso   1.00
O574   O     0.80329   0.07060   0.61462   0.00000  Uiso   1.00
Zn575  Zn    0.76898   0.17266   0.75521   0.00000  Uiso   1.00
Zn576  Zn    0.89769   0.16067   0.74479   0.00000  Uiso   1.00
C577   C     0.18192   0.59823   0.74879   0.00000  Uiso   1.00
C578   C     0.18314   0.54904   0.90696   0.00000  Uiso   1.00
C579   C     0.16358   0.49808   0.61622   0.00000  Uiso   1.00
C580   C     0.16975   0.50192   0.88378   0.00000  Uiso   1.00
C581   C     0.17722   0.54484   0.59406   0.00000  Uiso   1.00
C582   C     0.15612   0.45516   0.90594   0.00000  Uiso   1.00
C583   C     0.17840   0.54599   0.54769   0.00000  Uiso   1.00
C584   C     0.15493   0.45401   0.95231   0.00000  Uiso   1.00
C585   C     0.16578   0.49945   0.52347   0.00000  Uiso   1.00
C586   C     0.16756   0.50055   0.97653   0.00000  Uiso   1.00
C587   C     0.15151   0.45183   0.54612   0.00000  Uiso   1.00
C588   C     0.15142   0.40177   0.75121   0.00000  Uiso   1.00
C589   C     0.18182   0.54817   0.95388   0.00000  Uiso   1.00
C590   C     0.19246   0.59292   0.52532   0.00000  Uiso   1.00
C591   C     0.14088   0.40708   0.97468   0.00000  Uiso   1.00
C592   C     0.19418   0.59406   0.97868   0.00000  Uiso   1.00
C593   C     0.13916   0.40594   0.52132   0.00000  Uiso   1.00
C594   C     0.18994   0.65274   0.74815   0.00000  Uiso   1.00
C595   C     0.14339   0.34726   0.75185   0.00000  Uiso   1.00
C596   C     0.16758   0.50043   0.83630   0.00000  Uiso   1.00
C597   C     0.16575   0.49957   0.66370   0.00000  Uiso   1.00
C598   C     0.15020   0.45096   0.59304   0.00000  Uiso   1.00
H599   H     0.18735   0.58028   0.61316   0.00000  Uiso   1.00
H600   H     0.32881   0.53912   0.78395   0.00000  Uiso   1.00
H601   H     0.13646   0.40866   0.64765   0.00000  Uiso   1.00
H602   H     0.19687   0.59134   0.85235   0.00000  Uiso   1.00
H603   H     0.14599   0.41972   0.88684   0.00000  Uiso   1.00
H604   H     0.20223   0.62872   0.54390   0.00000  Uiso   1.00
H605   H     0.13110   0.37128   0.95610   0.00000  Uiso   1.00
H606   H     0.20523   0.63097   0.96224   0.00000  Uiso   1.00
H607   H     0.12810   0.36903   0.53776   0.00000  Uiso   1.00
H608   H     0.23391   0.33644   0.74467   0.00000  Uiso   1.00
H609   H     0.09943   0.66356   0.75533   0.00000  Uiso   1.00
H610   H     0.00452   0.46088   0.71605   0.00000  Uiso   1.00
N611   N     0.31678   0.48598   0.73783   0.00000  Uiso   1.00
N612   N     0.01656   0.51402   0.76217   0.00000  Uiso   1.00
O613   O     0.12975   0.57952   0.75298   0.00000  Uiso   1.00
O614   O     0.19671   0.59607   0.88538   0.00000  Uiso   1.00
O615   O     0.20358   0.42048   0.74702   0.00000  Uiso   1.00
O616   O     0.22613   0.57054   0.74519   0.00000  Uiso   1.00
O617   O     0.10720   0.42946   0.75481   0.00000  Uiso   1.00
O618   O     0.11847   0.50450   0.81997   0.00000  Uiso   1.00
O619   O     0.21486   0.49550   0.68003   0.00000  Uiso   1.00
O620   O     0.21485   0.49552   0.81217   0.00000  Uiso   1.00
O621   O     0.11848   0.50448   0.68782   0.00000  Uiso   1.00
O622   O     0.13663   0.40393   0.61462   0.00000  Uiso   1.00
Zn623  Zn    0.10231   0.50600   0.75521   0.00000  Uiso   1.00
Zn624  Zn    0.23102   0.49400   0.74479   0.00000  Uiso   1.00
C625   C     0.51525   0.59823   0.74879   0.00000  Uiso   1.00
C626   C     0.51647   0.54904   0.90696   0.00000  Uiso   1.00
C627   C     0.49692   0.49808   0.61622   0.00000  Uiso   1.00
C628   C     0.50308   0.50192   0.88378   0.00000  Uiso   1.00
C629   C     0.51055   0.54484   0.59406   0.00000  Uiso   1.00
C630   C     0.48945   0.45516   0.90594   0.00000  Uiso   1.00
C631   C     0.51173   0.54599   0.54769   0.00000  Uiso   1.00
C632   C     0.48827   0.45401   0.95231   0.00000  Uiso   1.00
C633   C     0.49911   0.49945   0.52347   0.00000  Uiso   1.00
C634   C     0.50089   0.50055   0.97653   0.00000  Uiso   1.00
C635   C     0.48484   0.45183   0.54612   0.00000  Uiso   1.00
C636   C     0.48475   0.40177   0.75121   0.00000  Uiso   1.00
C637   C     0.51516   0.54817   0.95388   0.00000  Uiso   1.00
C638   C     0.52579   0.59292   0.52532   0.00000  Uiso   1.00
C639   C     0.47421   0.40708   0.97468   0.00000  Uiso   1.00
C640   C     0.52751   0.59406   0.97868   0.00000  Uiso   1.00
C641   C     0.47249   0.40594   0.52132   0.00000  Uiso   1.00
C642   C     0.52328   0.65274   0.74815   0.00000  Uiso   1.00
C643   C     0.47672   0.34726   0.75185   0.00000  Uiso   1.00
C644   C     0.50092   0.50043   0.83630   0.00000  Uiso   1.00
C645   C     0.49908   0.49957   0.66370   0.00000  Uiso   1.00
C646   C     0.48353   0.45096   0.59304   0.00000  Uiso   1.00
H647   H     0.52068   0.58028   0.61316   0.00000  Uiso   1.00
H648   H     0.66215   0.53912   0.78395   0.00000  Uiso   1.00
H649   H     0.46979   0.40866   0.64765   0.00000  Uiso   1.00
H650   H     0.53021   0.59134   0.85235   0.00000  Uiso   1.00
H651   H     0.47932   0.41972   0.88684   0.00000  Uiso   1.00
H652   H     0.53557   0.62872   0.54390   0.00000  Uiso   1.00
H653   H     0.46443   0.37128   0.95610   0.00000  Uiso   1.00
H654   H     0.53856   0.63097   0.96224   0.00000  Uiso   1.00
H655   H     0.46144   0.36903   0.53776   0.00000  Uiso   1.00
H656   H     0.56724   0.33644   0.74467   0.00000  Uiso   1.00
H657   H     0.43276   0.66356   0.75533   0.00000  Uiso   1.00
H658   H     0.33785   0.46088   0.71605   0.00000  Uiso   1.00
N659   N     0.65011   0.48598   0.73783   0.00000  Uiso   1.00
N660   N     0.34989   0.51402   0.76217   0.00000  Uiso   1.00
O661   O     0.46308   0.57952   0.75298   0.00000  Uiso   1.00
O662   O     0.53004   0.59607   0.88538   0.00000  Uiso   1.00
O663   O     0.53692   0.42048   0.74702   0.00000  Uiso   1.00
O664   O     0.55946   0.57054   0.74519   0.00000  Uiso   1.00
O665   O     0.44054   0.42946   0.75481   0.00000  Uiso   1.00
O666   O     0.45181   0.50450   0.81997   0.00000  Uiso   1.00
O667   O     0.54819   0.49550   0.68003   0.00000  Uiso   1.00
O668   O     0.54819   0.49552   0.81217   0.00000  Uiso   1.00
O669   O     0.45181   0.50448   0.68782   0.00000  Uiso   1.00
O670   O     0.46996   0.40393   0.61462   0.00000  Uiso   1.00
Zn671  Zn    0.43565   0.50600   0.75521   0.00000  Uiso   1.00
Zn672  Zn    0.56435   0.49400   0.74479   0.00000  Uiso   1.00
C673   C     0.84859   0.59823   0.74879   0.00000  Uiso   1.00
C674   C     0.84980   0.54904   0.90696   0.00000  Uiso   1.00
C675   C     0.83025   0.49808   0.61622   0.00000  Uiso   1.00
C676   C     0.83642   0.50192   0.88378   0.00000  Uiso   1.00
C677   C     0.84388   0.54484   0.59406   0.00000  Uiso   1.00
C678   C     0.82278   0.45516   0.90594   0.00000  Uiso   1.00
C679   C     0.84507   0.54599   0.54769   0.00000  Uiso   1.00
C680   C     0.82160   0.45401   0.95231   0.00000  Uiso   1.00
C681   C     0.83244   0.49945   0.52347   0.00000  Uiso   1.00
C682   C     0.83422   0.50055   0.97653   0.00000  Uiso   1.00
C683   C     0.81818   0.45183   0.54612   0.00000  Uiso   1.00
C684   C     0.81808   0.40177   0.75121   0.00000  Uiso   1.00
C685   C     0.84849   0.54817   0.95388   0.00000  Uiso   1.00
C686   C     0.85912   0.59292   0.52532   0.00000  Uiso   1.00
C687   C     0.80754   0.40708   0.97468   0.00000  Uiso   1.00
C688   C     0.86084   0.59406   0.97868   0.00000  Uiso   1.00
C689   C     0.80582   0.40594   0.52132   0.00000  Uiso   1.00
C690   C     0.85661   0.65274   0.74815   0.00000  Uiso   1.00
C691   C     0.81006   0.34726   0.75185   0.00000  Uiso   1.00
C692   C     0.83425   0.50043   0.83630   0.00000  Uiso   1.00
C693   C     0.83242   0.49957   0.66370   0.00000  Uiso   1.00
C694   C     0.81686   0.45096   0.59304   0.00000  Uiso   1.00
H695   H     0.85401   0.58028   0.61316   0.00000  Uiso   1.00
H696   H     0.99548   0.53912   0.78395   0.00000  Uiso   1.00
H697   H     0.80313   0.40866   0.64765   0.00000  Uiso   1.00
H698   H     0.86354   0.59134   0.85235   0.00000  Uiso   1.00
H699   H     0.81265   0.41972   0.88684   0.00000  Uiso   1.00
H700   H     0.86890   0.62872   0.54390   0.00000  Uiso   1.00
H701   H     0.79777   0.37128   0.95610   0.00000  Uiso   1.00
H702   H     0.87190   0.63097   0.96224   0.00000  Uiso   1.00
H703   H     0.79477   0.36903   0.53776   0.00000  Uiso   1.00
H704   H     0.90058   0.33644   0.74467   0.00000  Uiso   1.00
H705   H     0.76609   0.66356   0.75533   0.00000  Uiso   1.00
H706   H     0.67119   0.46088   0.71605   0.00000  Uiso   1.00
N707   N     0.98344   0.48598   0.73783   0.00000  Uiso   1.00
N708   N     0.68322   0.51402   0.76217   0.00000  Uiso   1.00
O709   O     0.79642   0.57952   0.75298   0.00000  Uiso   1.00
O710   O     0.86337   0.59607   0.88538   0.00000  Uiso   1.00
O711   O     0.87025   0.42048   0.74702   0.00000  Uiso   1.00
O712   O     0.89280   0.57054   0.74519   0.00000  Uiso   1.00
O713   O     0.77387   0.42946   0.75481   0.00000  Uiso   1.00
O714   O     0.78514   0.50450   0.81997   0.00000  Uiso   1.00
O715   O     0.88153   0.49550   0.68003   0.00000  Uiso   1.00
O716   O     0.88152   0.49552   0.81217   0.00000  Uiso   1.00
O717   O     0.78515   0.50448   0.68782   0.00000  Uiso   1.00
O718   O     0.80329   0.40393   0.61462   0.00000  Uiso   1.00
Zn719  Zn    0.76898   0.50600   0.75521   0.00000  Uiso   1.00
Zn720  Zn    0.89769   0.49400   0.74479   0.00000  Uiso   1.00
C721   C     0.18192   0.93156   0.74879   0.00000  Uiso   1.00
C722   C     0.18314   0.88238   0.90696   0.00000  Uiso   1.00
C723   C     0.16358   0.83142   0.61622   0.00000  Uiso   1.00
C724   C     0.16975   0.83525   0.88378   0.00000  Uiso   1.00
C725   C     0.17722   0.87817   0.59406   0.00000  Uiso   1.00
C726   C     0.15612   0.78850   0.90594   0.00000  Uiso   1.00
C727   C     0.17840   0.87932   0.54769   0.00000  Uiso   1.00
C728   C     0.15493   0.78734   0.95231   0.00000  Uiso   1.00
C729   C     0.16578   0.83279   0.52347   0.00000  Uiso   1.00
C730   C     0.16756   0.83388   0.97653   0.00000  Uiso   1.00
C731   C     0.15151   0.78516   0.54612   0.00000  Uiso   1.00
C732   C     0.15142   0.73511   0.75121   0.00000  Uiso   1.00
C733   C     0.18182   0.88150   0.95388   0.00000  Uiso   1.00
C734   C     0.19246   0.92625   0.52532   0.00000  Uiso   1.00
C735   C     0.14088   0.74041   0.97468   0.00000  Uiso   1.00
C736   C     0.19418   0.92740   0.97868   0.00000  Uiso   1.00
C737   C     0.13916   0.73927   0.52132   0.00000  Uiso   1.00
C738   C     0.18994   0.98608   0.74815   0.00000  Uiso   1.00
C739   C     0.14339   0.68059   0.75185   0.00000  Uiso   1.00
C740   C     0.16758   0.83377   0.83630   0.00000  Uiso   1.00
C741   C     0.16575   0.83290   0.66370   0.00000  Uiso   1.00
C742   C     0.15020   0.78429   0.59304   0.00000  Uiso   1.00
H743   H     0.18735   0.91362   0.61316   0.00000  Uiso   1.00
H744   H     0.32881   0.87245   0.78395   0.00000  Uiso   1.00
H745   H     0.13646   0.74200   0.64765   0.00000  Uiso   1.00
H746   H     0.19687   0.92467   0.85235   0.00000  Uiso   1.00
H747   H     0.14599   0.75305   0.88684   0.00000  Uiso   1.00
H748   H     0.20223   0.96205   0.54390   0.00000  Uiso   1.00
H749   H     0.13110   0.70461   0.95610   0.00000  Uiso   1.00
H750   H     0.20523   0.96430   0.96224   0.00000  Uiso   1.00
H751   H     0.12810   0.70236   0.53776   0.00000  Uiso   1.00
H752   H     0.23391   0.66978   0.74467   0.00000  Uiso   1.00
H753   H     0.09943   0.99689   0.75533   0.00000  Uiso   1.00
H754   H     0.00452   0.79422   0.71605   0.00000  Uiso   1.00
N755   N     0.31678   0.81932   0.73783   0.00000  Uiso   1.00
N756   N     0.01656   0.84735   0.76217   0.00000  Uiso   1.00
O757   O     0.12975   0.91286   0.75298   0.00000  Uiso   1.00
O758   O     0.19671   0.92940   0.88538   0.00000  Uiso   1.00
O759   O     0.20358   0.75381   0.74702   0.00000  Uiso   1.00
O760   O     0.22613   0.90387   0.74519   0.00000  Uiso   1.00
O761   O     0.10720   0.76279   0.75481   0.00000  Uiso   1.00
O762   O     0.11847   0.83784   0.81997   0.00000  Uiso   1.00
O763   O     0.21486   0.82883   0.68003   0.00000  Uiso   1.00
O764   O     0.21485   0.82885   0.81217   0.00000  Uiso   1.00
O765   O     0.11848   0.83781   0.68782   0.00000  Uiso   1.00
O766   O     0.13663   0.73726   0.61462   0.00000  Uiso   1.00
Zn767  Zn    0.10231   0.83933   0.75521   0.00000  Uiso   1.00
Zn768  Zn    0.23102   0.82734   0.74479   0.00000  Uiso   1.00
C769   C     0.51525   0.93156   0.74879   0.00000  Uiso   1.00
C770   C     0.51647   0.88238   0.90696   0.00000  Uiso   1.00
C771   C     0.49692   0.83142   0.61622   0.00000  Uiso   1.00
C772   C     0.50308   0.83525   0.88378   0.00000  Uiso   1.00
C773   C     0.51055   0.87817   0.59406   0.00000  Uiso   1.00
C774   C     0.48945   0.78850   0.90594   0.00000  Uiso   1.00
C775   C     0.51173   0.87932   0.54769   0.00000  Uiso   1.00
C776   C     0.48827   0.78734   0.95231   0.00000  Uiso   1.00
C777   C     0.49911   0.83279   0.52347   0.00000  Uiso   1.00
C778   C     0.50089   0.83388   0.97653   0.00000  Uiso   1.00
C779   C     0.48484   0.78516   0.54612   0.00000  Uiso   1.00
C780   C     0.48475   0.73511   0.75121   0.00000  Uiso   1.00
C781   C     0.51516   0.88150   0.95388   0.00000  Uiso   1.00
C782   C     0.52579   0.92625   0.52532   0.00000  Uiso   1.00
C783   C     0.47421   0.74041   0.97468   0.00000  Uiso   1.00
C784   C     0.52751   0.92740   0.97868   0.00000  Uiso   1.00
C785   C     0.47249   0.73927   0.52132   0.00000  Uiso   1.00
C786   C     0.52328   0.98608   0.74815   0.00000  Uiso   1.00
C787   C     0.47672   0.68059   0.75185   0.00000  Uiso   1.00
C788   C     0.50092   0.83377   0.83630   0.00000  Uiso   1.00
C789   C     0.49908   0.83290   0.66370   0.00000  Uiso   1.00
C790   C     0.48353   0.78429   0.59304   0.00000  Uiso   1.00
H791   H     0.52068   0.91362   0.61316   0.00000  Uiso   1.00
H792   H     0.66215   0.87245   0.78395   0.00000  Uiso   1.00
H793   H     0.46979   0.74200   0.64765   0.00000  Uiso   1.00
H794   H     0.53021   0.92467   0.85235   0.00000  Uiso   1.00
H795   H     0.47932   0.75305   0.88684   0.00000  Uiso   1.00
H796   H     0.53557   0.96205   0.54390   0.00000  Uiso   1.00
H797   H     0.46443   0.70461   0.95610   0.00000  Uiso   1.00
H798   H     0.53856   0.96430   0.96224   0.00000  Uiso   1.00
H799   H     0.46144   0.70236   0.53776   0.00000  Uiso   1.00
H800   H     0.56724   0.66978   0.74467   0.00000  Uiso   1.00
H801   H     0.43276   0.99689   0.75533   0.00000  Uiso   1.00
H802   H     0.33785   0.79422   0.71605   0.00000  Uiso   1.00
N803   N     0.65011   0.81932   0.73783   0.00000  Uiso   1.00
N804   N     0.34989   0.84735   0.76217   0.00000  Uiso   1.00
O805   O     0.46308   0.91286   0.75298   0.00000  Uiso   1.00
O806   O     0.53004   0.92940   0.88538   0.00000  Uiso   1.00
O807   O     0.53692   0.75381   0.74702   0.00000  Uiso   1.00
O808   O     0.55946   0.90387   0.74519   0.00000  Uiso   1.00
O809   O     0.44054   0.76279   0.75481   0.00000  Uiso   1.00
O810   O     0.45181   0.83784   0.81997   0.00000  Uiso   1.00
O811   O     0.54819   0.82883   0.68003   0.00000  Uiso   1.00
O812   O     0.54819   0.82885   0.81217   0.00000  Uiso   1.00
O813   O     0.45181   0.83781   0.68782   0.00000  Uiso   1.00
O814   O     0.46996   0.73726   0.61462   0.00000  Uiso   1.00
Zn815  Zn    0.43565   0.83933   0.75521   0.00000  Uiso   1.00
Zn816  Zn    0.56435   0.82734   0.74479   0.00000  Uiso   1.00
C817   C     0.84859   0.93156   0.74879   0.00000  Uiso   1.00
C818   C     0.84980   0.88238   0.90696   0.00000  Uiso   1.00
C819   C     0.83025   0.83142   0.61622   0.00000  Uiso   1.00
C820   C     0.83642   0.83525   0.88378   0.00000  Uiso   1.00
C821   C     0.84388   0.87817   0.59406   0.00000  Uiso   1.00
C822   C     0.82278   0.78850   0.90594   0.00000  Uiso   1.00
C823   C     0.84507   0.87932   0.54769   0.00000  Uiso   1.00
C824   C     0.82160   0.78734   0.95231   0.00000  Uiso   1.00
C825   C     0.83244   0.83279   0.52347   0.00000  Uiso   1.00
C826   C     0.83422   0.83388   0.97653   0.00000  Uiso   1.00
C827   C     0.81818   0.78516   0.54612   0.00000  Uiso   1.00
C828   C     0.81808   0.73511   0.75121   0.00000  Uiso   1.00
C829   C     0.84849   0.88150   0.95388   0.00000  Uiso   1.00
C830   C     0.85912   0.92625   0.52532   0.00000  Uiso   1.00
C831   C     0.80754   0.74041   0.97468   0.00000  Uiso   1.00
C832   C     0.86084   0.92740   0.97868   0.00000  Uiso   1.00
C833   C     0.80582   0.73927   0.52132   0.00000  Uiso   1.00
C834   C     0.85661   0.98608   0.74815   0.00000  Uiso   1.00
C835   C     0.81006   0.68059   0.75185   0.00000  Uiso   1.00
C836   C     0.83425   0.83377   0.83630   0.00000  Uiso   1.00
C837   C     0.83242   0.83290   0.66370   0.00000  Uiso   1.00
C838   C     0.81686   0.78429   0.59304   0.00000  Uiso   1.00
H839   H     0.85401   0.91362   0.61316   0.00000  Uiso   1.00
H840   H     0.99548   0.87245   0.78395   0.00000  Uiso   1.00
H841   H     0.80313   0.74200   0.64765   0.00000  Uiso   1.00
H842   H     0.86354   0.92467   0.85235   0.00000  Uiso   1.00
H843   H     0.81265   0.75305   0.88684   0.00000  Uiso   1.00
H844   H     0.86890   0.96205   0.54390   0.00000  Uiso   1.00
H845   H     0.79777   0.70461   0.95610   0.00000  Uiso   1.00
H846   H     0.87190   0.96430   0.96224   0.00000  Uiso   1.00
H847   H     0.79477   0.70236   0.53776   0.00000  Uiso   1.00
H848   H     0.90058   0.66978   0.74467   0.00000  Uiso   1.00
H849   H     0.76609   0.99689   0.75533   0.00000  Uiso   1.00
H850   H     0.67119   0.79422   0.71605   0.00000  Uiso   1.00
N851   N     0.98344   0.81932   0.73783   0.00000  Uiso   1.00
N852   N     0.68322   0.84735   0.76217   0.00000  Uiso   1.00
O853   O     0.79642   0.91286   0.75298   0.00000  Uiso   1.00
O854   O     0.86337   0.92940   0.88538   0.00000  Uiso   1.00
O855   O     0.87025   0.75381   0.74702   0.00000  Uiso   1.00
O856   O     0.89280   0.90387   0.74519   0.00000  Uiso   1.00
O857   O     0.77387   0.76279   0.75481   0.00000  Uiso   1.00
O858   O     0.78514   0.83784   0.81997   0.00000  Uiso   1.00
O859   O     0.88153   0.82883   0.68003   0.00000  Uiso   1.00
O860   O     0.88152   0.82885   0.81217   0.00000  Uiso   1.00
O861   O     0.78515   0.83781   0.68782   0.00000  Uiso   1.00
O862   O     0.80329   0.73726   0.61462   0.00000  Uiso   1.00
Zn863  Zn    0.76898   0.83933   0.75521   0.00000  Uiso   1.00
Zn864  Zn    0.89769   0.82734   0.74479   0.00000  Uiso   1.00
loop_
_geom_bond_atom_site_label_1
_geom_bond_atom_site_label_2
_geom_bond_distance
_geom_bond_site_symmetry_2
_ccdc_geom_bond_type
C1     O37     1.278   .     A
C1     C18     1.401   .     S
C1     O40     1.287   .     A
C2     C4      1.411   .     A
C2     O38     1.387   .     S
C2     C13     1.395   .     A
C3     C21     1.418   .     S
C3     C22     1.411   .     A
C3     C5      1.389   .     A
C4     C20     1.418   .     S
C4     C6      1.389   .     A
C5     C7      1.379   .     A
C5     H23     1.086   .     S
C6     C8      1.379   .     A
C6     H27     1.086   .     S
C7     C9      1.410   .     A
C7     C14     1.398   .     A
C8     C10     1.410   .     A
C8     C15     1.398   .     A
C9     C11     1.417   .     A
C9     C442    1.396   1_554 S
C10    C13     1.417   .     A
C10    C441    1.396   .     S
C11    C22     1.395   .     A
C11    C17     1.404   .     A
C12    O41     1.287   .     A
C12    O39     1.278   .     A
C12    C19     1.401   .     S
C13    C16     1.404   .     A
C14    H28     1.084   .     S
C14    C448    1.387   1_554 S
C15    H29     1.084   .     S
C15    C449    1.387   .     S
C16    H30     1.083   .     S
C16    C446    1.387   .     S
C17    H31     1.083   .     S
C17    C447    1.387   1_554 S
C18    C163    1.335   .     S
C18    H176    1.088   .     S
C19    C306    1.335   1_545 S
C19    H321    1.088   1_545 S
C20    O42     1.286   .     A
C20    O44     1.286   .     A
C21    O45     1.286   .     A
C21    O43     1.286   .     A
C22    O46     1.387   .     S
H24    N84     1.029   .     S
H25    O46     0.988   .     S
H26    O38     0.988   .     S
H32    C306    1.088   1_545 S
H33    C163    1.088   .     S
H34    N131    1.029   1_455 S
N35    Zn48    2.020   .     S
N35    H82     1.029   .     S
N35    N84     1.275   .     S
N36    Zn47    2.020   .     S
N36    N131    1.275   1_455 S
N36    H120    1.029   1_455 S
O37    Zn47    1.956   .     S
O39    Zn48    1.956   .     S
O40    Zn48    1.976   .     S
O41    Zn47    1.976   .     S
O42    Zn47    1.991   .     S
O43    Zn48    1.991   .     S
O44    Zn48    2.016   .     S
O45    Zn47    2.016   .     S
C49    O85     1.278   .     A
C49    C66     1.401   .     S
C49    O88     1.287   .     A
C50    C52     1.411   .     A
C50    O86     1.387   .     S
C50    C61     1.395   .     A
C51    C69     1.418   .     S
C51    C70     1.411   .     A
C51    C53     1.389   .     A
C52    C68     1.418   .     S
C52    C54     1.389   .     A
C53    C55     1.379   .     A
C53    H71     1.086   .     S
C54    C56     1.379   .     A
C54    H75     1.086   .     S
C55    C57     1.410   .     A
C55    C62     1.398   .     A
C56    C58     1.410   .     A
C56    C63     1.398   .     A
C57    C59     1.417   .     A
C57    C490    1.396   1_554 S
C58    C61     1.417   .     A
C58    C489    1.396   .     S
C59    C70     1.395   .     A
C59    C65     1.404   .     A
C60    O89     1.287   .     A
C60    O87     1.278   .     A
C60    C67     1.401   .     S
C61    C64     1.404   .     A
C62    H76     1.084   .     S
C62    C496    1.387   1_554 S
C63    H77     1.084   .     S
C63    C497    1.387   .     S
C64    H78     1.083   .     S
C64    C494    1.387   .     S
C65    H79     1.083   .     S
C65    C495    1.387   1_554 S
C66    C211    1.335   .     S
C66    H224    1.088   .     S
C67    C354    1.335   1_545 S
C67    H369    1.088   1_545 S
C68    O90     1.286   .     A
C68    O92     1.286   .     A
C69    O93     1.286   .     A
C69    O91     1.286   .     A
C70    O94     1.387   .     S
H72    N132    1.029   .     S
H73    O94     0.988   .     S
H74    O86     0.988   .     S
H80    C354    1.088   1_545 S
H81    C211    1.088   .     S
N83    Zn96    2.020   .     S
N83    H130    1.029   .     S
N83    N132    1.275   .     S
N84    Zn95    2.020   .     S
O85    Zn95    1.956   .     S
O87    Zn96    1.956   .     S
O88    Zn96    1.976   .     S
O89    Zn95    1.976   .     S
O90    Zn95    1.991   .     S
O91    Zn96    1.991   .     S
O92    Zn96    2.016   .     S
O93    Zn95    2.016   .     S
C97    O133    1.278   .     A
C97    C114    1.401   .     S
C97    O136    1.287   .     A
C98    C100    1.411   .     A
C98    O134    1.387   .     S
C98    C109    1.395   .     A
C99    C117    1.418   .     S
C99    C118    1.411   .     A
C99    C101    1.389   .     A
C100   C116    1.418   .     S
C100   C102    1.389   .     A
C101   C103    1.379   .     A
C101   H119    1.086   .     S
C102   C104    1.379   .     A
C102   H123    1.086   .     S
C103   C105    1.410   .     A
C103   C110    1.398   .     A
C104   C106    1.410   .     A
C104   C111    1.398   .     A
C105   C107    1.417   .     A
C105   C538    1.396   1_554 S
C106   C109    1.417   .     A
C106   C537    1.396   .     S
C107   C118    1.395   .     A
C107   C113    1.404   .     A
C108   O137    1.287   .     A
C108   O135    1.278   .     A
C108   C115    1.401   .     S
C109   C112    1.404   .     A
C110   H124    1.084   .     S
C110   C544    1.387   1_554 S
C111   H125    1.084   .     S
C111   C545    1.387   .     S
C112   H126    1.083   .     S
C112   C542    1.387   .     S
C113   H127    1.083   .     S
C113   C543    1.387   1_554 S
C114   C259    1.335   .     S
C114   H272    1.088   .     S
C115   C402    1.335   1_545 S
C115   H417    1.088   1_545 S
C116   O138    1.286   .     A
C116   O140    1.286   .     A
C117   O141    1.286   .     A
C117   O139    1.286   .     A
C118   O142    1.387   .     S
H120   N36     1.029   1_655 S
H121   O142    0.988   .     S
H122   O134    0.988   .     S
H128   C402    1.088   1_545 S
H129   C259    1.088   .     S
N131   Zn144   2.020   .     S
N131   H34     1.029   1_655 S
N131   N36     1.275   1_655 S
N132   Zn143   2.020   .     S
O133   Zn143   1.956   .     S
O135   Zn144   1.956   .     S
O136   Zn144   1.976   .     S
O137   Zn143   1.976   .     S
O138   Zn143   1.991   .     S
O139   Zn144   1.991   .     S
O140   Zn144   2.016   .     S
O141   Zn143   2.016   .     S
C145   O181    1.278   .     A
C145   C162    1.401   .     S
C145   O184    1.287   .     A
C146   C148    1.411   .     A
C146   O182    1.387   .     S
C146   C157    1.395   .     A
C147   C165    1.418   .     S
C147   C166    1.411   .     A
C147   C149    1.389   .     A
C148   C164    1.418   .     S
C148   C150    1.389   .     A
C149   C151    1.379   .     A
C149   H167    1.086   .     S
C150   C152    1.379   .     A
C150   H171    1.086   .     S
C151   C153    1.410   .     A
C151   C158    1.398   .     A
C152   C154    1.410   .     A
C152   C159    1.398   .     A
C153   C155    1.417   .     A
C153   C586    1.396   1_554 S
C154   C157    1.417   .     A
C154   C585    1.396   .     S
C155   C166    1.395   .     A
C155   C161    1.404   .     A
C156   O185    1.287   .     A
C156   O183    1.278   .     A
C156   C163    1.401   .     S
C157   C160    1.404   .     A
C158   H172    1.084   .     S
C158   C592    1.387   1_554 S
C159   H173    1.084   .     S
C159   C593    1.387   .     S
C160   H174    1.083   .     S
C160   C590    1.387   .     S
C161   H175    1.083   .     S
C161   C591    1.387   1_554 S
C162   C307    1.335   .     S
C162   H320    1.088   .     S
C164   O186    1.286   .     A
C164   O188    1.286   .     A
C165   O189    1.286   .     A
C165   O187    1.286   .     A
C166   O190    1.387   .     S
H168   N228    1.029   .     S
H169   O190    0.988   .     S
H170   O182    0.988   .     S
H177   C307    1.088   .     S
H178   N275    1.029   1_455 S
N179   Zn192   2.020   .     S
N179   H226    1.029   .     S
N179   N228    1.275   .     S
N180   Zn191   2.020   .     S
N180   N275    1.275   1_455 S
N180   H264    1.029   1_455 S
O181   Zn191   1.956   .     S
O183   Zn192   1.956   .     S
O184   Zn192   1.976   .     S
O185   Zn191   1.976   .     S
O186   Zn191   1.991   .     S
O187   Zn192   1.991   .     S
O188   Zn192   2.016   .     S
O189   Zn191   2.016   .     S
C193   O229    1.278   .     A
C193   C210    1.401   .     S
C193   O232    1.287   .     A
C194   C196    1.411   .     A
C194   O230    1.387   .     S
C194   C205    1.395   .     A
C195   C213    1.418   .     S
C195   C214    1.411   .     A
C195   C197    1.389   .     A
C196   C212    1.418   .     S
C196   C198    1.389   .     A
C197   C199    1.379   .     A
C197   H215    1.086   .     S
C198   C200    1.379   .     A
C198   H219    1.086   .     S
C199   C201    1.410   .     A
C199   C206    1.398   .     A
C200   C202    1.410   .     A
C200   C207    1.398   .     A
C201   C203    1.417   .     A
C201   C634    1.396   1_554 S
C202   C205    1.417   .     A
C202   C633    1.396   .     S
C203   C214    1.395   .     A
C203   C209    1.404   .     A
C204   O233    1.287   .     A
C204   O231    1.278   .     A
C204   C211    1.401   .     S
C205   C208    1.404   .     A
C206   H220    1.084   .     S
C206   C640    1.387   1_554 S
C207   H221    1.084   .     S
C207   C641    1.387   .     S
C208   H222    1.083   .     S
C208   C638    1.387   .     S
C209   H223    1.083   .     S
C209   C639    1.387   1_554 S
C210   C355    1.335   .     S
C210   H368    1.088   .     S
C212   O234    1.286   .     A
C212   O236    1.286   .     A
C213   O237    1.286   .     A
C213   O235    1.286   .     A
C214   O238    1.387   .     S
H216   N276    1.029   .     S
H217   O238    0.988   .     S
H218   O230    0.988   .     S
H225   C355    1.088   .     S
N227   Zn240   2.020   .     S
N227   H274    1.029   .     S
N227   N276    1.275   .     S
N228   Zn239   2.020   .     S
O229   Zn239   1.956   .     S
O231   Zn240   1.956   .     S
O232   Zn240   1.976   .     S
O233   Zn239   1.976   .     S
O234   Zn239   1.991   .     S
O235   Zn240   1.991   .     S
O236   Zn240   2.016   .     S
O237   Zn239   2.016   .     S
C241   O277    1.278   .     A
C241   C258    1.401   .     S
C241   O280    1.287   .     A
C242   C244    1.411   .     A
C242   O278    1.387   .     S
C242   C253    1.395   .     A
C243   C261    1.418   .     S
C243   C262    1.411   .     A
C243   C245    1.389   .     A
C244   C260    1.418   .     S
C244   C246    1.389   .     A
C245   C247    1.379   .     A
C245   H263    1.086   .     S
C246   C248    1.379   .     A
C246   H267    1.086   .     S
C247   C249    1.410   .     A
C247   C254    1.398   .     A
C248   C250    1.410   .     A
C248   C255    1.398   .     A
C249   C251    1.417   .     A
C249   C682    1.396   1_554 S
C250   C253    1.417   .     A
C250   C681    1.396   .     S
C251   C262    1.395   .     A
C251   C257    1.404   .     A
C252   O281    1.287   .     A
C252   O279    1.278   .     A
C252   C259    1.401   .     S
C253   C256    1.404   .     A
C254   H268    1.084   .     S
C254   C688    1.387   1_554 S
C255   H269    1.084   .     S
C255   C689    1.387   .     S
C256   H270    1.083   .     S
C256   C686    1.387   .     S
C257   H271    1.083   .     S
C257   C687    1.387   1_554 S
C258   C403    1.335   .     S
C258   H416    1.088   .     S
C260   O282    1.286   .     A
C260   O284    1.286   .     A
C261   O285    1.286   .     A
C261   O283    1.286   .     A
C262   O286    1.387   .     S
H264   N180    1.029   1_655 S
H265   O286    0.988   .     S
H266   O278    0.988   .     S
H273   C403    1.088   .     S
N275   Zn288   2.020   .     S
N275   H178    1.029   1_655 S
N275   N180    1.275   1_655 S
N276   Zn287   2.020   .     S
O277   Zn287   1.956   .     S
O279   Zn288   1.956   .     S
O280   Zn288   1.976   .     S
O281   Zn287   1.976   .     S
O282   Zn287   1.991   .     S
O283   Zn288   1.991   .     S
O284   Zn288   2.016   .     S
O285   Zn287   2.016   .     S
C289   O325    1.278   .     A
C289   C306    1.401   .     S
C289   O328    1.287   .     A
C290   C292    1.411   .     A
C290   O326    1.387   .     S
C290   C301    1.395   .     A
C291   C309    1.418   .     S
C291   C310    1.411   .     A
C291   C293    1.389   .     A
C292   C308    1.418   .     S
C292   C294    1.389   .     A
C293   C295    1.379   .     A
C293   H311    1.086   .     S
C294   C296    1.379   .     A
C294   H315    1.086   .     S
C295   C297    1.410   .     A
C295   C302    1.398   .     A
C296   C298    1.410   .     A
C296   C303    1.398   .     A
C297   C299    1.417   .     A
C297   C730    1.396   1_554 S
C298   C301    1.417   .     A
C298   C729    1.396   .     S
C299   C310    1.395   .     A
C299   C305    1.404   .     A
C300   O329    1.287   .     A
C300   O327    1.278   .     A
C300   C307    1.401   .     S
C301   C304    1.404   .     A
C302   H316    1.084   .     S
C302   C736    1.387   1_554 S
C303   H317    1.084   .     S
C303   C737    1.387   .     S
C304   H318    1.083   .     S
C304   C734    1.387   .     S
C305   H319    1.083   .     S
C305   C735    1.387   1_554 S
C306   C19     1.335   1_565 S
C306   H32     1.088   1_565 S
C308   O330    1.286   .     A
C308   O332    1.286   .     A
C309   O333    1.286   .     A
C309   O331    1.286   .     A
C310   O334    1.387   .     S
H312   N372    1.029   .     S
H313   O334    0.988   .     S
H314   O326    0.988   .     S
H321   C19     1.088   1_565 S
H322   N419    1.029   1_455 S
N323   Zn336   2.020   .     S
N323   H370    1.029   .     S
N323   N372    1.275   .     S
N324   Zn335   2.020   .     S
N324   N419    1.275   1_455 S
N324   H408    1.029   1_455 S
O325   Zn335   1.956   .     S
O327   Zn336   1.956   .     S
O328   Zn336   1.976   .     S
O329   Zn335   1.976   .     S
O330   Zn335   1.991   .     S
O331   Zn336   1.991   .     S
O332   Zn336   2.016   .     S
O333   Zn335   2.016   .     S
C337   O373    1.278   .     A
C337   C354    1.401   .     S
C337   O376    1.287   .     A
C338   C340    1.411   .     A
C338   O374    1.387   .     S
C338   C349    1.395   .     A
C339   C357    1.418   .     S
C339   C358    1.411   .     A
C339   C341    1.389   .     A
C340   C356    1.418   .     S
C340   C342    1.389   .     A
C341   C343    1.379   .     A
C341   H359    1.086   .     S
C342   C344    1.379   .     A
C342   H363    1.086   .     S
C343   C345    1.410   .     A
C343   C350    1.398   .     A
C344   C346    1.410   .     A
C344   C351    1.398   .     A
C345   C347    1.417   .     A
C345   C778    1.396   1_554 S
C346   C349    1.417   .     A
C346   C777    1.396   .     S
C347   C358    1.395   .     A
C347   C353    1.404   .     A
C348   O377    1.287   .     A
C348   O375    1.278   .     A
C348   C355    1.401   .     S
C349   C352    1.404   .     A
C350   H364    1.084   .     S
C350   C784    1.387   1_554 S
C351   H365    1.084   .     S
C351   C785    1.387   .     S
C352   H366    1.083   .     S
C352   C782    1.387   .     S
C353   H367    1.083   .     S
C353   C783    1.387   1_554 S
C354   C67     1.335   1_565 S
C354   H80     1.088   1_565 S
C356   O378    1.286   .     A
C356   O380    1.286   .     A
C357   O381    1.286   .     A
C357   O379    1.286   .     A
C358   O382    1.387   .     S
H360   N420    1.029   .     S
H361   O382    0.988   .     S
H362   O374    0.988   .     S
H369   C67     1.088   1_565 S
N371   Zn384   2.020   .     S
N371   H418    1.029   .     S
N371   N420    1.275   .     S
N372   Zn383   2.020   .     S
O373   Zn383   1.956   .     S
O375   Zn384   1.956   .     S
O376   Zn384   1.976   .     S
O377   Zn383   1.976   .     S
O378   Zn383   1.991   .     S
O379   Zn384   1.991   .     S
O380   Zn384   2.016   .     S
O381   Zn383   2.016   .     S
C385   O421    1.278   .     A
C385   C402    1.401   .     S
C385   O424    1.287   .     A
C386   C388    1.411   .     A
C386   O422    1.387   .     S
C386   C397    1.395   .     A
C387   C405    1.418   .     S
C387   C406    1.411   .     A
C387   C389    1.389   .     A
C388   C404    1.418   .     S
C388   C390    1.389   .     A
C389   C391    1.379   .     A
C389   H407    1.086   .     S
C390   C392    1.379   .     A
C390   H411    1.086   .     S
C391   C393    1.410   .     A
C391   C398    1.398   .     A
C392   C394    1.410   .     A
C392   C399    1.398   .     A
C393   C395    1.417   .     A
C393   C826    1.396   1_554 S
C394   C397    1.417   .     A
C394   C825    1.396   .     S
C395   C406    1.395   .     A
C395   C401    1.404   .     A
C396   O425    1.287   .     A
C396   O423    1.278   .     A
C396   C403    1.401   .     S
C397   C400    1.404   .     A
C398   H412    1.084   .     S
C398   C832    1.387   1_554 S
C399   H413    1.084   .     S
C399   C833    1.387   .     S
C400   H414    1.083   .     S
C400   C830    1.387   .     S
C401   H415    1.083   .     S
C401   C831    1.387   1_554 S
C402   C115    1.335   1_565 S
C402   H128    1.088   1_565 S
C404   O426    1.286   .     A
C404   O428    1.286   .     A
C405   O429    1.286   .     A
C405   O427    1.286   .     A
C406   O430    1.387   .     S
H408   N324    1.029   1_655 S
H409   O430    0.988   .     S
H410   O422    0.988   .     S
H417   C115    1.088   1_565 S
N419   Zn432   2.020   .     S
N419   H322    1.029   1_655 S
N419   N324    1.275   1_655 S
N420   Zn431   2.020   .     S
O421   Zn431   1.956   .     S
O423   Zn432   1.956   .     S
O424   Zn432   1.976   .     S
O425   Zn431   1.976   .     S
O426   Zn431   1.991   .     S
O427   Zn432   1.991   .     S
O428   Zn432   2.016   .     S
O429   Zn431   2.016   .     S
C433   O469    1.278   .     A
C433   C450    1.401   .     S
C433   O472    1.287   .     A
C434   C436    1.411   .     A
C434   O470    1.387   .     S
C434   C445    1.395   .     A
C435   C453    1.418   .     S
C435   C454    1.411   .     A
C435   C437    1.389   .     A
C436   C452    1.418   .     S
C436   C438    1.389   .     A
C437   C439    1.379   .     A
C437   H455    1.086   .     S
C438   C440    1.379   .     A
C438   H459    1.086   .     S
C439   C441    1.410   .     A
C439   C446    1.398   .     A
C440   C442    1.410   .     A
C440   C447    1.398   .     A
C441   C443    1.417   .     A
C442   C445    1.417   .     A
C442   C9      1.396   1_556 S
C443   C454    1.395   .     A
C443   C449    1.404   .     A
C444   O473    1.287   .     A
C444   O471    1.278   .     A
C444   C451    1.401   .     S
C445   C448    1.404   .     A
C446   H460    1.084   .     S
C447   H461    1.084   .     S
C447   C17     1.387   1_556 S
C448   H462    1.083   .     S
C448   C14     1.387   1_556 S
C449   H463    1.083   .     S
C450   C595    1.335   .     S
C450   H608    1.088   .     S
C451   C738    1.335   1_545 S
C451   H753    1.088   1_545 S
C452   O474    1.286   .     A
C452   O476    1.286   .     A
C453   O477    1.286   .     A
C453   O475    1.286   .     A
C454   O478    1.387   .     S
H456   N516    1.029   .     S
H457   O478    0.988   .     S
H458   O470    0.988   .     S
H464   C738    1.088   1_545 S
H465   C595    1.088   .     S
H466   N563    1.029   1_455 S
N467   Zn480   2.020   .     S
N467   H514    1.029   .     S
N467   N516    1.275   .     S
N468   Zn479   2.020   .     S
N468   N563    1.275   1_455 S
N468   H552    1.029   1_455 S
O469   Zn479   1.956   .     S
O471   Zn480   1.956   .     S
O472   Zn480   1.976   .     S
O473   Zn479   1.976   .     S
O474   Zn479   1.991   .     S
O475   Zn480   1.991   .     S
O476   Zn480   2.016   .     S
O477   Zn479   2.016   .     S
C481   O517    1.278   .     A
C481   C498    1.401   .     S
C481   O520    1.287   .     A
C482   C484    1.411   .     A
C482   O518    1.387   .     S
C482   C493    1.395   .     A
C483   C501    1.418   .     S
C483   C502    1.411   .     A
C483   C485    1.389   .     A
C484   C500    1.418   .     S
C484   C486    1.389   .     A
C485   C487    1.379   .     A
C485   H503    1.086   .     S
C486   C488    1.379   .     A
C486   H507    1.086   .     S
C487   C489    1.410   .     A
C487   C494    1.398   .     A
C488   C490    1.410   .     A
C488   C495    1.398   .     A
C489   C491    1.417   .     A
C490   C493    1.417   .     A
C490   C57     1.396   1_556 S
C491   C502    1.395   .     A
C491   C497    1.404   .     A
C492   O521    1.287   .     A
C492   O519    1.278   .     A
C492   C499    1.401   .     S
C493   C496    1.404   .     A
C494   H508    1.084   .     S
C495   H509    1.084   .     S
C495   C65     1.387   1_556 S
C496   H510    1.083   .     S
C496   C62     1.387   1_556 S
C497   H511    1.083   .     S
C498   C643    1.335   .     S
C498   H656    1.088   .     S
C499   C786    1.335   1_545 S
C499   H801    1.088   1_545 S
C500   O522    1.286   .     A
C500   O524    1.286   .     A
C501   O525    1.286   .     A
C501   O523    1.286   .     A
C502   O526    1.387   .     S
H504   N564    1.029   .     S
H505   O526    0.988   .     S
H506   O518    0.988   .     S
H512   C786    1.088   1_545 S
H513   C643    1.088   .     S
N515   Zn528   2.020   .     S
N515   H562    1.029   .     S
N515   N564    1.275   .     S
N516   Zn527   2.020   .     S
O517   Zn527   1.956   .     S
O519   Zn528   1.956   .     S
O520   Zn528   1.976   .     S
O521   Zn527   1.976   .     S
O522   Zn527   1.991   .     S
O523   Zn528   1.991   .     S
O524   Zn528   2.016   .     S
O525   Zn527   2.016   .     S
C529   O565    1.278   .     A
C529   C546    1.401   .     S
C529   O568    1.287   .     A
C530   C532    1.411   .     A
C530   O566    1.387   .     S
C530   C541    1.395   .     A
C531   C549    1.418   .     S
C531   C550    1.411   .     A
C531   C533    1.389   .     A
C532   C548    1.418   .     S
C532   C534    1.389   .     A
C533   C535    1.379   .     A
C533   H551    1.086   .     S
C534   C536    1.379   .     A
C534   H555    1.086   .     S
C535   C537    1.410   .     A
C535   C542    1.398   .     A
C536   C538    1.410   .     A
C536   C543    1.398   .     A
C537   C539    1.417   .     A
C538   C541    1.417   .     A
C538   C105    1.396   1_556 S
C539   C550    1.395   .     A
C539   C545    1.404   .     A
C540   O569    1.287   .     A
C540   O567    1.278   .     A
C540   C547    1.401   .     S
C541   C544    1.404   .     A
C542   H556    1.084   .     S
C543   H557    1.084   .     S
C543   C113    1.387   1_556 S
C544   H558    1.083   .     S
C544   C110    1.387   1_556 S
C545   H559    1.083   .     S
C546   C691    1.335   .     S
C546   H704    1.088   .     S
C547   C834    1.335   1_545 S
C547   H849    1.088   1_545 S
C548   O570    1.286   .     A
C548   O572    1.286   .     A
C549   O573    1.286   .     A
C549   O571    1.286   .     A
C550   O574    1.387   .     S
H552   N468    1.029   1_655 S
H553   O574    0.988   .     S
H554   O566    0.988   .     S
H560   C834    1.088   1_545 S
H561   C691    1.088   .     S
N563   Zn576   2.020   .     S
N563   H466    1.029   1_655 S
N563   N468    1.275   1_655 S
N564   Zn575   2.020   .     S
O565   Zn575   1.956   .     S
O567   Zn576   1.956   .     S
O568   Zn576   1.976   .     S
O569   Zn575   1.976   .     S
O570   Zn575   1.991   .     S
O571   Zn576   1.991   .     S
O572   Zn576   2.016   .     S
O573   Zn575   2.016   .     S
C577   O613    1.278   .     A
C577   C594    1.401   .     S
C577   O616    1.287   .     A
C578   C580    1.411   .     A
C578   O614    1.387   .     S
C578   C589    1.395   .     A
C579   C597    1.418   .     S
C579   C598    1.411   .     A
C579   C581    1.389   .     A
C580   C596    1.418   .     S
C580   C582    1.389   .     A
C581   C583    1.379   .     A
C581   H599    1.086   .     S
C582   C584    1.379   .     A
C582   H603    1.086   .     S
C583   C585    1.410   .     A
C583   C590    1.398   .     A
C584   C586    1.410   .     A
C584   C591    1.398   .     A
C585   C587    1.417   .     A
C586   C589    1.417   .     A
C586   C153    1.396   1_556 S
C587   C598    1.395   .     A
C587   C593    1.404   .     A
C588   O617    1.287   .     A
C588   O615    1.278   .     A
C588   C595    1.401   .     S
C589   C592    1.404   .     A
C590   H604    1.084   .     S
C591   H605    1.084   .     S
C591   C161    1.387   1_556 S
C592   H606    1.083   .     S
C592   C158    1.387   1_556 S
C593   H607    1.083   .     S
C594   C739    1.335   .     S
C594   H752    1.088   .     S
C596   O618    1.286   .     A
C596   O620    1.286   .     A
C597   O621    1.286   .     A
C597   O619    1.286   .     A
C598   O622    1.387   .     S
H600   N660    1.029   .     S
H601   O622    0.988   .     S
H602   O614    0.988   .     S
H609   C739    1.088   .     S
H610   N707    1.029   1_455 S
N611   Zn624   2.020   .     S
N611   H658    1.029   .     S
N611   N660    1.275   .     S
N612   Zn623   2.020   .     S
N612   N707    1.275   1_455 S
N612   H696    1.029   1_455 S
O613   Zn623   1.956   .     S
O615   Zn624   1.956   .     S
O616   Zn624   1.976   .     S
O617   Zn623   1.976   .     S
O618   Zn623   1.991   .     S
O619   Zn624   1.991   .     S
O620   Zn624   2.016   .     S
O621   Zn623   2.016   .     S
C625   O661    1.278   .     A
C625   C642    1.401   .     S
C625   O664    1.287   .     A
C626   C628    1.411   .     A
C626   O662    1.387   .     S
C626   C637    1.395   .     A
C627   C645    1.418   .     S
C627   C646    1.411   .     A
C627   C629    1.389   .     A
C628   C644    1.418   .     S
C628   C630    1.389   .     A
C629   C631    1.379   .     A
C629   H647    1.086   .     S
C630   C632    1.379   .     A
C630   H651    1.086   .     S
C631   C633    1.410   .     A
C631   C638    1.398   .     A
C632   C634    1.410   .     A
C632   C639    1.398   .     A
C633   C635    1.417   .     A
C634   C637    1.417   .     A
C634   C201    1.396   1_556 S
C635   C646    1.395   .     A
C635   C641    1.404   .     A
C636   O665    1.287   .     A
C636   O663    1.278   .     A
C636   C643    1.401   .     S
C637   C640    1.404   .     A
C638   H652    1.084   .     S
C639   H653    1.084   .     S
C639   C209    1.387   1_556 S
C640   H654    1.083   .     S
C640   C206    1.387   1_556 S
C641   H655    1.083   .     S
C642   C787    1.335   .     S
C642   H800    1.088   .     S
C644   O666    1.286   .     A
C644   O668    1.286   .     A
C645   O669    1.286   .     A
C645   O667    1.286   .     A
C646   O670    1.387   .     S
H648   N708    1.029   .     S
H649   O670    0.988   .     S
H650   O662    0.988   .     S
H657   C787    1.088   .     S
N659   Zn672   2.020   .     S
N659   H706    1.029   .     S
N659   N708    1.275   .     S
N660   Zn671   2.020   .     S
O661   Zn671   1.956   .     S
O663   Zn672   1.956   .     S
O664   Zn672   1.976   .     S
O665   Zn671   1.976   .     S
O666   Zn671   1.991   .     S
O667   Zn672   1.991   .     S
O668   Zn672   2.016   .     S
O669   Zn671   2.016   .     S
C673   O709    1.278   .     A
C673   C690    1.401   .     S
C673   O712    1.287   .     A
C674   C676    1.411   .     A
C674   O710    1.387   .     S
C674   C685    1.395   .     A
C675   C693    1.418   .     S
C675   C694    1.411   .     A
C675   C677    1.389   .     A
C676   C692    1.418   .     S
C676   C678    1.389   .     A
C677   C679    1.379   .     A
C677   H695    1.086   .     S
C678   C680    1.379   .     A
C678   H699    1.086   .     S
C679   C681    1.410   .     A
C679   C686    1.398   .     A
C680   C682    1.410   .     A
C680   C687    1.398   .     A
C681   C683    1.417   .     A
C682   C685    1.417   .     A
C682   C249    1.396   1_556 S
C683   C694    1.395   .     A
C683   C689    1.404   .     A
C684   O713    1.287   .     A
C684   O711    1.278   .     A
C684   C691    1.401   .     S
C685   C688    1.404   .     A
C686   H700    1.084   .     S
C687   H701    1.084   .     S
C687   C257    1.387   1_556 S
C688   H702    1.083   .     S
C688   C254    1.387   1_556 S
C689   H703    1.083   .     S
C690   C835    1.335   .     S
C690   H848    1.088   .     S
C692   O714    1.286   .     A
C692   O716    1.286   .     A
C693   O717    1.286   .     A
C693   O715    1.286   .     A
C694   O718    1.387   .     S
H696   N612    1.029   1_655 S
H697   O718    0.988   .     S
H698   O710    0.988   .     S
H705   C835    1.088   .     S
N707   Zn720   2.020   .     S
N707   H610    1.029   1_655 S
N707   N612    1.275   1_655 S
N708   Zn719   2.020   .     S
O709   Zn719   1.956   .     S
O711   Zn720   1.956   .     S
O712   Zn720   1.976   .     S
O713   Zn719   1.976   .     S
O714   Zn719   1.991   .     S
O715   Zn720   1.991   .     S
O716   Zn720   2.016   .     S
O717   Zn719   2.016   .     S
C721   O757    1.278   .     A
C721   C738    1.401   .     S
C721   O760    1.287   .     A
C722   C724    1.411   .     A
C722   O758    1.387   .     S
C722   C733    1.395   .     A
C723   C741    1.418   .     S
C723   C742    1.411   .     A
C723   C725    1.389   .     A
C724   C740    1.418   .     S
C724   C726    1.389   .     A
C725   C727    1.379   .     A
C725   H743    1.086   .     S
C726   C728    1.379   .     A
C726   H747    1.086   .     S
C727   C729    1.410   .     A
C727   C734    1.398   .     A
C728   C730    1.410   .     A
C728   C735    1.398   .     A
C729   C731    1.417   .     A
C730   C733    1.417   .     A
C730   C297    1.396   1_556 S
C731   C742    1.395   .     A
C731   C737    1.404   .     A
C732   O761    1.287   .     A
C732   O759    1.278   .     A
C732   C739    1.401   .     S
C733   C736    1.404   .     A
C734   H748    1.084   .     S
C735   H749    1.084   .     S
C735   C305    1.387   1_556 S
C736   H750    1.083   .     S
C736   C302    1.387   1_556 S
C737   H751    1.083   .     S
C738   C451    1.335   1_565 S
C738   H464    1.088   1_565 S
C740   O762    1.286   .     A
C740   O764    1.286   .     A
C741   O765    1.286   .     A
C741   O763    1.286   .     A
C742   O766    1.387   .     S
H744   N804    1.029   .     S
H745   O766    0.988   .     S
H746   O758    0.988   .     S
H753   C451    1.088   1_565 S
H754   N851    1.029   1_455 S
N755   Zn768   2.020   .     S
N755   H802    1.029   .     S
N755   N804    1.275   .     S
N756   Zn767   2.020   .     S
N756   N851    1.275   1_455 S
N756   H840    1.029   1_455 S
O757   Zn767   1.956   .     S
O759   Zn768   1.956   .     S
O760   Zn768   1.976   .     S
O761   Zn767   1.976   .     S
O762   Zn767   1.991   .     S
O763   Zn768   1.991   .     S
O764   Zn768   2.016   .     S
O765   Zn767   2.016   .     S
C769   O805    1.278   .     A
C769   C786    1.401   .     S
C769   O808    1.287   .     A
C770   C772    1.411   .     A
C770   O806    1.387   .     S
C770   C781    1.395   .     A
C771   C789    1.418   .     S
C771   C790    1.411   .     A
C771   C773    1.389   .     A
C772   C788    1.418   .     S
C772   C774    1.389   .     A
C773   C775    1.379   .     A
C773   H791    1.086   .     S
C774   C776    1.379   .     A
C774   H795    1.086   .     S
C775   C777    1.410   .     A
C775   C782    1.398   .     A
C776   C778    1.410   .     A
C776   C783    1.398   .     A
C777   C779    1.417   .     A
C778   C781    1.417   .     A
C778   C345    1.396   1_556 S
C779   C790    1.395   .     A
C779   C785    1.404   .     A
C780   O809    1.287   .     A
C780   O807    1.278   .     A
C780   C787    1.401   .     S
C781   C784    1.404   .     A
C782   H796    1.084   .     S
C783   H797    1.084   .     S
C783   C353    1.387   1_556 S
C784   H798    1.083   .     S
C784   C350    1.387   1_556 S
C785   H799    1.083   .     S
C786   C499    1.335   1_565 S
C786   H512    1.088   1_565 S
C788   O810    1.286   .     A
C788   O812    1.286   .     A
C789   O813    1.286   .     A
C789   O811    1.286   .     A
C790   O814    1.387   .     S
H792   N852    1.029   .     S
H793   O814    0.988   .     S
H794   O806    0.988   .     S
H801   C499    1.088   1_565 S
N803   Zn816   2.020   .     S
N803   H850    1.029   .     S
N803   N852    1.275   .     S
N804   Zn815   2.020   .     S
O805   Zn815   1.956   .     S
O807   Zn816   1.956   .     S
O808   Zn816   1.976   .     S
O809   Zn815   1.976   .     S
O810   Zn815   1.991   .     S
O811   Zn816   1.991   .     S
O812   Zn816   2.016   .     S
O813   Zn815   2.016   .     S
C817   O853    1.278   .     A
C817   C834    1.401   .     S
C817   O856    1.287   .     A
C818   C820    1.411   .     A
C818   O854    1.387   .     S
C818   C829    1.395   .     A
C819   C837    1.418   .     S
C819   C838    1.411   .     A
C819   C821    1.389   .     A
C820   C836    1.418   .     S
C820   C822    1.389   .     A
C821   C823    1.379   .     A
C821   H839    1.086   .     S
C822   C824    1.379   .     A
C822   H843    1.086   .     S
C823   C825    1.410   .     A
C823   C830    1.398   .     A
C824   C826    1.410   .     A
C824   C831    1.398   .     A
C825   C827    1.417   .     A
C826   C829    1.417   .     A
C826   C393    1.396   1_556 S
C827   C838    1.395   .     A
C827   C833    1.404   .     A
C828   O857    1.287   .     A
C828   O855    1.278   .     A
C828   C835    1.401   .     S
C829   C832    1.404   .     A
C830   H844    1.084   .     S
C831   H845    1.084   .     S
C831   C401    1.387   1_556 S
C832   H846    1.083   .     S
C832   C398    1.387   1_556 S
C833   H847    1.083   .     S
C834   C547    1.335   1_565 S
C834   H560    1.088   1_565 S
C836   O858    1.286   .     A
C836   O860    1.286   .     A
C837   O861    1.286   .     A
C837   O859    1.286   .     A
C838   O862    1.387   .     S
H840   N756    1.029   1_655 S
H841   O862    0.988   .     S
H842   O854    0.988   .     S
H849   C547    1.088   1_565 S
N851   Zn864   2.020   .     S
N851   H754    1.029   1_655 S
N851   N756    1.275   1_655 S
N852   Zn863   2.020   .     S
O853   Zn863   1.956   .     S
O855   Zn864   1.956   .     S
O856   Zn864   1.976   .     S
O857   Zn863   1.976   .     S
O858   Zn863   1.991   .     S
O859   Zn864   1.991   .     S
O860   Zn864   2.016   .     S
O861   Zn863   2.016   .     S
