data_str_m3_o1_o17_pcu_sym.88
_audit_creation_date              2020-01-03
_audit_creation_method            'Materials Studio'
_symmetry_space_group_name_H-M    'P1'
_symmetry_Int_Tables_number       1
_symmetry_cell_setting            triclinic
loop_
_symmetry_equiv_pos_as_xyz
  x,y,z
_cell_length_a                    31.8830
_cell_length_b                    29.5125
_cell_length_c                    30.0019
_cell_angle_alpha                 89.9824
_cell_angle_beta                  90.1236
_cell_angle_gamma                 90.0394
loop_
_atom_site_label
_atom_site_type_symbol
_atom_site_fract_x
_atom_site_fract_y
_atom_site_fract_z
_atom_site_U_iso_or_equiv
_atom_site_adp_type
_atom_site_occupancy
C1     C     0.08685   0.16665   0.24988   0.00000  Uiso   1.00
C2     C     0.04267   0.16646   0.24995   0.00000  Uiso   1.00
C3     C     0.18906   0.02398   0.28115   0.00000  Uiso   1.00
C4     C     0.14427   0.30935   0.21885   0.00000  Uiso   1.00
C5     C     0.14426   0.02399   0.21885   0.00000  Uiso   1.00
C6     C     0.18907   0.30934   0.28115   0.00000  Uiso   1.00
C7     C     0.16661   0.16667   0.16327   0.00000  Uiso   1.00
C8     C     0.16672   0.16666   0.33673   0.00000  Uiso   1.00
C9     C     0.16692   0.20794   0.40754   0.00000  Uiso   1.00
C10    C     0.16641   0.12539   0.09246   0.00000  Uiso   1.00
C11    C     0.16673   0.16666   0.38467   0.00000  Uiso   1.00
C12    C     0.24649   0.16668   0.25012   0.00000  Uiso   1.00
C13    C     0.16660   0.16667   0.11533   0.00000  Uiso   1.00
C14    C     0.16656   0.12538   0.40757   0.00000  Uiso   1.00
C15    C     0.16677   0.20795   0.09243   0.00000  Uiso   1.00
C16    C     0.16658   0.12507   0.45366   0.00000  Uiso   1.00
C17    C     0.16675   0.20826   0.04635   0.00000  Uiso   1.00
C18    C     0.16669   0.16667   0.47682   0.00000  Uiso   1.00
C19    C     0.16664   0.16667   0.02318   0.00000  Uiso   1.00
C20    C     0.16684   0.20826   0.45363   0.00000  Uiso   1.00
C21    C     0.16649   0.12507   0.04637   0.00000  Uiso   1.00
C22    C     0.16648   0.08392   0.47688   0.00000  Uiso   1.00
C23    C     0.16643   0.08392   0.02318   0.00000  Uiso   1.00
C24    C     0.16685   0.24942   0.02312   0.00000  Uiso   1.00
C25    C     0.04653   0.16174   0.16488   0.00000  Uiso   1.00
C26    C     0.05747   0.20883   0.14721   0.00000  Uiso   1.00
C27    C     0.28681   0.17159   0.33512   0.00000  Uiso   1.00
C28    C     0.27586   0.12450   0.35279   0.00000  Uiso   1.00
C29    C     0.28626   0.16458   0.16489   0.00000  Uiso   1.00
C30    C     0.27566   0.11630   0.15026   0.00000  Uiso   1.00
C31    C     0.04708   0.16875   0.33511   0.00000  Uiso   1.00
C32    C     0.05767   0.21703   0.34974   0.00000  Uiso   1.00
C33    C     0.16690   0.24941   0.47682   0.00000  Uiso   1.00
C34    C     0.02177   0.16449   0.20849   0.00000  Uiso   1.00
C35    C     0.31156   0.16884   0.29151   0.00000  Uiso   1.00
C36    C     0.31128   0.16510   0.20853   0.00000  Uiso   1.00
C37    C     0.02205   0.16823   0.29147   0.00000  Uiso   1.00
C38    C     0.29067   0.16687   0.25005   0.00000  Uiso   1.00
H39    H     0.16704   0.23985   0.38959   0.00000  Uiso   1.00
H40    H     0.12639   0.29120   0.19392   0.00000  Uiso   1.00
H41    H     0.12633   0.04217   0.19397   0.00000  Uiso   1.00
H42    H     0.20700   0.29116   0.30603   0.00000  Uiso   1.00
H43    H     0.02877   0.22953   0.14246   0.00000  Uiso   1.00
H44    H     0.07865   0.22671   0.17068   0.00000  Uiso   1.00
H45    H     0.07367   0.20562   0.11464   0.00000  Uiso   1.00
H46    H     0.07582   0.14196   0.16921   0.00000  Uiso   1.00
H47    H     0.02931   0.14270   0.13884   0.00000  Uiso   1.00
H48    H     0.30456   0.10380   0.35754   0.00000  Uiso   1.00
H49    H     0.25468   0.10662   0.32932   0.00000  Uiso   1.00
H50    H     0.16630   0.09349   0.11041   0.00000  Uiso   1.00
H51    H     0.25967   0.12771   0.38536   0.00000  Uiso   1.00
H52    H     0.30402   0.19063   0.36116   0.00000  Uiso   1.00
H53    H     0.25752   0.19137   0.33079   0.00000  Uiso   1.00
H54    H     0.30450   0.09559   0.14689   0.00000  Uiso   1.00
H55    H     0.25464   0.09971   0.17471   0.00000  Uiso   1.00
H56    H     0.25938   0.11724   0.11752   0.00000  Uiso   1.00
H57    H     0.25679   0.18426   0.16798   0.00000  Uiso   1.00
H58    H     0.30316   0.18215   0.13769   0.00000  Uiso   1.00
H59    H     0.02883   0.23774   0.35311   0.00000  Uiso   1.00
H60    H     0.07869   0.23362   0.32529   0.00000  Uiso   1.00
H61    H     0.16650   0.09348   0.38963   0.00000  Uiso   1.00
H62    H     0.07395   0.21609   0.38248   0.00000  Uiso   1.00
H63    H     0.03017   0.15119   0.36231   0.00000  Uiso   1.00
H64    H     0.07655   0.14907   0.33202   0.00000  Uiso   1.00
H65    H     0.16684   0.23986   0.11037   0.00000  Uiso   1.00
H66    H     0.16643   0.05186   0.45926   0.00000  Uiso   1.00
H67    H     0.16691   0.28148   0.04074   0.00000  Uiso   1.00
H68    H     0.16634   0.05186   0.04082   0.00000  Uiso   1.00
H69    H     0.16699   0.28147   0.45918   0.00000  Uiso   1.00
H70    H     0.20695   0.04213   0.30608   0.00000  Uiso   1.00
N71    N     0.16667   0.28573   0.25000   0.00000  Uiso   1.00
N72    N     0.16667   0.04760   0.25000   0.00000  Uiso   1.00
O73    O     0.10559   0.20487   0.25000   0.00000  Uiso   1.00
O74    O     0.22774   0.12846   0.25001   0.00000  Uiso   1.00
O75    O     0.22774   0.20487   0.25001   0.00000  Uiso   1.00
O76    O     0.10559   0.12846   0.25000   0.00000  Uiso   1.00
O77    O     0.16666   0.20489   0.18393   0.00000  Uiso   1.00
O78    O     0.16667   0.12844   0.31608   0.00000  Uiso   1.00
O79    O     0.16667   0.20489   0.31608   0.00000  Uiso   1.00
O80    O     0.16666   0.12844   0.18393   0.00000  Uiso   1.00
Zn81   Zn    0.16667   0.21771   0.25000   0.00000  Uiso   1.00
Zn82   Zn    0.16667   0.11563   0.25000   0.00000  Uiso   1.00
C83    C     0.42018   0.16665   0.24988   0.00000  Uiso   1.00
C84    C     0.37600   0.16646   0.24995   0.00000  Uiso   1.00
C85    C     0.52240   0.02398   0.28115   0.00000  Uiso   1.00
C86    C     0.47760   0.30935   0.21885   0.00000  Uiso   1.00
C87    C     0.47759   0.02399   0.21885   0.00000  Uiso   1.00
C88    C     0.52241   0.30934   0.28115   0.00000  Uiso   1.00
C89    C     0.49994   0.16667   0.16327   0.00000  Uiso   1.00
C90    C     0.50006   0.16666   0.33673   0.00000  Uiso   1.00
C91    C     0.50025   0.20794   0.40754   0.00000  Uiso   1.00
C92    C     0.49975   0.12539   0.09246   0.00000  Uiso   1.00
C93    C     0.50007   0.16666   0.38467   0.00000  Uiso   1.00
C94    C     0.57982   0.16668   0.25012   0.00000  Uiso   1.00
C95    C     0.49993   0.16667   0.11533   0.00000  Uiso   1.00
C96    C     0.49990   0.12538   0.40757   0.00000  Uiso   1.00
C97    C     0.50010   0.20795   0.09243   0.00000  Uiso   1.00
C98    C     0.49992   0.12507   0.45366   0.00000  Uiso   1.00
C99    C     0.50008   0.20826   0.04635   0.00000  Uiso   1.00
C100   C     0.50002   0.16667   0.47682   0.00000  Uiso   1.00
C101   C     0.49998   0.16667   0.02318   0.00000  Uiso   1.00
C102   C     0.50017   0.20826   0.45363   0.00000  Uiso   1.00
C103   C     0.49983   0.12507   0.04637   0.00000  Uiso   1.00
C104   C     0.49982   0.08392   0.47688   0.00000  Uiso   1.00
C105   C     0.49977   0.08392   0.02318   0.00000  Uiso   1.00
C106   C     0.50018   0.24942   0.02312   0.00000  Uiso   1.00
C107   C     0.37986   0.16174   0.16488   0.00000  Uiso   1.00
C108   C     0.39081   0.20883   0.14721   0.00000  Uiso   1.00
C109   C     0.62014   0.17159   0.33512   0.00000  Uiso   1.00
C110   C     0.60919   0.12450   0.35279   0.00000  Uiso   1.00
C111   C     0.61959   0.16458   0.16489   0.00000  Uiso   1.00
C112   C     0.60899   0.11630   0.15026   0.00000  Uiso   1.00
C113   C     0.38041   0.16875   0.33511   0.00000  Uiso   1.00
C114   C     0.39101   0.21703   0.34974   0.00000  Uiso   1.00
C115   C     0.50023   0.24941   0.47682   0.00000  Uiso   1.00
C116   C     0.35510   0.16449   0.20849   0.00000  Uiso   1.00
C117   C     0.64490   0.16884   0.29151   0.00000  Uiso   1.00
C118   C     0.64462   0.16510   0.20853   0.00000  Uiso   1.00
C119   C     0.35538   0.16823   0.29147   0.00000  Uiso   1.00
C120   C     0.62400   0.16687   0.25005   0.00000  Uiso   1.00
H121   H     0.50037   0.23985   0.38959   0.00000  Uiso   1.00
H122   H     0.45972   0.29120   0.19392   0.00000  Uiso   1.00
H123   H     0.45966   0.04217   0.19397   0.00000  Uiso   1.00
H124   H     0.54034   0.29116   0.30603   0.00000  Uiso   1.00
H125   H     0.36211   0.22953   0.14246   0.00000  Uiso   1.00
H126   H     0.41198   0.22671   0.17068   0.00000  Uiso   1.00
H127   H     0.40700   0.20562   0.11464   0.00000  Uiso   1.00
H128   H     0.40915   0.14196   0.16921   0.00000  Uiso   1.00
H129   H     0.36265   0.14270   0.13884   0.00000  Uiso   1.00
H130   H     0.63790   0.10380   0.35754   0.00000  Uiso   1.00
H131   H     0.58802   0.10662   0.32932   0.00000  Uiso   1.00
H132   H     0.49963   0.09349   0.11041   0.00000  Uiso   1.00
H133   H     0.59300   0.12771   0.38536   0.00000  Uiso   1.00
H134   H     0.63735   0.19063   0.36116   0.00000  Uiso   1.00
H135   H     0.59085   0.19137   0.33079   0.00000  Uiso   1.00
H136   H     0.63784   0.09559   0.14689   0.00000  Uiso   1.00
H137   H     0.58798   0.09971   0.17471   0.00000  Uiso   1.00
H138   H     0.59272   0.11724   0.11752   0.00000  Uiso   1.00
H139   H     0.59012   0.18426   0.16798   0.00000  Uiso   1.00
H140   H     0.63649   0.18215   0.13769   0.00000  Uiso   1.00
H141   H     0.36216   0.23774   0.35311   0.00000  Uiso   1.00
H142   H     0.41202   0.23362   0.32529   0.00000  Uiso   1.00
H143   H     0.49983   0.09348   0.38963   0.00000  Uiso   1.00
H144   H     0.40729   0.21609   0.38248   0.00000  Uiso   1.00
H145   H     0.36351   0.15119   0.36231   0.00000  Uiso   1.00
H146   H     0.40988   0.14907   0.33202   0.00000  Uiso   1.00
H147   H     0.50017   0.23986   0.11037   0.00000  Uiso   1.00
H148   H     0.49976   0.05186   0.45926   0.00000  Uiso   1.00
H149   H     0.50024   0.28148   0.04074   0.00000  Uiso   1.00
H150   H     0.49968   0.05186   0.04082   0.00000  Uiso   1.00
H151   H     0.50032   0.28147   0.45918   0.00000  Uiso   1.00
H152   H     0.54028   0.04213   0.30608   0.00000  Uiso   1.00
N153   N     0.50000   0.28573   0.25000   0.00000  Uiso   1.00
N154   N     0.50000   0.04760   0.25000   0.00000  Uiso   1.00
O155   O     0.43892   0.20487   0.25000   0.00000  Uiso   1.00
O156   O     0.56108   0.12846   0.25001   0.00000  Uiso   1.00
O157   O     0.56108   0.20487   0.25001   0.00000  Uiso   1.00
O158   O     0.43892   0.12846   0.25000   0.00000  Uiso   1.00
O159   O     0.49999   0.20489   0.18393   0.00000  Uiso   1.00
O160   O     0.50001   0.12844   0.31608   0.00000  Uiso   1.00
O161   O     0.50001   0.20489   0.31608   0.00000  Uiso   1.00
O162   O     0.49999   0.12844   0.18393   0.00000  Uiso   1.00
Zn163  Zn    0.50000   0.21771   0.25000   0.00000  Uiso   1.00
Zn164  Zn    0.50000   0.11563   0.25000   0.00000  Uiso   1.00
C165   C     0.75351   0.16665   0.24988   0.00000  Uiso   1.00
C166   C     0.70933   0.16646   0.24995   0.00000  Uiso   1.00
C167   C     0.85573   0.02398   0.28115   0.00000  Uiso   1.00
C168   C     0.81094   0.30935   0.21885   0.00000  Uiso   1.00
C169   C     0.81093   0.02399   0.21885   0.00000  Uiso   1.00
C170   C     0.85574   0.30934   0.28115   0.00000  Uiso   1.00
C171   C     0.83328   0.16667   0.16327   0.00000  Uiso   1.00
C172   C     0.83339   0.16666   0.33673   0.00000  Uiso   1.00
C173   C     0.83359   0.20794   0.40754   0.00000  Uiso   1.00
C174   C     0.83308   0.12539   0.09246   0.00000  Uiso   1.00
C175   C     0.83340   0.16666   0.38467   0.00000  Uiso   1.00
C176   C     0.91315   0.16668   0.25012   0.00000  Uiso   1.00
C177   C     0.83327   0.16667   0.11533   0.00000  Uiso   1.00
C178   C     0.83323   0.12538   0.40757   0.00000  Uiso   1.00
C179   C     0.83344   0.20795   0.09243   0.00000  Uiso   1.00
C180   C     0.83325   0.12507   0.45366   0.00000  Uiso   1.00
C181   C     0.83342   0.20826   0.04635   0.00000  Uiso   1.00
C182   C     0.83336   0.16667   0.47682   0.00000  Uiso   1.00
C183   C     0.83331   0.16667   0.02318   0.00000  Uiso   1.00
C184   C     0.83351   0.20826   0.45363   0.00000  Uiso   1.00
C185   C     0.83316   0.12507   0.04637   0.00000  Uiso   1.00
C186   C     0.83315   0.08392   0.47688   0.00000  Uiso   1.00
C187   C     0.83310   0.08392   0.02318   0.00000  Uiso   1.00
C188   C     0.83352   0.24942   0.02312   0.00000  Uiso   1.00
C189   C     0.71319   0.16174   0.16488   0.00000  Uiso   1.00
C190   C     0.72414   0.20883   0.14721   0.00000  Uiso   1.00
C191   C     0.95347   0.17159   0.33512   0.00000  Uiso   1.00
C192   C     0.94253   0.12450   0.35279   0.00000  Uiso   1.00
C193   C     0.95292   0.16458   0.16489   0.00000  Uiso   1.00
C194   C     0.94233   0.11630   0.15026   0.00000  Uiso   1.00
C195   C     0.71374   0.16875   0.33511   0.00000  Uiso   1.00
C196   C     0.72434   0.21703   0.34974   0.00000  Uiso   1.00
C197   C     0.83357   0.24941   0.47682   0.00000  Uiso   1.00
C198   C     0.68844   0.16449   0.20849   0.00000  Uiso   1.00
C199   C     0.97823   0.16884   0.29151   0.00000  Uiso   1.00
C200   C     0.97795   0.16510   0.20853   0.00000  Uiso   1.00
C201   C     0.68872   0.16823   0.29147   0.00000  Uiso   1.00
C202   C     0.95733   0.16687   0.25005   0.00000  Uiso   1.00
H203   H     0.83371   0.23985   0.38959   0.00000  Uiso   1.00
H204   H     0.79305   0.29120   0.19392   0.00000  Uiso   1.00
H205   H     0.79300   0.04217   0.19397   0.00000  Uiso   1.00
H206   H     0.87367   0.29116   0.30603   0.00000  Uiso   1.00
H207   H     0.69544   0.22953   0.14246   0.00000  Uiso   1.00
H208   H     0.74532   0.22671   0.17068   0.00000  Uiso   1.00
H209   H     0.74033   0.20562   0.11464   0.00000  Uiso   1.00
H210   H     0.74248   0.14196   0.16921   0.00000  Uiso   1.00
H211   H     0.69598   0.14270   0.13884   0.00000  Uiso   1.00
H212   H     0.97123   0.10380   0.35754   0.00000  Uiso   1.00
H213   H     0.92135   0.10662   0.32932   0.00000  Uiso   1.00
H214   H     0.83296   0.09349   0.11041   0.00000  Uiso   1.00
H215   H     0.92633   0.12771   0.38536   0.00000  Uiso   1.00
H216   H     0.97069   0.19063   0.36116   0.00000  Uiso   1.00
H217   H     0.92418   0.19137   0.33079   0.00000  Uiso   1.00
H218   H     0.97117   0.09559   0.14689   0.00000  Uiso   1.00
H219   H     0.92131   0.09971   0.17471   0.00000  Uiso   1.00
H220   H     0.92605   0.11724   0.11752   0.00000  Uiso   1.00
H221   H     0.92345   0.18426   0.16798   0.00000  Uiso   1.00
H222   H     0.96983   0.18215   0.13769   0.00000  Uiso   1.00
H223   H     0.69550   0.23774   0.35311   0.00000  Uiso   1.00
H224   H     0.74536   0.23362   0.32529   0.00000  Uiso   1.00
H225   H     0.83317   0.09348   0.38963   0.00000  Uiso   1.00
H226   H     0.74062   0.21609   0.38248   0.00000  Uiso   1.00
H227   H     0.69684   0.15119   0.36231   0.00000  Uiso   1.00
H228   H     0.74321   0.14907   0.33202   0.00000  Uiso   1.00
H229   H     0.83350   0.23986   0.11037   0.00000  Uiso   1.00
H230   H     0.83309   0.05186   0.45926   0.00000  Uiso   1.00
H231   H     0.83357   0.28148   0.04074   0.00000  Uiso   1.00
H232   H     0.83301   0.05186   0.04082   0.00000  Uiso   1.00
H233   H     0.83366   0.28147   0.45918   0.00000  Uiso   1.00
H234   H     0.87361   0.04213   0.30608   0.00000  Uiso   1.00
N235   N     0.83333   0.28573   0.25000   0.00000  Uiso   1.00
N236   N     0.83333   0.04760   0.25000   0.00000  Uiso   1.00
O237   O     0.77226   0.20487   0.25000   0.00000  Uiso   1.00
O238   O     0.89441   0.12846   0.25001   0.00000  Uiso   1.00
O239   O     0.89441   0.20487   0.25001   0.00000  Uiso   1.00
O240   O     0.77226   0.12846   0.25000   0.00000  Uiso   1.00
O241   O     0.83333   0.20489   0.18393   0.00000  Uiso   1.00
O242   O     0.83334   0.12844   0.31608   0.00000  Uiso   1.00
O243   O     0.83334   0.20489   0.31608   0.00000  Uiso   1.00
O244   O     0.83333   0.12844   0.18393   0.00000  Uiso   1.00
Zn245  Zn    0.83333   0.21771   0.25000   0.00000  Uiso   1.00
Zn246  Zn    0.83333   0.11563   0.25000   0.00000  Uiso   1.00
C247   C     0.08685   0.49998   0.24988   0.00000  Uiso   1.00
C248   C     0.04267   0.49980   0.24995   0.00000  Uiso   1.00
C249   C     0.18906   0.35731   0.28115   0.00000  Uiso   1.00
C250   C     0.14427   0.64269   0.21885   0.00000  Uiso   1.00
C251   C     0.14426   0.35732   0.21885   0.00000  Uiso   1.00
C252   C     0.18907   0.64268   0.28115   0.00000  Uiso   1.00
C253   C     0.16661   0.50000   0.16327   0.00000  Uiso   1.00
C254   C     0.16672   0.50000   0.33673   0.00000  Uiso   1.00
C255   C     0.16692   0.54127   0.40754   0.00000  Uiso   1.00
C256   C     0.16641   0.45873   0.09246   0.00000  Uiso   1.00
C257   C     0.16673   0.49999   0.38467   0.00000  Uiso   1.00
C258   C     0.24649   0.50002   0.25012   0.00000  Uiso   1.00
C259   C     0.16660   0.50001   0.11533   0.00000  Uiso   1.00
C260   C     0.16656   0.45872   0.40757   0.00000  Uiso   1.00
C261   C     0.16677   0.54128   0.09243   0.00000  Uiso   1.00
C262   C     0.16658   0.45840   0.45366   0.00000  Uiso   1.00
C263   C     0.16675   0.54160   0.04635   0.00000  Uiso   1.00
C264   C     0.16669   0.50000   0.47682   0.00000  Uiso   1.00
C265   C     0.16664   0.50000   0.02318   0.00000  Uiso   1.00
C266   C     0.16684   0.54159   0.45363   0.00000  Uiso   1.00
C267   C     0.16649   0.45841   0.04637   0.00000  Uiso   1.00
C268   C     0.16648   0.41725   0.47688   0.00000  Uiso   1.00
C269   C     0.16643   0.41725   0.02318   0.00000  Uiso   1.00
C270   C     0.16685   0.58275   0.02312   0.00000  Uiso   1.00
C271   C     0.04653   0.49508   0.16488   0.00000  Uiso   1.00
C272   C     0.05747   0.54217   0.14721   0.00000  Uiso   1.00
C273   C     0.28681   0.50492   0.33512   0.00000  Uiso   1.00
C274   C     0.27586   0.45783   0.35279   0.00000  Uiso   1.00
C275   C     0.28626   0.49792   0.16489   0.00000  Uiso   1.00
C276   C     0.27566   0.44964   0.15026   0.00000  Uiso   1.00
C277   C     0.04708   0.50208   0.33511   0.00000  Uiso   1.00
C278   C     0.05767   0.55036   0.34974   0.00000  Uiso   1.00
C279   C     0.16690   0.58275   0.47682   0.00000  Uiso   1.00
C280   C     0.02177   0.49782   0.20849   0.00000  Uiso   1.00
C281   C     0.31156   0.50218   0.29151   0.00000  Uiso   1.00
C282   C     0.31128   0.49843   0.20853   0.00000  Uiso   1.00
C283   C     0.02205   0.50157   0.29147   0.00000  Uiso   1.00
C284   C     0.29067   0.50020   0.25005   0.00000  Uiso   1.00
H285   H     0.16704   0.57318   0.38959   0.00000  Uiso   1.00
H286   H     0.12639   0.62453   0.19392   0.00000  Uiso   1.00
H287   H     0.12633   0.37550   0.19397   0.00000  Uiso   1.00
H288   H     0.20700   0.62450   0.30603   0.00000  Uiso   1.00
H289   H     0.02877   0.56287   0.14246   0.00000  Uiso   1.00
H290   H     0.07865   0.56005   0.17068   0.00000  Uiso   1.00
H291   H     0.07367   0.53896   0.11464   0.00000  Uiso   1.00
H292   H     0.07582   0.47529   0.16921   0.00000  Uiso   1.00
H293   H     0.02931   0.47604   0.13884   0.00000  Uiso   1.00
H294   H     0.30456   0.43713   0.35754   0.00000  Uiso   1.00
H295   H     0.25468   0.43995   0.32932   0.00000  Uiso   1.00
H296   H     0.16630   0.42682   0.11041   0.00000  Uiso   1.00
H297   H     0.25967   0.46104   0.38536   0.00000  Uiso   1.00
H298   H     0.30402   0.52396   0.36116   0.00000  Uiso   1.00
H299   H     0.25752   0.52471   0.33079   0.00000  Uiso   1.00
H300   H     0.30450   0.42892   0.14689   0.00000  Uiso   1.00
H301   H     0.25464   0.43304   0.17471   0.00000  Uiso   1.00
H302   H     0.25938   0.45058   0.11752   0.00000  Uiso   1.00
H303   H     0.25679   0.51760   0.16798   0.00000  Uiso   1.00
H304   H     0.30316   0.51548   0.13769   0.00000  Uiso   1.00
H305   H     0.02883   0.57108   0.35311   0.00000  Uiso   1.00
H306   H     0.07869   0.56696   0.32529   0.00000  Uiso   1.00
H307   H     0.16650   0.42681   0.38963   0.00000  Uiso   1.00
H308   H     0.07395   0.54942   0.38248   0.00000  Uiso   1.00
H309   H     0.03017   0.48452   0.36231   0.00000  Uiso   1.00
H310   H     0.07655   0.48240   0.33202   0.00000  Uiso   1.00
H311   H     0.16684   0.57319   0.11037   0.00000  Uiso   1.00
H312   H     0.16643   0.38519   0.45926   0.00000  Uiso   1.00
H313   H     0.16691   0.61481   0.04074   0.00000  Uiso   1.00
H314   H     0.16634   0.38519   0.04082   0.00000  Uiso   1.00
H315   H     0.16699   0.61481   0.45918   0.00000  Uiso   1.00
H316   H     0.20695   0.37547   0.30608   0.00000  Uiso   1.00
N317   N     0.16667   0.61907   0.25000   0.00000  Uiso   1.00
N318   N     0.16667   0.38093   0.25000   0.00000  Uiso   1.00
O319   O     0.10559   0.53821   0.25000   0.00000  Uiso   1.00
O320   O     0.22774   0.46179   0.25001   0.00000  Uiso   1.00
O321   O     0.22774   0.53821   0.25001   0.00000  Uiso   1.00
O322   O     0.10559   0.46179   0.25000   0.00000  Uiso   1.00
O323   O     0.16666   0.53823   0.18393   0.00000  Uiso   1.00
O324   O     0.16667   0.46177   0.31608   0.00000  Uiso   1.00
O325   O     0.16667   0.53823   0.31608   0.00000  Uiso   1.00
O326   O     0.16666   0.46177   0.18393   0.00000  Uiso   1.00
Zn327  Zn    0.16667   0.55104   0.25000   0.00000  Uiso   1.00
Zn328  Zn    0.16667   0.44896   0.25000   0.00000  Uiso   1.00
C329   C     0.42018   0.49998   0.24988   0.00000  Uiso   1.00
C330   C     0.37600   0.49980   0.24995   0.00000  Uiso   1.00
C331   C     0.52240   0.35731   0.28115   0.00000  Uiso   1.00
C332   C     0.47760   0.64269   0.21885   0.00000  Uiso   1.00
C333   C     0.47759   0.35732   0.21885   0.00000  Uiso   1.00
C334   C     0.52241   0.64268   0.28115   0.00000  Uiso   1.00
C335   C     0.49994   0.50000   0.16327   0.00000  Uiso   1.00
C336   C     0.50006   0.50000   0.33673   0.00000  Uiso   1.00
C337   C     0.50025   0.54127   0.40754   0.00000  Uiso   1.00
C338   C     0.49975   0.45873   0.09246   0.00000  Uiso   1.00
C339   C     0.50007   0.49999   0.38467   0.00000  Uiso   1.00
C340   C     0.57982   0.50002   0.25012   0.00000  Uiso   1.00
C341   C     0.49993   0.50001   0.11533   0.00000  Uiso   1.00
C342   C     0.49990   0.45872   0.40757   0.00000  Uiso   1.00
C343   C     0.50010   0.54128   0.09243   0.00000  Uiso   1.00
C344   C     0.49992   0.45840   0.45366   0.00000  Uiso   1.00
C345   C     0.50008   0.54160   0.04635   0.00000  Uiso   1.00
C346   C     0.50002   0.50000   0.47682   0.00000  Uiso   1.00
C347   C     0.49998   0.50000   0.02318   0.00000  Uiso   1.00
C348   C     0.50017   0.54159   0.45363   0.00000  Uiso   1.00
C349   C     0.49983   0.45841   0.04637   0.00000  Uiso   1.00
C350   C     0.49982   0.41725   0.47688   0.00000  Uiso   1.00
C351   C     0.49977   0.41725   0.02318   0.00000  Uiso   1.00
C352   C     0.50018   0.58275   0.02312   0.00000  Uiso   1.00
C353   C     0.37986   0.49508   0.16488   0.00000  Uiso   1.00
C354   C     0.39081   0.54217   0.14721   0.00000  Uiso   1.00
C355   C     0.62014   0.50492   0.33512   0.00000  Uiso   1.00
C356   C     0.60919   0.45783   0.35279   0.00000  Uiso   1.00
C357   C     0.61959   0.49792   0.16489   0.00000  Uiso   1.00
C358   C     0.60899   0.44964   0.15026   0.00000  Uiso   1.00
C359   C     0.38041   0.50208   0.33511   0.00000  Uiso   1.00
C360   C     0.39101   0.55036   0.34974   0.00000  Uiso   1.00
C361   C     0.50023   0.58275   0.47682   0.00000  Uiso   1.00
C362   C     0.35510   0.49782   0.20849   0.00000  Uiso   1.00
C363   C     0.64490   0.50218   0.29151   0.00000  Uiso   1.00
C364   C     0.64462   0.49843   0.20853   0.00000  Uiso   1.00
C365   C     0.35538   0.50157   0.29147   0.00000  Uiso   1.00
C366   C     0.62400   0.50020   0.25005   0.00000  Uiso   1.00
H367   H     0.50037   0.57318   0.38959   0.00000  Uiso   1.00
H368   H     0.45972   0.62453   0.19392   0.00000  Uiso   1.00
H369   H     0.45966   0.37550   0.19397   0.00000  Uiso   1.00
H370   H     0.54034   0.62450   0.30603   0.00000  Uiso   1.00
H371   H     0.36211   0.56287   0.14246   0.00000  Uiso   1.00
H372   H     0.41198   0.56005   0.17068   0.00000  Uiso   1.00
H373   H     0.40700   0.53896   0.11464   0.00000  Uiso   1.00
H374   H     0.40915   0.47529   0.16921   0.00000  Uiso   1.00
H375   H     0.36265   0.47604   0.13884   0.00000  Uiso   1.00
H376   H     0.63790   0.43713   0.35754   0.00000  Uiso   1.00
H377   H     0.58802   0.43995   0.32932   0.00000  Uiso   1.00
H378   H     0.49963   0.42682   0.11041   0.00000  Uiso   1.00
H379   H     0.59300   0.46104   0.38536   0.00000  Uiso   1.00
H380   H     0.63735   0.52396   0.36116   0.00000  Uiso   1.00
H381   H     0.59085   0.52471   0.33079   0.00000  Uiso   1.00
H382   H     0.63784   0.42892   0.14689   0.00000  Uiso   1.00
H383   H     0.58798   0.43304   0.17471   0.00000  Uiso   1.00
H384   H     0.59272   0.45058   0.11752   0.00000  Uiso   1.00
H385   H     0.59012   0.51760   0.16798   0.00000  Uiso   1.00
H386   H     0.63649   0.51548   0.13769   0.00000  Uiso   1.00
H387   H     0.36216   0.57108   0.35311   0.00000  Uiso   1.00
H388   H     0.41202   0.56696   0.32529   0.00000  Uiso   1.00
H389   H     0.49983   0.42681   0.38963   0.00000  Uiso   1.00
H390   H     0.40729   0.54942   0.38248   0.00000  Uiso   1.00
H391   H     0.36351   0.48452   0.36231   0.00000  Uiso   1.00
H392   H     0.40988   0.48240   0.33202   0.00000  Uiso   1.00
H393   H     0.50017   0.57319   0.11037   0.00000  Uiso   1.00
H394   H     0.49976   0.38519   0.45926   0.00000  Uiso   1.00
H395   H     0.50024   0.61481   0.04074   0.00000  Uiso   1.00
H396   H     0.49968   0.38519   0.04082   0.00000  Uiso   1.00
H397   H     0.50032   0.61481   0.45918   0.00000  Uiso   1.00
H398   H     0.54028   0.37547   0.30608   0.00000  Uiso   1.00
N399   N     0.50000   0.61907   0.25000   0.00000  Uiso   1.00
N400   N     0.50000   0.38093   0.25000   0.00000  Uiso   1.00
O401   O     0.43892   0.53821   0.25000   0.00000  Uiso   1.00
O402   O     0.56108   0.46179   0.25001   0.00000  Uiso   1.00
O403   O     0.56108   0.53821   0.25001   0.00000  Uiso   1.00
O404   O     0.43892   0.46179   0.25000   0.00000  Uiso   1.00
O405   O     0.49999   0.53823   0.18393   0.00000  Uiso   1.00
O406   O     0.50001   0.46177   0.31608   0.00000  Uiso   1.00
O407   O     0.50001   0.53823   0.31608   0.00000  Uiso   1.00
O408   O     0.49999   0.46177   0.18393   0.00000  Uiso   1.00
Zn409  Zn    0.50000   0.55104   0.25000   0.00000  Uiso   1.00
Zn410  Zn    0.50000   0.44896   0.25000   0.00000  Uiso   1.00
C411   C     0.75351   0.49998   0.24988   0.00000  Uiso   1.00
C412   C     0.70933   0.49980   0.24995   0.00000  Uiso   1.00
C413   C     0.85573   0.35731   0.28115   0.00000  Uiso   1.00
C414   C     0.81094   0.64269   0.21885   0.00000  Uiso   1.00
C415   C     0.81093   0.35732   0.21885   0.00000  Uiso   1.00
C416   C     0.85574   0.64268   0.28115   0.00000  Uiso   1.00
C417   C     0.83328   0.50000   0.16327   0.00000  Uiso   1.00
C418   C     0.83339   0.50000   0.33673   0.00000  Uiso   1.00
C419   C     0.83359   0.54127   0.40754   0.00000  Uiso   1.00
C420   C     0.83308   0.45873   0.09246   0.00000  Uiso   1.00
C421   C     0.83340   0.49999   0.38467   0.00000  Uiso   1.00
C422   C     0.91315   0.50002   0.25012   0.00000  Uiso   1.00
C423   C     0.83327   0.50001   0.11533   0.00000  Uiso   1.00
C424   C     0.83323   0.45872   0.40757   0.00000  Uiso   1.00
C425   C     0.83344   0.54128   0.09243   0.00000  Uiso   1.00
C426   C     0.83325   0.45840   0.45366   0.00000  Uiso   1.00
C427   C     0.83342   0.54160   0.04635   0.00000  Uiso   1.00
C428   C     0.83336   0.50000   0.47682   0.00000  Uiso   1.00
C429   C     0.83331   0.50000   0.02318   0.00000  Uiso   1.00
C430   C     0.83351   0.54159   0.45363   0.00000  Uiso   1.00
C431   C     0.83316   0.45841   0.04637   0.00000  Uiso   1.00
C432   C     0.83315   0.41725   0.47688   0.00000  Uiso   1.00
C433   C     0.83310   0.41725   0.02318   0.00000  Uiso   1.00
C434   C     0.83352   0.58275   0.02312   0.00000  Uiso   1.00
C435   C     0.71319   0.49508   0.16488   0.00000  Uiso   1.00
C436   C     0.72414   0.54217   0.14721   0.00000  Uiso   1.00
C437   C     0.95347   0.50492   0.33512   0.00000  Uiso   1.00
C438   C     0.94253   0.45783   0.35279   0.00000  Uiso   1.00
C439   C     0.95292   0.49792   0.16489   0.00000  Uiso   1.00
C440   C     0.94233   0.44964   0.15026   0.00000  Uiso   1.00
C441   C     0.71374   0.50208   0.33511   0.00000  Uiso   1.00
C442   C     0.72434   0.55036   0.34974   0.00000  Uiso   1.00
C443   C     0.83357   0.58275   0.47682   0.00000  Uiso   1.00
C444   C     0.68844   0.49782   0.20849   0.00000  Uiso   1.00
C445   C     0.97823   0.50218   0.29151   0.00000  Uiso   1.00
C446   C     0.97795   0.49843   0.20853   0.00000  Uiso   1.00
C447   C     0.68872   0.50157   0.29147   0.00000  Uiso   1.00
C448   C     0.95733   0.50020   0.25005   0.00000  Uiso   1.00
H449   H     0.83371   0.57318   0.38959   0.00000  Uiso   1.00
H450   H     0.79305   0.62453   0.19392   0.00000  Uiso   1.00
H451   H     0.79300   0.37550   0.19397   0.00000  Uiso   1.00
H452   H     0.87367   0.62450   0.30603   0.00000  Uiso   1.00
H453   H     0.69544   0.56287   0.14246   0.00000  Uiso   1.00
H454   H     0.74532   0.56005   0.17068   0.00000  Uiso   1.00
H455   H     0.74033   0.53896   0.11464   0.00000  Uiso   1.00
H456   H     0.74248   0.47529   0.16921   0.00000  Uiso   1.00
H457   H     0.69598   0.47604   0.13884   0.00000  Uiso   1.00
H458   H     0.97123   0.43713   0.35754   0.00000  Uiso   1.00
H459   H     0.92135   0.43995   0.32932   0.00000  Uiso   1.00
H460   H     0.83296   0.42682   0.11041   0.00000  Uiso   1.00
H461   H     0.92633   0.46104   0.38536   0.00000  Uiso   1.00
H462   H     0.97069   0.52396   0.36116   0.00000  Uiso   1.00
H463   H     0.92418   0.52471   0.33079   0.00000  Uiso   1.00
H464   H     0.97117   0.42892   0.14689   0.00000  Uiso   1.00
H465   H     0.92131   0.43304   0.17471   0.00000  Uiso   1.00
H466   H     0.92605   0.45058   0.11752   0.00000  Uiso   1.00
H467   H     0.92345   0.51760   0.16798   0.00000  Uiso   1.00
H468   H     0.96983   0.51548   0.13769   0.00000  Uiso   1.00
H469   H     0.69550   0.57108   0.35311   0.00000  Uiso   1.00
H470   H     0.74536   0.56696   0.32529   0.00000  Uiso   1.00
H471   H     0.83317   0.42681   0.38963   0.00000  Uiso   1.00
H472   H     0.74062   0.54942   0.38248   0.00000  Uiso   1.00
H473   H     0.69684   0.48452   0.36231   0.00000  Uiso   1.00
H474   H     0.74321   0.48240   0.33202   0.00000  Uiso   1.00
H475   H     0.83350   0.57319   0.11037   0.00000  Uiso   1.00
H476   H     0.83309   0.38519   0.45926   0.00000  Uiso   1.00
H477   H     0.83357   0.61481   0.04074   0.00000  Uiso   1.00
H478   H     0.83301   0.38519   0.04082   0.00000  Uiso   1.00
H479   H     0.83366   0.61481   0.45918   0.00000  Uiso   1.00
H480   H     0.87361   0.37547   0.30608   0.00000  Uiso   1.00
N481   N     0.83333   0.61907   0.25000   0.00000  Uiso   1.00
N482   N     0.83333   0.38093   0.25000   0.00000  Uiso   1.00
O483   O     0.77226   0.53821   0.25000   0.00000  Uiso   1.00
O484   O     0.89441   0.46179   0.25001   0.00000  Uiso   1.00
O485   O     0.89441   0.53821   0.25001   0.00000  Uiso   1.00
O486   O     0.77226   0.46179   0.25000   0.00000  Uiso   1.00
O487   O     0.83333   0.53823   0.18393   0.00000  Uiso   1.00
O488   O     0.83334   0.46177   0.31608   0.00000  Uiso   1.00
O489   O     0.83334   0.53823   0.31608   0.00000  Uiso   1.00
O490   O     0.83333   0.46177   0.18393   0.00000  Uiso   1.00
Zn491  Zn    0.83333   0.55104   0.25000   0.00000  Uiso   1.00
Zn492  Zn    0.83333   0.44896   0.25000   0.00000  Uiso   1.00
C493   C     0.08685   0.83332   0.24988   0.00000  Uiso   1.00
C494   C     0.04267   0.83313   0.24995   0.00000  Uiso   1.00
C495   C     0.18906   0.69065   0.28115   0.00000  Uiso   1.00
C496   C     0.14427   0.97602   0.21885   0.00000  Uiso   1.00
C497   C     0.14426   0.69066   0.21885   0.00000  Uiso   1.00
C498   C     0.18907   0.97601   0.28115   0.00000  Uiso   1.00
C499   C     0.16661   0.83334   0.16327   0.00000  Uiso   1.00
C500   C     0.16672   0.83333   0.33673   0.00000  Uiso   1.00
C501   C     0.16692   0.87461   0.40754   0.00000  Uiso   1.00
C502   C     0.16641   0.79206   0.09246   0.00000  Uiso   1.00
C503   C     0.16673   0.83333   0.38467   0.00000  Uiso   1.00
C504   C     0.24649   0.83335   0.25012   0.00000  Uiso   1.00
C505   C     0.16660   0.83334   0.11533   0.00000  Uiso   1.00
C506   C     0.16656   0.79205   0.40757   0.00000  Uiso   1.00
C507   C     0.16677   0.87462   0.09243   0.00000  Uiso   1.00
C508   C     0.16658   0.79174   0.45366   0.00000  Uiso   1.00
C509   C     0.16675   0.87493   0.04635   0.00000  Uiso   1.00
C510   C     0.16669   0.83333   0.47682   0.00000  Uiso   1.00
C511   C     0.16664   0.83334   0.02318   0.00000  Uiso   1.00
C512   C     0.16684   0.87493   0.45363   0.00000  Uiso   1.00
C513   C     0.16649   0.79174   0.04637   0.00000  Uiso   1.00
C514   C     0.16648   0.75058   0.47688   0.00000  Uiso   1.00
C515   C     0.16643   0.75059   0.02318   0.00000  Uiso   1.00
C516   C     0.16685   0.91608   0.02312   0.00000  Uiso   1.00
C517   C     0.04653   0.82841   0.16488   0.00000  Uiso   1.00
C518   C     0.05747   0.87550   0.14721   0.00000  Uiso   1.00
C519   C     0.28681   0.83825   0.33512   0.00000  Uiso   1.00
C520   C     0.27586   0.79116   0.35279   0.00000  Uiso   1.00
C521   C     0.28626   0.83125   0.16489   0.00000  Uiso   1.00
C522   C     0.27566   0.78297   0.15026   0.00000  Uiso   1.00
C523   C     0.04708   0.83542   0.33511   0.00000  Uiso   1.00
C524   C     0.05767   0.88370   0.34974   0.00000  Uiso   1.00
C525   C     0.16690   0.91608   0.47682   0.00000  Uiso   1.00
C526   C     0.02177   0.83116   0.20849   0.00000  Uiso   1.00
C527   C     0.31156   0.83551   0.29151   0.00000  Uiso   1.00
C528   C     0.31128   0.83177   0.20853   0.00000  Uiso   1.00
C529   C     0.02205   0.83490   0.29147   0.00000  Uiso   1.00
C530   C     0.29067   0.83354   0.25005   0.00000  Uiso   1.00
H531   H     0.16704   0.90651   0.38959   0.00000  Uiso   1.00
H532   H     0.12639   0.95787   0.19392   0.00000  Uiso   1.00
H533   H     0.12633   0.70884   0.19397   0.00000  Uiso   1.00
H534   H     0.20700   0.95783   0.30603   0.00000  Uiso   1.00
H535   H     0.02877   0.89620   0.14246   0.00000  Uiso   1.00
H536   H     0.07865   0.89338   0.17068   0.00000  Uiso   1.00
H537   H     0.07367   0.87229   0.11464   0.00000  Uiso   1.00
H538   H     0.07582   0.80863   0.16921   0.00000  Uiso   1.00
H539   H     0.02931   0.80937   0.13884   0.00000  Uiso   1.00
H540   H     0.30456   0.77047   0.35754   0.00000  Uiso   1.00
H541   H     0.25468   0.77329   0.32932   0.00000  Uiso   1.00
H542   H     0.16630   0.76015   0.11041   0.00000  Uiso   1.00
H543   H     0.25967   0.79437   0.38536   0.00000  Uiso   1.00
H544   H     0.30402   0.85730   0.36116   0.00000  Uiso   1.00
H545   H     0.25752   0.85804   0.33079   0.00000  Uiso   1.00
H546   H     0.30450   0.76226   0.14689   0.00000  Uiso   1.00
H547   H     0.25464   0.76638   0.17471   0.00000  Uiso   1.00
H548   H     0.25938   0.78391   0.11752   0.00000  Uiso   1.00
H549   H     0.25679   0.85093   0.16798   0.00000  Uiso   1.00
H550   H     0.30316   0.84881   0.13769   0.00000  Uiso   1.00
H551   H     0.02883   0.90441   0.35311   0.00000  Uiso   1.00
H552   H     0.07869   0.90029   0.32529   0.00000  Uiso   1.00
H553   H     0.16650   0.76014   0.38963   0.00000  Uiso   1.00
H554   H     0.07395   0.88276   0.38248   0.00000  Uiso   1.00
H555   H     0.03017   0.81785   0.36231   0.00000  Uiso   1.00
H556   H     0.07655   0.81574   0.33202   0.00000  Uiso   1.00
H557   H     0.16684   0.90652   0.11037   0.00000  Uiso   1.00
H558   H     0.16643   0.71852   0.45926   0.00000  Uiso   1.00
H559   H     0.16691   0.94815   0.04074   0.00000  Uiso   1.00
H560   H     0.16634   0.71853   0.04082   0.00000  Uiso   1.00
H561   H     0.16699   0.94814   0.45918   0.00000  Uiso   1.00
H562   H     0.20695   0.70880   0.30608   0.00000  Uiso   1.00
N563   N     0.16667   0.95240   0.25000   0.00000  Uiso   1.00
N564   N     0.16667   0.71427   0.25000   0.00000  Uiso   1.00
O565   O     0.10559   0.87154   0.25000   0.00000  Uiso   1.00
O566   O     0.22774   0.79513   0.25001   0.00000  Uiso   1.00
O567   O     0.22774   0.87154   0.25001   0.00000  Uiso   1.00
O568   O     0.10559   0.79513   0.25000   0.00000  Uiso   1.00
O569   O     0.16666   0.87156   0.18393   0.00000  Uiso   1.00
O570   O     0.16667   0.79511   0.31608   0.00000  Uiso   1.00
O571   O     0.16667   0.87156   0.31608   0.00000  Uiso   1.00
O572   O     0.16666   0.79511   0.18393   0.00000  Uiso   1.00
Zn573  Zn    0.16667   0.88437   0.25000   0.00000  Uiso   1.00
Zn574  Zn    0.16667   0.78229   0.25000   0.00000  Uiso   1.00
C575   C     0.42018   0.83332   0.24988   0.00000  Uiso   1.00
C576   C     0.37600   0.83313   0.24995   0.00000  Uiso   1.00
C577   C     0.52240   0.69065   0.28115   0.00000  Uiso   1.00
C578   C     0.47760   0.97602   0.21885   0.00000  Uiso   1.00
C579   C     0.47759   0.69066   0.21885   0.00000  Uiso   1.00
C580   C     0.52241   0.97601   0.28115   0.00000  Uiso   1.00
C581   C     0.49994   0.83334   0.16327   0.00000  Uiso   1.00
C582   C     0.50006   0.83333   0.33673   0.00000  Uiso   1.00
C583   C     0.50025   0.87461   0.40754   0.00000  Uiso   1.00
C584   C     0.49975   0.79206   0.09246   0.00000  Uiso   1.00
C585   C     0.50007   0.83333   0.38467   0.00000  Uiso   1.00
C586   C     0.57982   0.83335   0.25012   0.00000  Uiso   1.00
C587   C     0.49993   0.83334   0.11533   0.00000  Uiso   1.00
C588   C     0.49990   0.79205   0.40757   0.00000  Uiso   1.00
C589   C     0.50010   0.87462   0.09243   0.00000  Uiso   1.00
C590   C     0.49992   0.79174   0.45366   0.00000  Uiso   1.00
C591   C     0.50008   0.87493   0.04635   0.00000  Uiso   1.00
C592   C     0.50002   0.83333   0.47682   0.00000  Uiso   1.00
C593   C     0.49998   0.83334   0.02318   0.00000  Uiso   1.00
C594   C     0.50017   0.87493   0.45363   0.00000  Uiso   1.00
C595   C     0.49983   0.79174   0.04637   0.00000  Uiso   1.00
C596   C     0.49982   0.75058   0.47688   0.00000  Uiso   1.00
C597   C     0.49977   0.75059   0.02318   0.00000  Uiso   1.00
C598   C     0.50018   0.91608   0.02312   0.00000  Uiso   1.00
C599   C     0.37986   0.82841   0.16488   0.00000  Uiso   1.00
C600   C     0.39081   0.87550   0.14721   0.00000  Uiso   1.00
C601   C     0.62014   0.83825   0.33512   0.00000  Uiso   1.00
C602   C     0.60919   0.79116   0.35279   0.00000  Uiso   1.00
C603   C     0.61959   0.83125   0.16489   0.00000  Uiso   1.00
C604   C     0.60899   0.78297   0.15026   0.00000  Uiso   1.00
C605   C     0.38041   0.83542   0.33511   0.00000  Uiso   1.00
C606   C     0.39101   0.88370   0.34974   0.00000  Uiso   1.00
C607   C     0.50023   0.91608   0.47682   0.00000  Uiso   1.00
C608   C     0.35510   0.83116   0.20849   0.00000  Uiso   1.00
C609   C     0.64490   0.83551   0.29151   0.00000  Uiso   1.00
C610   C     0.64462   0.83177   0.20853   0.00000  Uiso   1.00
C611   C     0.35538   0.83490   0.29147   0.00000  Uiso   1.00
C612   C     0.62400   0.83354   0.25005   0.00000  Uiso   1.00
H613   H     0.50037   0.90651   0.38959   0.00000  Uiso   1.00
H614   H     0.45972   0.95787   0.19392   0.00000  Uiso   1.00
H615   H     0.45966   0.70884   0.19397   0.00000  Uiso   1.00
H616   H     0.54034   0.95783   0.30603   0.00000  Uiso   1.00
H617   H     0.36211   0.89620   0.14246   0.00000  Uiso   1.00
H618   H     0.41198   0.89338   0.17068   0.00000  Uiso   1.00
H619   H     0.40700   0.87229   0.11464   0.00000  Uiso   1.00
H620   H     0.40915   0.80863   0.16921   0.00000  Uiso   1.00
H621   H     0.36265   0.80937   0.13884   0.00000  Uiso   1.00
H622   H     0.63790   0.77047   0.35754   0.00000  Uiso   1.00
H623   H     0.58802   0.77329   0.32932   0.00000  Uiso   1.00
H624   H     0.49963   0.76015   0.11041   0.00000  Uiso   1.00
H625   H     0.59300   0.79437   0.38536   0.00000  Uiso   1.00
H626   H     0.63735   0.85730   0.36116   0.00000  Uiso   1.00
H627   H     0.59085   0.85804   0.33079   0.00000  Uiso   1.00
H628   H     0.63784   0.76226   0.14689   0.00000  Uiso   1.00
H629   H     0.58798   0.76638   0.17471   0.00000  Uiso   1.00
H630   H     0.59272   0.78391   0.11752   0.00000  Uiso   1.00
H631   H     0.59012   0.85093   0.16798   0.00000  Uiso   1.00
H632   H     0.63649   0.84881   0.13769   0.00000  Uiso   1.00
H633   H     0.36216   0.90441   0.35311   0.00000  Uiso   1.00
H634   H     0.41202   0.90029   0.32529   0.00000  Uiso   1.00
H635   H     0.49983   0.76014   0.38963   0.00000  Uiso   1.00
H636   H     0.40729   0.88276   0.38248   0.00000  Uiso   1.00
H637   H     0.36351   0.81785   0.36231   0.00000  Uiso   1.00
H638   H     0.40988   0.81574   0.33202   0.00000  Uiso   1.00
H639   H     0.50017   0.90652   0.11037   0.00000  Uiso   1.00
H640   H     0.49976   0.71852   0.45926   0.00000  Uiso   1.00
H641   H     0.50024   0.94815   0.04074   0.00000  Uiso   1.00
H642   H     0.49968   0.71853   0.04082   0.00000  Uiso   1.00
H643   H     0.50032   0.94814   0.45918   0.00000  Uiso   1.00
H644   H     0.54028   0.70880   0.30608   0.00000  Uiso   1.00
N645   N     0.50000   0.95240   0.25000   0.00000  Uiso   1.00
N646   N     0.50000   0.71427   0.25000   0.00000  Uiso   1.00
O647   O     0.43892   0.87154   0.25000   0.00000  Uiso   1.00
O648   O     0.56108   0.79513   0.25001   0.00000  Uiso   1.00
O649   O     0.56108   0.87154   0.25001   0.00000  Uiso   1.00
O650   O     0.43892   0.79513   0.25000   0.00000  Uiso   1.00
O651   O     0.49999   0.87156   0.18393   0.00000  Uiso   1.00
O652   O     0.50001   0.79511   0.31608   0.00000  Uiso   1.00
O653   O     0.50001   0.87156   0.31608   0.00000  Uiso   1.00
O654   O     0.49999   0.79511   0.18393   0.00000  Uiso   1.00
Zn655  Zn    0.50000   0.88437   0.25000   0.00000  Uiso   1.00
Zn656  Zn    0.50000   0.78229   0.25000   0.00000  Uiso   1.00
C657   C     0.75351   0.83332   0.24988   0.00000  Uiso   1.00
C658   C     0.70933   0.83313   0.24995   0.00000  Uiso   1.00
C659   C     0.85573   0.69065   0.28115   0.00000  Uiso   1.00
C660   C     0.81094   0.97602   0.21885   0.00000  Uiso   1.00
C661   C     0.81093   0.69066   0.21885   0.00000  Uiso   1.00
C662   C     0.85574   0.97601   0.28115   0.00000  Uiso   1.00
C663   C     0.83328   0.83334   0.16327   0.00000  Uiso   1.00
C664   C     0.83339   0.83333   0.33673   0.00000  Uiso   1.00
C665   C     0.83359   0.87461   0.40754   0.00000  Uiso   1.00
C666   C     0.83308   0.79206   0.09246   0.00000  Uiso   1.00
C667   C     0.83340   0.83333   0.38467   0.00000  Uiso   1.00
C668   C     0.91315   0.83335   0.25012   0.00000  Uiso   1.00
C669   C     0.83327   0.83334   0.11533   0.00000  Uiso   1.00
C670   C     0.83323   0.79205   0.40757   0.00000  Uiso   1.00
C671   C     0.83344   0.87462   0.09243   0.00000  Uiso   1.00
C672   C     0.83325   0.79174   0.45366   0.00000  Uiso   1.00
C673   C     0.83342   0.87493   0.04635   0.00000  Uiso   1.00
C674   C     0.83336   0.83333   0.47682   0.00000  Uiso   1.00
C675   C     0.83331   0.83334   0.02318   0.00000  Uiso   1.00
C676   C     0.83351   0.87493   0.45363   0.00000  Uiso   1.00
C677   C     0.83316   0.79174   0.04637   0.00000  Uiso   1.00
C678   C     0.83315   0.75058   0.47688   0.00000  Uiso   1.00
C679   C     0.83310   0.75059   0.02318   0.00000  Uiso   1.00
C680   C     0.83352   0.91608   0.02312   0.00000  Uiso   1.00
C681   C     0.71319   0.82841   0.16488   0.00000  Uiso   1.00
C682   C     0.72414   0.87550   0.14721   0.00000  Uiso   1.00
C683   C     0.95347   0.83825   0.33512   0.00000  Uiso   1.00
C684   C     0.94253   0.79116   0.35279   0.00000  Uiso   1.00
C685   C     0.95292   0.83125   0.16489   0.00000  Uiso   1.00
C686   C     0.94233   0.78297   0.15026   0.00000  Uiso   1.00
C687   C     0.71374   0.83542   0.33511   0.00000  Uiso   1.00
C688   C     0.72434   0.88370   0.34974   0.00000  Uiso   1.00
C689   C     0.83357   0.91608   0.47682   0.00000  Uiso   1.00
C690   C     0.68844   0.83116   0.20849   0.00000  Uiso   1.00
C691   C     0.97823   0.83551   0.29151   0.00000  Uiso   1.00
C692   C     0.97795   0.83177   0.20853   0.00000  Uiso   1.00
C693   C     0.68872   0.83490   0.29147   0.00000  Uiso   1.00
C694   C     0.95733   0.83354   0.25005   0.00000  Uiso   1.00
H695   H     0.83371   0.90651   0.38959   0.00000  Uiso   1.00
H696   H     0.79305   0.95787   0.19392   0.00000  Uiso   1.00
H697   H     0.79300   0.70884   0.19397   0.00000  Uiso   1.00
H698   H     0.87367   0.95783   0.30603   0.00000  Uiso   1.00
H699   H     0.69544   0.89620   0.14246   0.00000  Uiso   1.00
H700   H     0.74532   0.89338   0.17068   0.00000  Uiso   1.00
H701   H     0.74033   0.87229   0.11464   0.00000  Uiso   1.00
H702   H     0.74248   0.80863   0.16921   0.00000  Uiso   1.00
H703   H     0.69598   0.80937   0.13884   0.00000  Uiso   1.00
H704   H     0.97123   0.77047   0.35754   0.00000  Uiso   1.00
H705   H     0.92135   0.77329   0.32932   0.00000  Uiso   1.00
H706   H     0.83296   0.76015   0.11041   0.00000  Uiso   1.00
H707   H     0.92633   0.79437   0.38536   0.00000  Uiso   1.00
H708   H     0.97069   0.85730   0.36116   0.00000  Uiso   1.00
H709   H     0.92418   0.85804   0.33079   0.00000  Uiso   1.00
H710   H     0.97117   0.76226   0.14689   0.00000  Uiso   1.00
H711   H     0.92131   0.76638   0.17471   0.00000  Uiso   1.00
H712   H     0.92605   0.78391   0.11752   0.00000  Uiso   1.00
H713   H     0.92345   0.85093   0.16798   0.00000  Uiso   1.00
H714   H     0.96983   0.84881   0.13769   0.00000  Uiso   1.00
H715   H     0.69550   0.90441   0.35311   0.00000  Uiso   1.00
H716   H     0.74536   0.90029   0.32529   0.00000  Uiso   1.00
H717   H     0.83317   0.76014   0.38963   0.00000  Uiso   1.00
H718   H     0.74062   0.88276   0.38248   0.00000  Uiso   1.00
H719   H     0.69684   0.81785   0.36231   0.00000  Uiso   1.00
H720   H     0.74321   0.81574   0.33202   0.00000  Uiso   1.00
H721   H     0.83350   0.90652   0.11037   0.00000  Uiso   1.00
H722   H     0.83309   0.71852   0.45926   0.00000  Uiso   1.00
H723   H     0.83357   0.94815   0.04074   0.00000  Uiso   1.00
H724   H     0.83301   0.71853   0.04082   0.00000  Uiso   1.00
H725   H     0.83366   0.94814   0.45918   0.00000  Uiso   1.00
H726   H     0.87361   0.70880   0.30608   0.00000  Uiso   1.00
N727   N     0.83333   0.95240   0.25000   0.00000  Uiso   1.00
N728   N     0.83333   0.71427   0.25000   0.00000  Uiso   1.00
O729   O     0.77226   0.87154   0.25000   0.00000  Uiso   1.00
O730   O     0.89441   0.79513   0.25001   0.00000  Uiso   1.00
O731   O     0.89441   0.87154   0.25001   0.00000  Uiso   1.00
O732   O     0.77226   0.79513   0.25000   0.00000  Uiso   1.00
O733   O     0.83333   0.87156   0.18393   0.00000  Uiso   1.00
O734   O     0.83334   0.79511   0.31608   0.00000  Uiso   1.00
O735   O     0.83334   0.87156   0.31608   0.00000  Uiso   1.00
O736   O     0.83333   0.79511   0.18393   0.00000  Uiso   1.00
Zn737  Zn    0.83333   0.88437   0.25000   0.00000  Uiso   1.00
Zn738  Zn    0.83333   0.78229   0.25000   0.00000  Uiso   1.00
C739   C     0.08685   0.16665   0.74988   0.00000  Uiso   1.00
C740   C     0.04267   0.16646   0.74995   0.00000  Uiso   1.00
C741   C     0.18906   0.02398   0.78115   0.00000  Uiso   1.00
C742   C     0.14427   0.30935   0.71885   0.00000  Uiso   1.00
C743   C     0.14426   0.02399   0.71885   0.00000  Uiso   1.00
C744   C     0.18907   0.30934   0.78115   0.00000  Uiso   1.00
C745   C     0.16661   0.16667   0.66327   0.00000  Uiso   1.00
C746   C     0.16672   0.16666   0.83673   0.00000  Uiso   1.00
C747   C     0.16692   0.20794   0.90754   0.00000  Uiso   1.00
C748   C     0.16641   0.12539   0.59246   0.00000  Uiso   1.00
C749   C     0.16673   0.16666   0.88467   0.00000  Uiso   1.00
C750   C     0.24649   0.16668   0.75012   0.00000  Uiso   1.00
C751   C     0.16660   0.16667   0.61533   0.00000  Uiso   1.00
C752   C     0.16656   0.12538   0.90757   0.00000  Uiso   1.00
C753   C     0.16677   0.20795   0.59243   0.00000  Uiso   1.00
C754   C     0.16658   0.12507   0.95366   0.00000  Uiso   1.00
C755   C     0.16675   0.20826   0.54635   0.00000  Uiso   1.00
C756   C     0.16669   0.16667   0.97682   0.00000  Uiso   1.00
C757   C     0.16664   0.16667   0.52318   0.00000  Uiso   1.00
C758   C     0.16684   0.20826   0.95363   0.00000  Uiso   1.00
C759   C     0.16649   0.12507   0.54637   0.00000  Uiso   1.00
C760   C     0.16648   0.08392   0.97688   0.00000  Uiso   1.00
C761   C     0.16643   0.08392   0.52318   0.00000  Uiso   1.00
C762   C     0.16685   0.24942   0.52312   0.00000  Uiso   1.00
C763   C     0.04653   0.16174   0.66488   0.00000  Uiso   1.00
C764   C     0.05747   0.20883   0.64721   0.00000  Uiso   1.00
C765   C     0.28681   0.17159   0.83512   0.00000  Uiso   1.00
C766   C     0.27586   0.12450   0.85279   0.00000  Uiso   1.00
C767   C     0.28626   0.16458   0.66489   0.00000  Uiso   1.00
C768   C     0.27566   0.11630   0.65026   0.00000  Uiso   1.00
C769   C     0.04708   0.16875   0.83511   0.00000  Uiso   1.00
C770   C     0.05767   0.21703   0.84974   0.00000  Uiso   1.00
C771   C     0.16690   0.24941   0.97682   0.00000  Uiso   1.00
C772   C     0.02177   0.16449   0.70849   0.00000  Uiso   1.00
C773   C     0.31156   0.16884   0.79151   0.00000  Uiso   1.00
C774   C     0.31128   0.16510   0.70853   0.00000  Uiso   1.00
C775   C     0.02205   0.16823   0.79147   0.00000  Uiso   1.00
C776   C     0.29067   0.16687   0.75005   0.00000  Uiso   1.00
H777   H     0.16704   0.23985   0.88959   0.00000  Uiso   1.00
H778   H     0.12639   0.29120   0.69392   0.00000  Uiso   1.00
H779   H     0.12633   0.04217   0.69397   0.00000  Uiso   1.00
H780   H     0.20700   0.29116   0.80603   0.00000  Uiso   1.00
H781   H     0.02877   0.22953   0.64246   0.00000  Uiso   1.00
H782   H     0.07865   0.22671   0.67068   0.00000  Uiso   1.00
H783   H     0.07367   0.20562   0.61464   0.00000  Uiso   1.00
H784   H     0.07582   0.14196   0.66921   0.00000  Uiso   1.00
H785   H     0.02931   0.14270   0.63884   0.00000  Uiso   1.00
H786   H     0.30456   0.10380   0.85754   0.00000  Uiso   1.00
H787   H     0.25468   0.10662   0.82932   0.00000  Uiso   1.00
H788   H     0.16630   0.09349   0.61041   0.00000  Uiso   1.00
H789   H     0.25967   0.12771   0.88536   0.00000  Uiso   1.00
H790   H     0.30402   0.19063   0.86116   0.00000  Uiso   1.00
H791   H     0.25752   0.19137   0.83079   0.00000  Uiso   1.00
H792   H     0.30450   0.09559   0.64689   0.00000  Uiso   1.00
H793   H     0.25464   0.09971   0.67471   0.00000  Uiso   1.00
H794   H     0.25938   0.11724   0.61752   0.00000  Uiso   1.00
H795   H     0.25679   0.18426   0.66798   0.00000  Uiso   1.00
H796   H     0.30316   0.18215   0.63769   0.00000  Uiso   1.00
H797   H     0.02883   0.23774   0.85311   0.00000  Uiso   1.00
H798   H     0.07869   0.23362   0.82529   0.00000  Uiso   1.00
H799   H     0.16650   0.09348   0.88963   0.00000  Uiso   1.00
H800   H     0.07395   0.21609   0.88248   0.00000  Uiso   1.00
H801   H     0.03017   0.15119   0.86231   0.00000  Uiso   1.00
H802   H     0.07655   0.14907   0.83202   0.00000  Uiso   1.00
H803   H     0.16684   0.23986   0.61037   0.00000  Uiso   1.00
H804   H     0.16643   0.05186   0.95926   0.00000  Uiso   1.00
H805   H     0.16691   0.28148   0.54074   0.00000  Uiso   1.00
H806   H     0.16634   0.05186   0.54082   0.00000  Uiso   1.00
H807   H     0.16699   0.28147   0.95918   0.00000  Uiso   1.00
H808   H     0.20695   0.04213   0.80608   0.00000  Uiso   1.00
N809   N     0.16667   0.28573   0.75000   0.00000  Uiso   1.00
N810   N     0.16667   0.04760   0.75000   0.00000  Uiso   1.00
O811   O     0.10559   0.20487   0.75000   0.00000  Uiso   1.00
O812   O     0.22774   0.12846   0.75001   0.00000  Uiso   1.00
O813   O     0.22774   0.20487   0.75001   0.00000  Uiso   1.00
O814   O     0.10559   0.12846   0.75000   0.00000  Uiso   1.00
O815   O     0.16666   0.20489   0.68393   0.00000  Uiso   1.00
O816   O     0.16667   0.12844   0.81608   0.00000  Uiso   1.00
O817   O     0.16667   0.20489   0.81608   0.00000  Uiso   1.00
O818   O     0.16666   0.12844   0.68393   0.00000  Uiso   1.00
Zn819  Zn    0.16667   0.21771   0.75000   0.00000  Uiso   1.00
Zn820  Zn    0.16667   0.11563   0.75000   0.00000  Uiso   1.00
C821   C     0.42018   0.16665   0.74988   0.00000  Uiso   1.00
C822   C     0.37600   0.16646   0.74995   0.00000  Uiso   1.00
C823   C     0.52240   0.02398   0.78115   0.00000  Uiso   1.00
C824   C     0.47760   0.30935   0.71885   0.00000  Uiso   1.00
C825   C     0.47759   0.02399   0.71885   0.00000  Uiso   1.00
C826   C     0.52241   0.30934   0.78115   0.00000  Uiso   1.00
C827   C     0.49994   0.16667   0.66327   0.00000  Uiso   1.00
C828   C     0.50006   0.16666   0.83673   0.00000  Uiso   1.00
C829   C     0.50025   0.20794   0.90754   0.00000  Uiso   1.00
C830   C     0.49975   0.12539   0.59246   0.00000  Uiso   1.00
C831   C     0.50007   0.16666   0.88467   0.00000  Uiso   1.00
C832   C     0.57982   0.16668   0.75012   0.00000  Uiso   1.00
C833   C     0.49993   0.16667   0.61533   0.00000  Uiso   1.00
C834   C     0.49990   0.12538   0.90757   0.00000  Uiso   1.00
C835   C     0.50010   0.20795   0.59243   0.00000  Uiso   1.00
C836   C     0.49992   0.12507   0.95366   0.00000  Uiso   1.00
C837   C     0.50008   0.20826   0.54635   0.00000  Uiso   1.00
C838   C     0.50002   0.16667   0.97682   0.00000  Uiso   1.00
C839   C     0.49998   0.16667   0.52318   0.00000  Uiso   1.00
C840   C     0.50017   0.20826   0.95363   0.00000  Uiso   1.00
C841   C     0.49983   0.12507   0.54637   0.00000  Uiso   1.00
C842   C     0.49982   0.08392   0.97688   0.00000  Uiso   1.00
C843   C     0.49977   0.08392   0.52318   0.00000  Uiso   1.00
C844   C     0.50018   0.24942   0.52312   0.00000  Uiso   1.00
C845   C     0.37986   0.16174   0.66488   0.00000  Uiso   1.00
C846   C     0.39081   0.20883   0.64721   0.00000  Uiso   1.00
C847   C     0.62014   0.17159   0.83512   0.00000  Uiso   1.00
C848   C     0.60919   0.12450   0.85279   0.00000  Uiso   1.00
C849   C     0.61959   0.16458   0.66489   0.00000  Uiso   1.00
C850   C     0.60899   0.11630   0.65026   0.00000  Uiso   1.00
C851   C     0.38041   0.16875   0.83511   0.00000  Uiso   1.00
C852   C     0.39101   0.21703   0.84974   0.00000  Uiso   1.00
C853   C     0.50023   0.24941   0.97682   0.00000  Uiso   1.00
C854   C     0.35510   0.16449   0.70849   0.00000  Uiso   1.00
C855   C     0.64490   0.16884   0.79151   0.00000  Uiso   1.00
C856   C     0.64462   0.16510   0.70853   0.00000  Uiso   1.00
C857   C     0.35538   0.16823   0.79147   0.00000  Uiso   1.00
C858   C     0.62400   0.16687   0.75005   0.00000  Uiso   1.00
H859   H     0.50037   0.23985   0.88959   0.00000  Uiso   1.00
H860   H     0.45972   0.29120   0.69392   0.00000  Uiso   1.00
H861   H     0.45966   0.04217   0.69397   0.00000  Uiso   1.00
H862   H     0.54034   0.29116   0.80603   0.00000  Uiso   1.00
H863   H     0.36211   0.22953   0.64246   0.00000  Uiso   1.00
H864   H     0.41198   0.22671   0.67068   0.00000  Uiso   1.00
H865   H     0.40700   0.20562   0.61464   0.00000  Uiso   1.00
H866   H     0.40915   0.14196   0.66921   0.00000  Uiso   1.00
H867   H     0.36265   0.14270   0.63884   0.00000  Uiso   1.00
H868   H     0.63790   0.10380   0.85754   0.00000  Uiso   1.00
H869   H     0.58802   0.10662   0.82932   0.00000  Uiso   1.00
H870   H     0.49963   0.09349   0.61041   0.00000  Uiso   1.00
H871   H     0.59300   0.12771   0.88536   0.00000  Uiso   1.00
H872   H     0.63735   0.19063   0.86116   0.00000  Uiso   1.00
H873   H     0.59085   0.19137   0.83079   0.00000  Uiso   1.00
H874   H     0.63784   0.09559   0.64689   0.00000  Uiso   1.00
H875   H     0.58798   0.09971   0.67471   0.00000  Uiso   1.00
H876   H     0.59272   0.11724   0.61752   0.00000  Uiso   1.00
H877   H     0.59012   0.18426   0.66798   0.00000  Uiso   1.00
H878   H     0.63649   0.18215   0.63769   0.00000  Uiso   1.00
H879   H     0.36216   0.23774   0.85311   0.00000  Uiso   1.00
H880   H     0.41202   0.23362   0.82529   0.00000  Uiso   1.00
H881   H     0.49983   0.09348   0.88963   0.00000  Uiso   1.00
H882   H     0.40729   0.21609   0.88248   0.00000  Uiso   1.00
H883   H     0.36351   0.15119   0.86231   0.00000  Uiso   1.00
H884   H     0.40988   0.14907   0.83202   0.00000  Uiso   1.00
H885   H     0.50017   0.23986   0.61037   0.00000  Uiso   1.00
H886   H     0.49976   0.05186   0.95926   0.00000  Uiso   1.00
H887   H     0.50024   0.28148   0.54074   0.00000  Uiso   1.00
H888   H     0.49968   0.05186   0.54082   0.00000  Uiso   1.00
H889   H     0.50032   0.28147   0.95918   0.00000  Uiso   1.00
H890   H     0.54028   0.04213   0.80608   0.00000  Uiso   1.00
N891   N     0.50000   0.28573   0.75000   0.00000  Uiso   1.00
N892   N     0.50000   0.04760   0.75000   0.00000  Uiso   1.00
O893   O     0.43892   0.20487   0.75000   0.00000  Uiso   1.00
O894   O     0.56108   0.12846   0.75001   0.00000  Uiso   1.00
O895   O     0.56108   0.20487   0.75001   0.00000  Uiso   1.00
O896   O     0.43892   0.12846   0.75000   0.00000  Uiso   1.00
O897   O     0.49999   0.20489   0.68393   0.00000  Uiso   1.00
O898   O     0.50001   0.12844   0.81608   0.00000  Uiso   1.00
O899   O     0.50001   0.20489   0.81608   0.00000  Uiso   1.00
O900   O     0.49999   0.12844   0.68393   0.00000  Uiso   1.00
Zn901  Zn    0.50000   0.21771   0.75000   0.00000  Uiso   1.00
Zn902  Zn    0.50000   0.11563   0.75000   0.00000  Uiso   1.00
C903   C     0.75351   0.16665   0.74988   0.00000  Uiso   1.00
C904   C     0.70933   0.16646   0.74995   0.00000  Uiso   1.00
C905   C     0.85573   0.02398   0.78115   0.00000  Uiso   1.00
C906   C     0.81094   0.30935   0.71885   0.00000  Uiso   1.00
C907   C     0.81093   0.02399   0.71885   0.00000  Uiso   1.00
C908   C     0.85574   0.30934   0.78115   0.00000  Uiso   1.00
C909   C     0.83328   0.16667   0.66327   0.00000  Uiso   1.00
C910   C     0.83339   0.16666   0.83673   0.00000  Uiso   1.00
C911   C     0.83359   0.20794   0.90754   0.00000  Uiso   1.00
C912   C     0.83308   0.12539   0.59246   0.00000  Uiso   1.00
C913   C     0.83340   0.16666   0.88467   0.00000  Uiso   1.00
C914   C     0.91315   0.16668   0.75012   0.00000  Uiso   1.00
C915   C     0.83327   0.16667   0.61533   0.00000  Uiso   1.00
C916   C     0.83323   0.12538   0.90757   0.00000  Uiso   1.00
C917   C     0.83344   0.20795   0.59243   0.00000  Uiso   1.00
C918   C     0.83325   0.12507   0.95366   0.00000  Uiso   1.00
C919   C     0.83342   0.20826   0.54635   0.00000  Uiso   1.00
C920   C     0.83336   0.16667   0.97682   0.00000  Uiso   1.00
C921   C     0.83331   0.16667   0.52318   0.00000  Uiso   1.00
C922   C     0.83351   0.20826   0.95363   0.00000  Uiso   1.00
C923   C     0.83316   0.12507   0.54637   0.00000  Uiso   1.00
C924   C     0.83315   0.08392   0.97688   0.00000  Uiso   1.00
C925   C     0.83310   0.08392   0.52318   0.00000  Uiso   1.00
C926   C     0.83352   0.24942   0.52312   0.00000  Uiso   1.00
C927   C     0.71319   0.16174   0.66488   0.00000  Uiso   1.00
C928   C     0.72414   0.20883   0.64721   0.00000  Uiso   1.00
C929   C     0.95347   0.17159   0.83512   0.00000  Uiso   1.00
C930   C     0.94253   0.12450   0.85279   0.00000  Uiso   1.00
C931   C     0.95292   0.16458   0.66489   0.00000  Uiso   1.00
C932   C     0.94233   0.11630   0.65026   0.00000  Uiso   1.00
C933   C     0.71374   0.16875   0.83511   0.00000  Uiso   1.00
C934   C     0.72434   0.21703   0.84974   0.00000  Uiso   1.00
C935   C     0.83357   0.24941   0.97682   0.00000  Uiso   1.00
C936   C     0.68844   0.16449   0.70849   0.00000  Uiso   1.00
C937   C     0.97823   0.16884   0.79151   0.00000  Uiso   1.00
C938   C     0.97795   0.16510   0.70853   0.00000  Uiso   1.00
C939   C     0.68872   0.16823   0.79147   0.00000  Uiso   1.00
C940   C     0.95733   0.16687   0.75005   0.00000  Uiso   1.00
H941   H     0.83371   0.23985   0.88959   0.00000  Uiso   1.00
H942   H     0.79305   0.29120   0.69392   0.00000  Uiso   1.00
H943   H     0.79300   0.04217   0.69397   0.00000  Uiso   1.00
H944   H     0.87367   0.29116   0.80603   0.00000  Uiso   1.00
H945   H     0.69544   0.22953   0.64246   0.00000  Uiso   1.00
H946   H     0.74532   0.22671   0.67068   0.00000  Uiso   1.00
H947   H     0.74033   0.20562   0.61464   0.00000  Uiso   1.00
H948   H     0.74248   0.14196   0.66921   0.00000  Uiso   1.00
H949   H     0.69598   0.14270   0.63884   0.00000  Uiso   1.00
H950   H     0.97123   0.10380   0.85754   0.00000  Uiso   1.00
H951   H     0.92135   0.10662   0.82932   0.00000  Uiso   1.00
H952   H     0.83296   0.09349   0.61041   0.00000  Uiso   1.00
H953   H     0.92633   0.12771   0.88536   0.00000  Uiso   1.00
H954   H     0.97069   0.19063   0.86116   0.00000  Uiso   1.00
H955   H     0.92418   0.19137   0.83079   0.00000  Uiso   1.00
H956   H     0.97117   0.09559   0.64689   0.00000  Uiso   1.00
H957   H     0.92131   0.09971   0.67471   0.00000  Uiso   1.00
H958   H     0.92605   0.11724   0.61752   0.00000  Uiso   1.00
H959   H     0.92345   0.18426   0.66798   0.00000  Uiso   1.00
H960   H     0.96983   0.18215   0.63769   0.00000  Uiso   1.00
H961   H     0.69550   0.23774   0.85311   0.00000  Uiso   1.00
H962   H     0.74536   0.23362   0.82529   0.00000  Uiso   1.00
H963   H     0.83317   0.09348   0.88963   0.00000  Uiso   1.00
H964   H     0.74062   0.21609   0.88248   0.00000  Uiso   1.00
H965   H     0.69684   0.15119   0.86231   0.00000  Uiso   1.00
H966   H     0.74321   0.14907   0.83202   0.00000  Uiso   1.00
H967   H     0.83350   0.23986   0.61037   0.00000  Uiso   1.00
H968   H     0.83309   0.05186   0.95926   0.00000  Uiso   1.00
H969   H     0.83357   0.28148   0.54074   0.00000  Uiso   1.00
H970   H     0.83301   0.05186   0.54082   0.00000  Uiso   1.00
H971   H     0.83366   0.28147   0.95918   0.00000  Uiso   1.00
H972   H     0.87361   0.04213   0.80608   0.00000  Uiso   1.00
N973   N     0.83333   0.28573   0.75000   0.00000  Uiso   1.00
N974   N     0.83333   0.04760   0.75000   0.00000  Uiso   1.00
O975   O     0.77226   0.20487   0.75000   0.00000  Uiso   1.00
O976   O     0.89441   0.12846   0.75001   0.00000  Uiso   1.00
O977   O     0.89441   0.20487   0.75001   0.00000  Uiso   1.00
O978   O     0.77226   0.12846   0.75000   0.00000  Uiso   1.00
O979   O     0.83333   0.20489   0.68393   0.00000  Uiso   1.00
O980   O     0.83334   0.12844   0.81608   0.00000  Uiso   1.00
O981   O     0.83334   0.20489   0.81608   0.00000  Uiso   1.00
O982   O     0.83333   0.12844   0.68393   0.00000  Uiso   1.00
Zn983  Zn    0.83333   0.21771   0.75000   0.00000  Uiso   1.00
Zn984  Zn    0.83333   0.11563   0.75000   0.00000  Uiso   1.00
C985   C     0.08685   0.49998   0.74988   0.00000  Uiso   1.00
C986   C     0.04267   0.49980   0.74995   0.00000  Uiso   1.00
C987   C     0.18906   0.35731   0.78115   0.00000  Uiso   1.00
C988   C     0.14427   0.64269   0.71885   0.00000  Uiso   1.00
C989   C     0.14426   0.35732   0.71885   0.00000  Uiso   1.00
C990   C     0.18907   0.64268   0.78115   0.00000  Uiso   1.00
C991   C     0.16661   0.50000   0.66327   0.00000  Uiso   1.00
C992   C     0.16672   0.50000   0.83673   0.00000  Uiso   1.00
C993   C     0.16692   0.54127   0.90754   0.00000  Uiso   1.00
C994   C     0.16641   0.45873   0.59246   0.00000  Uiso   1.00
C995   C     0.16673   0.49999   0.88467   0.00000  Uiso   1.00
C996   C     0.24649   0.50002   0.75012   0.00000  Uiso   1.00
C997   C     0.16660   0.50001   0.61533   0.00000  Uiso   1.00
C998   C     0.16656   0.45872   0.90757   0.00000  Uiso   1.00
C999   C     0.16677   0.54128   0.59243   0.00000  Uiso   1.00
C1000  C     0.16658   0.45840   0.95366   0.00000  Uiso   1.00
C1001  C     0.16675   0.54160   0.54635   0.00000  Uiso   1.00
C1002  C     0.16669   0.50000   0.97682   0.00000  Uiso   1.00
C1003  C     0.16664   0.50000   0.52318   0.00000  Uiso   1.00
C1004  C     0.16684   0.54159   0.95363   0.00000  Uiso   1.00
C1005  C     0.16649   0.45841   0.54637   0.00000  Uiso   1.00
C1006  C     0.16648   0.41725   0.97688   0.00000  Uiso   1.00
C1007  C     0.16643   0.41725   0.52318   0.00000  Uiso   1.00
C1008  C     0.16685   0.58275   0.52312   0.00000  Uiso   1.00
C1009  C     0.04653   0.49508   0.66488   0.00000  Uiso   1.00
C1010  C     0.05747   0.54217   0.64721   0.00000  Uiso   1.00
C1011  C     0.28681   0.50492   0.83512   0.00000  Uiso   1.00
C1012  C     0.27586   0.45783   0.85279   0.00000  Uiso   1.00
C1013  C     0.28626   0.49792   0.66489   0.00000  Uiso   1.00
C1014  C     0.27566   0.44964   0.65026   0.00000  Uiso   1.00
C1015  C     0.04708   0.50208   0.83511   0.00000  Uiso   1.00
C1016  C     0.05767   0.55036   0.84974   0.00000  Uiso   1.00
C1017  C     0.16690   0.58275   0.97682   0.00000  Uiso   1.00
C1018  C     0.02177   0.49782   0.70849   0.00000  Uiso   1.00
C1019  C     0.31156   0.50218   0.79151   0.00000  Uiso   1.00
C1020  C     0.31128   0.49843   0.70853   0.00000  Uiso   1.00
C1021  C     0.02205   0.50157   0.79147   0.00000  Uiso   1.00
C1022  C     0.29067   0.50020   0.75005   0.00000  Uiso   1.00
H1023  H     0.16704   0.57318   0.88959   0.00000  Uiso   1.00
H1024  H     0.12639   0.62453   0.69392   0.00000  Uiso   1.00
H1025  H     0.12633   0.37550   0.69397   0.00000  Uiso   1.00
H1026  H     0.20700   0.62450   0.80603   0.00000  Uiso   1.00
H1027  H     0.02877   0.56287   0.64246   0.00000  Uiso   1.00
H1028  H     0.07865   0.56005   0.67068   0.00000  Uiso   1.00
H1029  H     0.07367   0.53896   0.61464   0.00000  Uiso   1.00
H1030  H     0.07582   0.47529   0.66921   0.00000  Uiso   1.00
H1031  H     0.02931   0.47604   0.63884   0.00000  Uiso   1.00
H1032  H     0.30456   0.43713   0.85754   0.00000  Uiso   1.00
H1033  H     0.25468   0.43995   0.82932   0.00000  Uiso   1.00
H1034  H     0.16630   0.42682   0.61041   0.00000  Uiso   1.00
H1035  H     0.25967   0.46104   0.88536   0.00000  Uiso   1.00
H1036  H     0.30402   0.52396   0.86116   0.00000  Uiso   1.00
H1037  H     0.25752   0.52471   0.83079   0.00000  Uiso   1.00
H1038  H     0.30450   0.42892   0.64689   0.00000  Uiso   1.00
H1039  H     0.25464   0.43304   0.67471   0.00000  Uiso   1.00
H1040  H     0.25938   0.45058   0.61752   0.00000  Uiso   1.00
H1041  H     0.25679   0.51760   0.66798   0.00000  Uiso   1.00
H1042  H     0.30316   0.51548   0.63769   0.00000  Uiso   1.00
H1043  H     0.02883   0.57108   0.85311   0.00000  Uiso   1.00
H1044  H     0.07869   0.56696   0.82529   0.00000  Uiso   1.00
H1045  H     0.16650   0.42681   0.88963   0.00000  Uiso   1.00
H1046  H     0.07395   0.54942   0.88248   0.00000  Uiso   1.00
H1047  H     0.03017   0.48452   0.86231   0.00000  Uiso   1.00
H1048  H     0.07655   0.48240   0.83202   0.00000  Uiso   1.00
H1049  H     0.16684   0.57319   0.61037   0.00000  Uiso   1.00
H1050  H     0.16643   0.38519   0.95926   0.00000  Uiso   1.00
H1051  H     0.16691   0.61481   0.54074   0.00000  Uiso   1.00
H1052  H     0.16634   0.38519   0.54082   0.00000  Uiso   1.00
H1053  H     0.16699   0.61481   0.95918   0.00000  Uiso   1.00
H1054  H     0.20695   0.37547   0.80608   0.00000  Uiso   1.00
N1055  N     0.16667   0.61907   0.75000   0.00000  Uiso   1.00
N1056  N     0.16667   0.38093   0.75000   0.00000  Uiso   1.00
O1057  O     0.10559   0.53821   0.75000   0.00000  Uiso   1.00
O1058  O     0.22774   0.46179   0.75001   0.00000  Uiso   1.00
O1059  O     0.22774   0.53821   0.75001   0.00000  Uiso   1.00
O1060  O     0.10559   0.46179   0.75000   0.00000  Uiso   1.00
O1061  O     0.16666   0.53823   0.68393   0.00000  Uiso   1.00
O1062  O     0.16667   0.46177   0.81608   0.00000  Uiso   1.00
O1063  O     0.16667   0.53823   0.81608   0.00000  Uiso   1.00
O1064  O     0.16666   0.46177   0.68393   0.00000  Uiso   1.00
Zn1065 Zn    0.16667   0.55104   0.75000   0.00000  Uiso   1.00
Zn1066 Zn    0.16667   0.44896   0.75000   0.00000  Uiso   1.00
C1067  C     0.42018   0.49998   0.74988   0.00000  Uiso   1.00
C1068  C     0.37600   0.49980   0.74995   0.00000  Uiso   1.00
C1069  C     0.52240   0.35731   0.78115   0.00000  Uiso   1.00
C1070  C     0.47760   0.64269   0.71885   0.00000  Uiso   1.00
C1071  C     0.47759   0.35732   0.71885   0.00000  Uiso   1.00
C1072  C     0.52241   0.64268   0.78115   0.00000  Uiso   1.00
C1073  C     0.49994   0.50000   0.66327   0.00000  Uiso   1.00
C1074  C     0.50006   0.50000   0.83673   0.00000  Uiso   1.00
C1075  C     0.50025   0.54127   0.90754   0.00000  Uiso   1.00
C1076  C     0.49975   0.45873   0.59246   0.00000  Uiso   1.00
C1077  C     0.50007   0.49999   0.88467   0.00000  Uiso   1.00
C1078  C     0.57982   0.50002   0.75012   0.00000  Uiso   1.00
C1079  C     0.49993   0.50001   0.61533   0.00000  Uiso   1.00
C1080  C     0.49990   0.45872   0.90757   0.00000  Uiso   1.00
C1081  C     0.50010   0.54128   0.59243   0.00000  Uiso   1.00
C1082  C     0.49992   0.45840   0.95366   0.00000  Uiso   1.00
C1083  C     0.50008   0.54160   0.54635   0.00000  Uiso   1.00
C1084  C     0.50002   0.50000   0.97682   0.00000  Uiso   1.00
C1085  C     0.49998   0.50000   0.52318   0.00000  Uiso   1.00
C1086  C     0.50017   0.54159   0.95363   0.00000  Uiso   1.00
C1087  C     0.49983   0.45841   0.54637   0.00000  Uiso   1.00
C1088  C     0.49982   0.41725   0.97688   0.00000  Uiso   1.00
C1089  C     0.49977   0.41725   0.52318   0.00000  Uiso   1.00
C1090  C     0.50018   0.58275   0.52312   0.00000  Uiso   1.00
C1091  C     0.37986   0.49508   0.66488   0.00000  Uiso   1.00
C1092  C     0.39081   0.54217   0.64721   0.00000  Uiso   1.00
C1093  C     0.62014   0.50492   0.83512   0.00000  Uiso   1.00
C1094  C     0.60919   0.45783   0.85279   0.00000  Uiso   1.00
C1095  C     0.61959   0.49792   0.66489   0.00000  Uiso   1.00
C1096  C     0.60899   0.44964   0.65026   0.00000  Uiso   1.00
C1097  C     0.38041   0.50208   0.83511   0.00000  Uiso   1.00
C1098  C     0.39101   0.55036   0.84974   0.00000  Uiso   1.00
C1099  C     0.50023   0.58275   0.97682   0.00000  Uiso   1.00
C1100  C     0.35510   0.49782   0.70849   0.00000  Uiso   1.00
C1101  C     0.64490   0.50218   0.79151   0.00000  Uiso   1.00
C1102  C     0.64462   0.49843   0.70853   0.00000  Uiso   1.00
C1103  C     0.35538   0.50157   0.79147   0.00000  Uiso   1.00
C1104  C     0.62400   0.50020   0.75005   0.00000  Uiso   1.00
H1105  H     0.50037   0.57318   0.88959   0.00000  Uiso   1.00
H1106  H     0.45972   0.62453   0.69392   0.00000  Uiso   1.00
H1107  H     0.45966   0.37550   0.69397   0.00000  Uiso   1.00
H1108  H     0.54034   0.62450   0.80603   0.00000  Uiso   1.00
H1109  H     0.36211   0.56287   0.64246   0.00000  Uiso   1.00
H1110  H     0.41198   0.56005   0.67068   0.00000  Uiso   1.00
H1111  H     0.40700   0.53896   0.61464   0.00000  Uiso   1.00
H1112  H     0.40915   0.47529   0.66921   0.00000  Uiso   1.00
H1113  H     0.36265   0.47604   0.63884   0.00000  Uiso   1.00
H1114  H     0.63790   0.43713   0.85754   0.00000  Uiso   1.00
H1115  H     0.58802   0.43995   0.82932   0.00000  Uiso   1.00
H1116  H     0.49963   0.42682   0.61041   0.00000  Uiso   1.00
H1117  H     0.59300   0.46104   0.88536   0.00000  Uiso   1.00
H1118  H     0.63735   0.52396   0.86116   0.00000  Uiso   1.00
H1119  H     0.59085   0.52471   0.83079   0.00000  Uiso   1.00
H1120  H     0.63784   0.42892   0.64689   0.00000  Uiso   1.00
H1121  H     0.58798   0.43304   0.67471   0.00000  Uiso   1.00
H1122  H     0.59272   0.45058   0.61752   0.00000  Uiso   1.00
H1123  H     0.59012   0.51760   0.66798   0.00000  Uiso   1.00
H1124  H     0.63649   0.51548   0.63769   0.00000  Uiso   1.00
H1125  H     0.36216   0.57108   0.85311   0.00000  Uiso   1.00
H1126  H     0.41202   0.56696   0.82529   0.00000  Uiso   1.00
H1127  H     0.49983   0.42681   0.88963   0.00000  Uiso   1.00
H1128  H     0.40729   0.54942   0.88248   0.00000  Uiso   1.00
H1129  H     0.36351   0.48452   0.86231   0.00000  Uiso   1.00
H1130  H     0.40988   0.48240   0.83202   0.00000  Uiso   1.00
H1131  H     0.50017   0.57319   0.61037   0.00000  Uiso   1.00
H1132  H     0.49976   0.38519   0.95926   0.00000  Uiso   1.00
H1133  H     0.50024   0.61481   0.54074   0.00000  Uiso   1.00
H1134  H     0.49968   0.38519   0.54082   0.00000  Uiso   1.00
H1135  H     0.50032   0.61481   0.95918   0.00000  Uiso   1.00
H1136  H     0.54028   0.37547   0.80608   0.00000  Uiso   1.00
N1137  N     0.50000   0.61907   0.75000   0.00000  Uiso   1.00
N1138  N     0.50000   0.38093   0.75000   0.00000  Uiso   1.00
O1139  O     0.43892   0.53821   0.75000   0.00000  Uiso   1.00
O1140  O     0.56108   0.46179   0.75001   0.00000  Uiso   1.00
O1141  O     0.56108   0.53821   0.75001   0.00000  Uiso   1.00
O1142  O     0.43892   0.46179   0.75000   0.00000  Uiso   1.00
O1143  O     0.49999   0.53823   0.68393   0.00000  Uiso   1.00
O1144  O     0.50001   0.46177   0.81608   0.00000  Uiso   1.00
O1145  O     0.50001   0.53823   0.81608   0.00000  Uiso   1.00
O1146  O     0.49999   0.46177   0.68393   0.00000  Uiso   1.00
Zn1147 Zn    0.50000   0.55104   0.75000   0.00000  Uiso   1.00
Zn1148 Zn    0.50000   0.44896   0.75000   0.00000  Uiso   1.00
C1149  C     0.75351   0.49998   0.74988   0.00000  Uiso   1.00
C1150  C     0.70933   0.49980   0.74995   0.00000  Uiso   1.00
C1151  C     0.85573   0.35731   0.78115   0.00000  Uiso   1.00
C1152  C     0.81094   0.64269   0.71885   0.00000  Uiso   1.00
C1153  C     0.81093   0.35732   0.71885   0.00000  Uiso   1.00
C1154  C     0.85574   0.64268   0.78115   0.00000  Uiso   1.00
C1155  C     0.83328   0.50000   0.66327   0.00000  Uiso   1.00
C1156  C     0.83339   0.50000   0.83673   0.00000  Uiso   1.00
C1157  C     0.83359   0.54127   0.90754   0.00000  Uiso   1.00
C1158  C     0.83308   0.45873   0.59246   0.00000  Uiso   1.00
C1159  C     0.83340   0.49999   0.88467   0.00000  Uiso   1.00
C1160  C     0.91315   0.50002   0.75012   0.00000  Uiso   1.00
C1161  C     0.83327   0.50001   0.61533   0.00000  Uiso   1.00
C1162  C     0.83323   0.45872   0.90757   0.00000  Uiso   1.00
C1163  C     0.83344   0.54128   0.59243   0.00000  Uiso   1.00
C1164  C     0.83325   0.45840   0.95366   0.00000  Uiso   1.00
C1165  C     0.83342   0.54160   0.54635   0.00000  Uiso   1.00
C1166  C     0.83336   0.50000   0.97682   0.00000  Uiso   1.00
C1167  C     0.83331   0.50000   0.52318   0.00000  Uiso   1.00
C1168  C     0.83351   0.54159   0.95363   0.00000  Uiso   1.00
C1169  C     0.83316   0.45841   0.54637   0.00000  Uiso   1.00
C1170  C     0.83315   0.41725   0.97688   0.00000  Uiso   1.00
C1171  C     0.83310   0.41725   0.52318   0.00000  Uiso   1.00
C1172  C     0.83352   0.58275   0.52312   0.00000  Uiso   1.00
C1173  C     0.71319   0.49508   0.66488   0.00000  Uiso   1.00
C1174  C     0.72414   0.54217   0.64721   0.00000  Uiso   1.00
C1175  C     0.95347   0.50492   0.83512   0.00000  Uiso   1.00
C1176  C     0.94253   0.45783   0.85279   0.00000  Uiso   1.00
C1177  C     0.95292   0.49792   0.66489   0.00000  Uiso   1.00
C1178  C     0.94233   0.44964   0.65026   0.00000  Uiso   1.00
C1179  C     0.71374   0.50208   0.83511   0.00000  Uiso   1.00
C1180  C     0.72434   0.55036   0.84974   0.00000  Uiso   1.00
C1181  C     0.83357   0.58275   0.97682   0.00000  Uiso   1.00
C1182  C     0.68844   0.49782   0.70849   0.00000  Uiso   1.00
C1183  C     0.97823   0.50218   0.79151   0.00000  Uiso   1.00
C1184  C     0.97795   0.49843   0.70853   0.00000  Uiso   1.00
C1185  C     0.68872   0.50157   0.79147   0.00000  Uiso   1.00
C1186  C     0.95733   0.50020   0.75005   0.00000  Uiso   1.00
H1187  H     0.83371   0.57318   0.88959   0.00000  Uiso   1.00
H1188  H     0.79305   0.62453   0.69392   0.00000  Uiso   1.00
H1189  H     0.79300   0.37550   0.69397   0.00000  Uiso   1.00
H1190  H     0.87367   0.62450   0.80603   0.00000  Uiso   1.00
H1191  H     0.69544   0.56287   0.64246   0.00000  Uiso   1.00
H1192  H     0.74532   0.56005   0.67068   0.00000  Uiso   1.00
H1193  H     0.74033   0.53896   0.61464   0.00000  Uiso   1.00
H1194  H     0.74248   0.47529   0.66921   0.00000  Uiso   1.00
H1195  H     0.69598   0.47604   0.63884   0.00000  Uiso   1.00
H1196  H     0.97123   0.43713   0.85754   0.00000  Uiso   1.00
H1197  H     0.92135   0.43995   0.82932   0.00000  Uiso   1.00
H1198  H     0.83296   0.42682   0.61041   0.00000  Uiso   1.00
H1199  H     0.92633   0.46104   0.88536   0.00000  Uiso   1.00
H1200  H     0.97069   0.52396   0.86116   0.00000  Uiso   1.00
H1201  H     0.92418   0.52471   0.83079   0.00000  Uiso   1.00
H1202  H     0.97117   0.42892   0.64689   0.00000  Uiso   1.00
H1203  H     0.92131   0.43304   0.67471   0.00000  Uiso   1.00
H1204  H     0.92605   0.45058   0.61752   0.00000  Uiso   1.00
H1205  H     0.92345   0.51760   0.66798   0.00000  Uiso   1.00
H1206  H     0.96983   0.51548   0.63769   0.00000  Uiso   1.00
H1207  H     0.69550   0.57108   0.85311   0.00000  Uiso   1.00
H1208  H     0.74536   0.56696   0.82529   0.00000  Uiso   1.00
H1209  H     0.83317   0.42681   0.88963   0.00000  Uiso   1.00
H1210  H     0.74062   0.54942   0.88248   0.00000  Uiso   1.00
H1211  H     0.69684   0.48452   0.86231   0.00000  Uiso   1.00
H1212  H     0.74321   0.48240   0.83202   0.00000  Uiso   1.00
H1213  H     0.83350   0.57319   0.61037   0.00000  Uiso   1.00
H1214  H     0.83309   0.38519   0.95926   0.00000  Uiso   1.00
H1215  H     0.83357   0.61481   0.54074   0.00000  Uiso   1.00
H1216  H     0.83301   0.38519   0.54082   0.00000  Uiso   1.00
H1217  H     0.83366   0.61481   0.95918   0.00000  Uiso   1.00
H1218  H     0.87361   0.37547   0.80608   0.00000  Uiso   1.00
N1219  N     0.83333   0.61907   0.75000   0.00000  Uiso   1.00
N1220  N     0.83333   0.38093   0.75000   0.00000  Uiso   1.00
O1221  O     0.77226   0.53821   0.75000   0.00000  Uiso   1.00
O1222  O     0.89441   0.46179   0.75001   0.00000  Uiso   1.00
O1223  O     0.89441   0.53821   0.75001   0.00000  Uiso   1.00
O1224  O     0.77226   0.46179   0.75000   0.00000  Uiso   1.00
O1225  O     0.83333   0.53823   0.68393   0.00000  Uiso   1.00
O1226  O     0.83334   0.46177   0.81608   0.00000  Uiso   1.00
O1227  O     0.83334   0.53823   0.81608   0.00000  Uiso   1.00
O1228  O     0.83333   0.46177   0.68393   0.00000  Uiso   1.00
Zn1229 Zn    0.83333   0.55104   0.75000   0.00000  Uiso   1.00
Zn1230 Zn    0.83333   0.44896   0.75000   0.00000  Uiso   1.00
C1231  C     0.08685   0.83332   0.74988   0.00000  Uiso   1.00
C1232  C     0.04267   0.83313   0.74995   0.00000  Uiso   1.00
C1233  C     0.18906   0.69065   0.78115   0.00000  Uiso   1.00
C1234  C     0.14427   0.97602   0.71885   0.00000  Uiso   1.00
C1235  C     0.14426   0.69066   0.71885   0.00000  Uiso   1.00
C1236  C     0.18907   0.97601   0.78115   0.00000  Uiso   1.00
C1237  C     0.16661   0.83334   0.66327   0.00000  Uiso   1.00
C1238  C     0.16672   0.83333   0.83673   0.00000  Uiso   1.00
C1239  C     0.16692   0.87461   0.90754   0.00000  Uiso   1.00
C1240  C     0.16641   0.79206   0.59246   0.00000  Uiso   1.00
C1241  C     0.16673   0.83333   0.88467   0.00000  Uiso   1.00
C1242  C     0.24649   0.83335   0.75012   0.00000  Uiso   1.00
C1243  C     0.16660   0.83334   0.61533   0.00000  Uiso   1.00
C1244  C     0.16656   0.79205   0.90757   0.00000  Uiso   1.00
C1245  C     0.16677   0.87462   0.59243   0.00000  Uiso   1.00
C1246  C     0.16658   0.79174   0.95366   0.00000  Uiso   1.00
C1247  C     0.16675   0.87493   0.54635   0.00000  Uiso   1.00
C1248  C     0.16669   0.83333   0.97682   0.00000  Uiso   1.00
C1249  C     0.16664   0.83334   0.52318   0.00000  Uiso   1.00
C1250  C     0.16684   0.87493   0.95363   0.00000  Uiso   1.00
C1251  C     0.16649   0.79174   0.54637   0.00000  Uiso   1.00
C1252  C     0.16648   0.75058   0.97688   0.00000  Uiso   1.00
C1253  C     0.16643   0.75059   0.52318   0.00000  Uiso   1.00
C1254  C     0.16685   0.91608   0.52312   0.00000  Uiso   1.00
C1255  C     0.04653   0.82841   0.66488   0.00000  Uiso   1.00
C1256  C     0.05747   0.87550   0.64721   0.00000  Uiso   1.00
C1257  C     0.28681   0.83825   0.83512   0.00000  Uiso   1.00
C1258  C     0.27586   0.79116   0.85279   0.00000  Uiso   1.00
C1259  C     0.28626   0.83125   0.66489   0.00000  Uiso   1.00
C1260  C     0.27566   0.78297   0.65026   0.00000  Uiso   1.00
C1261  C     0.04708   0.83542   0.83511   0.00000  Uiso   1.00
C1262  C     0.05767   0.88370   0.84974   0.00000  Uiso   1.00
C1263  C     0.16690   0.91608   0.97682   0.00000  Uiso   1.00
C1264  C     0.02177   0.83116   0.70849   0.00000  Uiso   1.00
C1265  C     0.31156   0.83551   0.79151   0.00000  Uiso   1.00
C1266  C     0.31128   0.83177   0.70853   0.00000  Uiso   1.00
C1267  C     0.02205   0.83490   0.79147   0.00000  Uiso   1.00
C1268  C     0.29067   0.83354   0.75005   0.00000  Uiso   1.00
H1269  H     0.16704   0.90651   0.88959   0.00000  Uiso   1.00
H1270  H     0.12639   0.95787   0.69392   0.00000  Uiso   1.00
H1271  H     0.12633   0.70884   0.69397   0.00000  Uiso   1.00
H1272  H     0.20700   0.95783   0.80603   0.00000  Uiso   1.00
H1273  H     0.02877   0.89620   0.64246   0.00000  Uiso   1.00
H1274  H     0.07865   0.89338   0.67068   0.00000  Uiso   1.00
H1275  H     0.07367   0.87229   0.61464   0.00000  Uiso   1.00
H1276  H     0.07582   0.80863   0.66921   0.00000  Uiso   1.00
H1277  H     0.02931   0.80937   0.63884   0.00000  Uiso   1.00
H1278  H     0.30456   0.77047   0.85754   0.00000  Uiso   1.00
H1279  H     0.25468   0.77329   0.82932   0.00000  Uiso   1.00
H1280  H     0.16630   0.76015   0.61041   0.00000  Uiso   1.00
H1281  H     0.25967   0.79437   0.88536   0.00000  Uiso   1.00
H1282  H     0.30402   0.85730   0.86116   0.00000  Uiso   1.00
H1283  H     0.25752   0.85804   0.83079   0.00000  Uiso   1.00
H1284  H     0.30450   0.76226   0.64689   0.00000  Uiso   1.00
H1285  H     0.25464   0.76638   0.67471   0.00000  Uiso   1.00
H1286  H     0.25938   0.78391   0.61752   0.00000  Uiso   1.00
H1287  H     0.25679   0.85093   0.66798   0.00000  Uiso   1.00
H1288  H     0.30316   0.84881   0.63769   0.00000  Uiso   1.00
H1289  H     0.02883   0.90441   0.85311   0.00000  Uiso   1.00
H1290  H     0.07869   0.90029   0.82529   0.00000  Uiso   1.00
H1291  H     0.16650   0.76014   0.88963   0.00000  Uiso   1.00
H1292  H     0.07395   0.88276   0.88248   0.00000  Uiso   1.00
H1293  H     0.03017   0.81785   0.86231   0.00000  Uiso   1.00
H1294  H     0.07655   0.81574   0.83202   0.00000  Uiso   1.00
H1295  H     0.16684   0.90652   0.61037   0.00000  Uiso   1.00
H1296  H     0.16643   0.71852   0.95926   0.00000  Uiso   1.00
H1297  H     0.16691   0.94815   0.54074   0.00000  Uiso   1.00
H1298  H     0.16634   0.71853   0.54082   0.00000  Uiso   1.00
H1299  H     0.16699   0.94814   0.95918   0.00000  Uiso   1.00
H1300  H     0.20695   0.70880   0.80608   0.00000  Uiso   1.00
N1301  N     0.16667   0.95240   0.75000   0.00000  Uiso   1.00
N1302  N     0.16667   0.71427   0.75000   0.00000  Uiso   1.00
O1303  O     0.10559   0.87154   0.75000   0.00000  Uiso   1.00
O1304  O     0.22774   0.79513   0.75001   0.00000  Uiso   1.00
O1305  O     0.22774   0.87154   0.75001   0.00000  Uiso   1.00
O1306  O     0.10559   0.79513   0.75000   0.00000  Uiso   1.00
O1307  O     0.16666   0.87156   0.68393   0.00000  Uiso   1.00
O1308  O     0.16667   0.79511   0.81608   0.00000  Uiso   1.00
O1309  O     0.16667   0.87156   0.81608   0.00000  Uiso   1.00
O1310  O     0.16666   0.79511   0.68393   0.00000  Uiso   1.00
Zn1311 Zn    0.16667   0.88437   0.75000   0.00000  Uiso   1.00
Zn1312 Zn    0.16667   0.78229   0.75000   0.00000  Uiso   1.00
C1313  C     0.42018   0.83332   0.74988   0.00000  Uiso   1.00
C1314  C     0.37600   0.83313   0.74995   0.00000  Uiso   1.00
C1315  C     0.52240   0.69065   0.78115   0.00000  Uiso   1.00
C1316  C     0.47760   0.97602   0.71885   0.00000  Uiso   1.00
C1317  C     0.47759   0.69066   0.71885   0.00000  Uiso   1.00
C1318  C     0.52241   0.97601   0.78115   0.00000  Uiso   1.00
C1319  C     0.49994   0.83334   0.66327   0.00000  Uiso   1.00
C1320  C     0.50006   0.83333   0.83673   0.00000  Uiso   1.00
C1321  C     0.50025   0.87461   0.90754   0.00000  Uiso   1.00
C1322  C     0.49975   0.79206   0.59246   0.00000  Uiso   1.00
C1323  C     0.50007   0.83333   0.88467   0.00000  Uiso   1.00
C1324  C     0.57982   0.83335   0.75012   0.00000  Uiso   1.00
C1325  C     0.49993   0.83334   0.61533   0.00000  Uiso   1.00
C1326  C     0.49990   0.79205   0.90757   0.00000  Uiso   1.00
C1327  C     0.50010   0.87462   0.59243   0.00000  Uiso   1.00
C1328  C     0.49992   0.79174   0.95366   0.00000  Uiso   1.00
C1329  C     0.50008   0.87493   0.54635   0.00000  Uiso   1.00
C1330  C     0.50002   0.83333   0.97682   0.00000  Uiso   1.00
C1331  C     0.49998   0.83334   0.52318   0.00000  Uiso   1.00
C1332  C     0.50017   0.87493   0.95363   0.00000  Uiso   1.00
C1333  C     0.49983   0.79174   0.54637   0.00000  Uiso   1.00
C1334  C     0.49982   0.75058   0.97688   0.00000  Uiso   1.00
C1335  C     0.49977   0.75059   0.52318   0.00000  Uiso   1.00
C1336  C     0.50018   0.91608   0.52312   0.00000  Uiso   1.00
C1337  C     0.37986   0.82841   0.66488   0.00000  Uiso   1.00
C1338  C     0.39081   0.87550   0.64721   0.00000  Uiso   1.00
C1339  C     0.62014   0.83825   0.83512   0.00000  Uiso   1.00
C1340  C     0.60919   0.79116   0.85279   0.00000  Uiso   1.00
C1341  C     0.61959   0.83125   0.66489   0.00000  Uiso   1.00
C1342  C     0.60899   0.78297   0.65026   0.00000  Uiso   1.00
C1343  C     0.38041   0.83542   0.83511   0.00000  Uiso   1.00
C1344  C     0.39101   0.88370   0.84974   0.00000  Uiso   1.00
C1345  C     0.50023   0.91608   0.97682   0.00000  Uiso   1.00
C1346  C     0.35510   0.83116   0.70849   0.00000  Uiso   1.00
C1347  C     0.64490   0.83551   0.79151   0.00000  Uiso   1.00
C1348  C     0.64462   0.83177   0.70853   0.00000  Uiso   1.00
C1349  C     0.35538   0.83490   0.79147   0.00000  Uiso   1.00
C1350  C     0.62400   0.83354   0.75005   0.00000  Uiso   1.00
H1351  H     0.50037   0.90651   0.88959   0.00000  Uiso   1.00
H1352  H     0.45972   0.95787   0.69392   0.00000  Uiso   1.00
H1353  H     0.45966   0.70884   0.69397   0.00000  Uiso   1.00
H1354  H     0.54034   0.95783   0.80603   0.00000  Uiso   1.00
H1355  H     0.36211   0.89620   0.64246   0.00000  Uiso   1.00
H1356  H     0.41198   0.89338   0.67068   0.00000  Uiso   1.00
H1357  H     0.40700   0.87229   0.61464   0.00000  Uiso   1.00
H1358  H     0.40915   0.80863   0.66921   0.00000  Uiso   1.00
H1359  H     0.36265   0.80937   0.63884   0.00000  Uiso   1.00
H1360  H     0.63790   0.77047   0.85754   0.00000  Uiso   1.00
H1361  H     0.58802   0.77329   0.82932   0.00000  Uiso   1.00
H1362  H     0.49963   0.76015   0.61041   0.00000  Uiso   1.00
H1363  H     0.59300   0.79437   0.88536   0.00000  Uiso   1.00
H1364  H     0.63735   0.85730   0.86116   0.00000  Uiso   1.00
H1365  H     0.59085   0.85804   0.83079   0.00000  Uiso   1.00
H1366  H     0.63784   0.76226   0.64689   0.00000  Uiso   1.00
H1367  H     0.58798   0.76638   0.67471   0.00000  Uiso   1.00
H1368  H     0.59272   0.78391   0.61752   0.00000  Uiso   1.00
H1369  H     0.59012   0.85093   0.66798   0.00000  Uiso   1.00
H1370  H     0.63649   0.84881   0.63769   0.00000  Uiso   1.00
H1371  H     0.36216   0.90441   0.85311   0.00000  Uiso   1.00
H1372  H     0.41202   0.90029   0.82529   0.00000  Uiso   1.00
H1373  H     0.49983   0.76014   0.88963   0.00000  Uiso   1.00
H1374  H     0.40729   0.88276   0.88248   0.00000  Uiso   1.00
H1375  H     0.36351   0.81785   0.86231   0.00000  Uiso   1.00
H1376  H     0.40988   0.81574   0.83202   0.00000  Uiso   1.00
H1377  H     0.50017   0.90652   0.61037   0.00000  Uiso   1.00
H1378  H     0.49976   0.71852   0.95926   0.00000  Uiso   1.00
H1379  H     0.50024   0.94815   0.54074   0.00000  Uiso   1.00
H1380  H     0.49968   0.71853   0.54082   0.00000  Uiso   1.00
H1381  H     0.50032   0.94814   0.95918   0.00000  Uiso   1.00
H1382  H     0.54028   0.70880   0.80608   0.00000  Uiso   1.00
N1383  N     0.50000   0.95240   0.75000   0.00000  Uiso   1.00
N1384  N     0.50000   0.71427   0.75000   0.00000  Uiso   1.00
O1385  O     0.43892   0.87154   0.75000   0.00000  Uiso   1.00
O1386  O     0.56108   0.79513   0.75001   0.00000  Uiso   1.00
O1387  O     0.56108   0.87154   0.75001   0.00000  Uiso   1.00
O1388  O     0.43892   0.79513   0.75000   0.00000  Uiso   1.00
O1389  O     0.49999   0.87156   0.68393   0.00000  Uiso   1.00
O1390  O     0.50001   0.79511   0.81608   0.00000  Uiso   1.00
O1391  O     0.50001   0.87156   0.81608   0.00000  Uiso   1.00
O1392  O     0.49999   0.79511   0.68393   0.00000  Uiso   1.00
Zn1393 Zn    0.50000   0.88437   0.75000   0.00000  Uiso   1.00
Zn1394 Zn    0.50000   0.78229   0.75000   0.00000  Uiso   1.00
C1395  C     0.75351   0.83332   0.74988   0.00000  Uiso   1.00
C1396  C     0.70933   0.83313   0.74995   0.00000  Uiso   1.00
C1397  C     0.85573   0.69065   0.78115   0.00000  Uiso   1.00
C1398  C     0.81094   0.97602   0.71885   0.00000  Uiso   1.00
C1399  C     0.81093   0.69066   0.71885   0.00000  Uiso   1.00
C1400  C     0.85574   0.97601   0.78115   0.00000  Uiso   1.00
C1401  C     0.83328   0.83334   0.66327   0.00000  Uiso   1.00
C1402  C     0.83339   0.83333   0.83673   0.00000  Uiso   1.00
C1403  C     0.83359   0.87461   0.90754   0.00000  Uiso   1.00
C1404  C     0.83308   0.79206   0.59246   0.00000  Uiso   1.00
C1405  C     0.83340   0.83333   0.88467   0.00000  Uiso   1.00
C1406  C     0.91315   0.83335   0.75012   0.00000  Uiso   1.00
C1407  C     0.83327   0.83334   0.61533   0.00000  Uiso   1.00
C1408  C     0.83323   0.79205   0.90757   0.00000  Uiso   1.00
C1409  C     0.83344   0.87462   0.59243   0.00000  Uiso   1.00
C1410  C     0.83325   0.79174   0.95366   0.00000  Uiso   1.00
C1411  C     0.83342   0.87493   0.54635   0.00000  Uiso   1.00
C1412  C     0.83336   0.83333   0.97682   0.00000  Uiso   1.00
C1413  C     0.83331   0.83334   0.52318   0.00000  Uiso   1.00
C1414  C     0.83351   0.87493   0.95363   0.00000  Uiso   1.00
C1415  C     0.83316   0.79174   0.54637   0.00000  Uiso   1.00
C1416  C     0.83315   0.75058   0.97688   0.00000  Uiso   1.00
C1417  C     0.83310   0.75059   0.52318   0.00000  Uiso   1.00
C1418  C     0.83352   0.91608   0.52312   0.00000  Uiso   1.00
C1419  C     0.71319   0.82841   0.66488   0.00000  Uiso   1.00
C1420  C     0.72414   0.87550   0.64721   0.00000  Uiso   1.00
C1421  C     0.95347   0.83825   0.83512   0.00000  Uiso   1.00
C1422  C     0.94253   0.79116   0.85279   0.00000  Uiso   1.00
C1423  C     0.95292   0.83125   0.66489   0.00000  Uiso   1.00
C1424  C     0.94233   0.78297   0.65026   0.00000  Uiso   1.00
C1425  C     0.71374   0.83542   0.83511   0.00000  Uiso   1.00
C1426  C     0.72434   0.88370   0.84974   0.00000  Uiso   1.00
C1427  C     0.83357   0.91608   0.97682   0.00000  Uiso   1.00
C1428  C     0.68844   0.83116   0.70849   0.00000  Uiso   1.00
C1429  C     0.97823   0.83551   0.79151   0.00000  Uiso   1.00
C1430  C     0.97795   0.83177   0.70853   0.00000  Uiso   1.00
C1431  C     0.68872   0.83490   0.79147   0.00000  Uiso   1.00
C1432  C     0.95733   0.83354   0.75005   0.00000  Uiso   1.00
H1433  H     0.83371   0.90651   0.88959   0.00000  Uiso   1.00
H1434  H     0.79305   0.95787   0.69392   0.00000  Uiso   1.00
H1435  H     0.79300   0.70884   0.69397   0.00000  Uiso   1.00
H1436  H     0.87367   0.95783   0.80603   0.00000  Uiso   1.00
H1437  H     0.69544   0.89620   0.64246   0.00000  Uiso   1.00
H1438  H     0.74532   0.89338   0.67068   0.00000  Uiso   1.00
H1439  H     0.74033   0.87229   0.61464   0.00000  Uiso   1.00
H1440  H     0.74248   0.80863   0.66921   0.00000  Uiso   1.00
H1441  H     0.69598   0.80937   0.63884   0.00000  Uiso   1.00
H1442  H     0.97123   0.77047   0.85754   0.00000  Uiso   1.00
H1443  H     0.92135   0.77329   0.82932   0.00000  Uiso   1.00
H1444  H     0.83296   0.76015   0.61041   0.00000  Uiso   1.00
H1445  H     0.92633   0.79437   0.88536   0.00000  Uiso   1.00
H1446  H     0.97069   0.85730   0.86116   0.00000  Uiso   1.00
H1447  H     0.92418   0.85804   0.83079   0.00000  Uiso   1.00
H1448  H     0.97117   0.76226   0.64689   0.00000  Uiso   1.00
H1449  H     0.92131   0.76638   0.67471   0.00000  Uiso   1.00
H1450  H     0.92605   0.78391   0.61752   0.00000  Uiso   1.00
H1451  H     0.92345   0.85093   0.66798   0.00000  Uiso   1.00
H1452  H     0.96983   0.84881   0.63769   0.00000  Uiso   1.00
H1453  H     0.69550   0.90441   0.85311   0.00000  Uiso   1.00
H1454  H     0.74536   0.90029   0.82529   0.00000  Uiso   1.00
H1455  H     0.83317   0.76014   0.88963   0.00000  Uiso   1.00
H1456  H     0.74062   0.88276   0.88248   0.00000  Uiso   1.00
H1457  H     0.69684   0.81785   0.86231   0.00000  Uiso   1.00
H1458  H     0.74321   0.81574   0.83202   0.00000  Uiso   1.00
H1459  H     0.83350   0.90652   0.61037   0.00000  Uiso   1.00
H1460  H     0.83309   0.71852   0.95926   0.00000  Uiso   1.00
H1461  H     0.83357   0.94815   0.54074   0.00000  Uiso   1.00
H1462  H     0.83301   0.71853   0.54082   0.00000  Uiso   1.00
H1463  H     0.83366   0.94814   0.95918   0.00000  Uiso   1.00
H1464  H     0.87361   0.70880   0.80608   0.00000  Uiso   1.00
N1465  N     0.83333   0.95240   0.75000   0.00000  Uiso   1.00
N1466  N     0.83333   0.71427   0.75000   0.00000  Uiso   1.00
O1467  O     0.77226   0.87154   0.75000   0.00000  Uiso   1.00
O1468  O     0.89441   0.79513   0.75001   0.00000  Uiso   1.00
O1469  O     0.89441   0.87154   0.75001   0.00000  Uiso   1.00
O1470  O     0.77226   0.79513   0.75000   0.00000  Uiso   1.00
O1471  O     0.83333   0.87156   0.68393   0.00000  Uiso   1.00
O1472  O     0.83334   0.79511   0.81608   0.00000  Uiso   1.00
O1473  O     0.83334   0.87156   0.81608   0.00000  Uiso   1.00
O1474  O     0.83333   0.79511   0.68393   0.00000  Uiso   1.00
Zn1475 Zn    0.83333   0.88437   0.75000   0.00000  Uiso   1.00
Zn1476 Zn    0.83333   0.78229   0.75000   0.00000  Uiso   1.00
loop_
_geom_bond_atom_site_label_1
_geom_bond_atom_site_label_2
_geom_bond_distance
_geom_bond_site_symmetry_2
_ccdc_geom_bond_type
C1     C2      1.409   .     S
C1     O76     1.276   .     A
C1     O73     1.276   .     A
C2     C34     1.411   .     A
C2     C37     1.411   .     A
C3     H70     1.081   .     S
C3     N72     1.366   .     A
C3     C498    1.416   1_545 S
C4     H40     1.081   .     S
C4     N71     1.366   .     A
C4     C251    1.416   .     S
C5     N72     1.366   .     A
C5     H41     1.082   .     S
C5     C496    1.416   1_545 S
C6     N71     1.366   .     A
C6     H42     1.082   .     S
C6     C249    1.416   .     S
C7     O77     1.287   .     A
C7     C13     1.438   .     S
C7     O80     1.287   .     A
C8     O79     1.287   .     A
C8     O78     1.287   .     A
C8     C11     1.438   .     S
C9     H39     1.085   .     S
C9     C20     1.383   .     A
C9     C11     1.398   .     A
C10    C21     1.383   .     A
C10    H50     1.085   .     S
C10    C13     1.398   .     A
C11    C14     1.398   .     A
C12    O74     1.276   .     A
C12    C38     1.409   .     S
C12    O75     1.276   .     A
C13    C15     1.398   .     A
C14    H61     1.085   .     S
C14    C16     1.383   .     A
C15    H65     1.085   .     S
C15    C17     1.383   .     A
C16    C22     1.400   .     A
C16    C18     1.411   .     A
C17    C24     1.400   .     A
C17    C19     1.411   .     A
C18    C20     1.411   .     A
C18    C757    1.391   .     S
C19    C21     1.411   .     A
C19    C756    1.391   1_554 S
C20    C33     1.400   .     A
C21    C23     1.400   .     A
C22    H66     1.084   .     S
C22    C761    1.389   .     S
C23    H68     1.084   .     S
C23    C760    1.389   1_554 S
C24    H67     1.084   .     S
C24    C771    1.389   1_554 S
C25    H47     1.107   .     S
C25    C34     1.532   .     S
C25    C26     1.528   .     S
C25    H46     1.109   .     S
C26    H44     1.108   .     S
C26    H45     1.110   .     S
C26    H43     1.110   .     S
C27    C35     1.532   .     S
C27    H52     1.107   .     S
C27    H53     1.109   .     S
C27    C28     1.528   .     S
C28    H51     1.110   .     S
C28    H49     1.108   .     S
C28    H48     1.110   .     S
C29    C36     1.532   .     S
C29    C30     1.528   .     S
C29    H57     1.109   .     S
C29    H58     1.107   .     S
C30    H54     1.109   .     S
C30    H56     1.110   .     S
C30    H55     1.108   .     S
C31    H63     1.107   .     S
C31    C37     1.532   .     S
C31    C32     1.528   .     S
C31    H64     1.109   .     S
C32    H60     1.108   .     S
C32    H62     1.110   .     S
C32    H59     1.109   .     S
C33    H69     1.084   .     S
C33    C762    1.389   .     S
C34    C200    1.397   1_455 S
C35    C38     1.411   .     A
C35    C119    1.397   .     S
C36    C38     1.411   .     A
C36    C116    1.397   .     S
C37    C199    1.397   1_455 S
N71    Zn81    2.008   .     S
N72    Zn82    2.008   .     S
O73    Zn81    1.984   .     S
O74    Zn82    1.984   .     S
O75    Zn81    1.984   .     S
O76    Zn82    1.984   .     S
O77    Zn81    2.018   .     S
O78    Zn82    2.018   .     S
O79    Zn81    2.018   .     S
O80    Zn82    2.018   .     S
C83    C84     1.409   .     S
C83    O158    1.276   .     A
C83    O155    1.276   .     A
C84    C116    1.411   .     A
C84    C119    1.411   .     A
C85    H152    1.081   .     S
C85    N154    1.366   .     A
C85    C580    1.416   1_545 S
C86    H122    1.081   .     S
C86    N153    1.366   .     A
C86    C333    1.416   .     S
C87    N154    1.366   .     A
C87    H123    1.082   .     S
C87    C578    1.416   1_545 S
C88    N153    1.366   .     A
C88    H124    1.082   .     S
C88    C331    1.416   .     S
C89    O159    1.287   .     A
C89    C95     1.438   .     S
C89    O162    1.287   .     A
C90    O161    1.287   .     A
C90    O160    1.287   .     A
C90    C93     1.438   .     S
C91    H121    1.085   .     S
C91    C102    1.383   .     A
C91    C93     1.398   .     A
C92    C103    1.383   .     A
C92    H132    1.085   .     S
C92    C95     1.398   .     A
C93    C96     1.398   .     A
C94    O156    1.276   .     A
C94    C120    1.409   .     S
C94    O157    1.276   .     A
C95    C97     1.398   .     A
C96    H143    1.085   .     S
C96    C98     1.383   .     A
C97    H147    1.085   .     S
C97    C99     1.383   .     A
C98    C104    1.400   .     A
C98    C100    1.411   .     A
C99    C106    1.400   .     A
C99    C101    1.411   .     A
C100   C102    1.411   .     A
C100   C839    1.391   .     S
C101   C103    1.411   .     A
C101   C838    1.391   1_554 S
C102   C115    1.400   .     A
C103   C105    1.400   .     A
C104   H148    1.084   .     S
C104   C843    1.389   .     S
C105   H150    1.084   .     S
C105   C842    1.389   1_554 S
C106   H149    1.084   .     S
C106   C853    1.389   1_554 S
C107   H129    1.107   .     S
C107   C116    1.532   .     S
C107   C108    1.528   .     S
C107   H128    1.109   .     S
C108   H126    1.108   .     S
C108   H127    1.110   .     S
C108   H125    1.110   .     S
C109   C117    1.532   .     S
C109   H134    1.107   .     S
C109   H135    1.109   .     S
C109   C110    1.528   .     S
C110   H133    1.110   .     S
C110   H131    1.108   .     S
C110   H130    1.110   .     S
C111   C118    1.532   .     S
C111   C112    1.528   .     S
C111   H139    1.109   .     S
C111   H140    1.107   .     S
C112   H136    1.109   .     S
C112   H138    1.110   .     S
C112   H137    1.108   .     S
C113   H145    1.107   .     S
C113   C119    1.532   .     S
C113   C114    1.528   .     S
C113   H146    1.109   .     S
C114   H142    1.108   .     S
C114   H144    1.110   .     S
C114   H141    1.109   .     S
C115   H151    1.084   .     S
C115   C844    1.389   .     S
C117   C120    1.411   .     A
C117   C201    1.397   .     S
C118   C120    1.411   .     A
C118   C198    1.397   .     S
N153   Zn163   2.008   .     S
N154   Zn164   2.008   .     S
O155   Zn163   1.984   .     S
O156   Zn164   1.984   .     S
O157   Zn163   1.984   .     S
O158   Zn164   1.984   .     S
O159   Zn163   2.018   .     S
O160   Zn164   2.018   .     S
O161   Zn163   2.018   .     S
O162   Zn164   2.018   .     S
C165   C166    1.409   .     S
C165   O240    1.276   .     A
C165   O237    1.276   .     A
C166   C198    1.411   .     A
C166   C201    1.411   .     A
C167   H234    1.081   .     S
C167   N236    1.366   .     A
C167   C662    1.416   1_545 S
C168   H204    1.081   .     S
C168   N235    1.366   .     A
C168   C415    1.416   .     S
C169   N236    1.366   .     A
C169   H205    1.082   .     S
C169   C660    1.416   1_545 S
C170   N235    1.366   .     A
C170   H206    1.082   .     S
C170   C413    1.416   .     S
C171   O241    1.287   .     A
C171   C177    1.438   .     S
C171   O244    1.287   .     A
C172   O243    1.287   .     A
C172   O242    1.287   .     A
C172   C175    1.438   .     S
C173   H203    1.085   .     S
C173   C184    1.383   .     A
C173   C175    1.398   .     A
C174   C185    1.383   .     A
C174   H214    1.085   .     S
C174   C177    1.398   .     A
C175   C178    1.398   .     A
C176   O238    1.276   .     A
C176   C202    1.409   .     S
C176   O239    1.276   .     A
C177   C179    1.398   .     A
C178   H225    1.085   .     S
C178   C180    1.383   .     A
C179   H229    1.085   .     S
C179   C181    1.383   .     A
C180   C186    1.400   .     A
C180   C182    1.411   .     A
C181   C188    1.400   .     A
C181   C183    1.411   .     A
C182   C184    1.411   .     A
C182   C921    1.391   .     S
C183   C185    1.411   .     A
C183   C920    1.391   1_554 S
C184   C197    1.400   .     A
C185   C187    1.400   .     A
C186   H230    1.084   .     S
C186   C925    1.389   .     S
C187   H232    1.084   .     S
C187   C924    1.389   1_554 S
C188   H231    1.084   .     S
C188   C935    1.389   1_554 S
C189   H211    1.107   .     S
C189   C198    1.532   .     S
C189   C190    1.528   .     S
C189   H210    1.109   .     S
C190   H208    1.108   .     S
C190   H209    1.110   .     S
C190   H207    1.110   .     S
C191   C199    1.532   .     S
C191   H216    1.107   .     S
C191   H217    1.109   .     S
C191   C192    1.528   .     S
C192   H215    1.110   .     S
C192   H213    1.108   .     S
C192   H212    1.110   .     S
C193   C200    1.532   .     S
C193   C194    1.528   .     S
C193   H221    1.109   .     S
C193   H222    1.107   .     S
C194   H218    1.109   .     S
C194   H220    1.110   .     S
C194   H219    1.108   .     S
C195   H227    1.107   .     S
C195   C201    1.532   .     S
C195   C196    1.528   .     S
C195   H228    1.109   .     S
C196   H224    1.108   .     S
C196   H226    1.110   .     S
C196   H223    1.109   .     S
C197   H233    1.084   .     S
C197   C926    1.389   .     S
C199   C202    1.411   .     A
C199   C37     1.397   1_655 S
C200   C202    1.411   .     A
C200   C34     1.397   1_655 S
N235   Zn245   2.008   .     S
N236   Zn246   2.008   .     S
O237   Zn245   1.984   .     S
O238   Zn246   1.984   .     S
O239   Zn245   1.984   .     S
O240   Zn246   1.984   .     S
O241   Zn245   2.018   .     S
O242   Zn246   2.018   .     S
O243   Zn245   2.018   .     S
O244   Zn246   2.018   .     S
C247   C248    1.409   .     S
C247   O322    1.276   .     A
C247   O319    1.276   .     A
C248   C280    1.411   .     A
C248   C283    1.411   .     A
C249   H316    1.081   .     S
C249   N318    1.366   .     A
C250   H286    1.081   .     S
C250   N317    1.366   .     A
C250   C497    1.416   .     S
C251   N318    1.366   .     A
C251   H287    1.082   .     S
C252   N317    1.366   .     A
C252   H288    1.082   .     S
C252   C495    1.416   .     S
C253   O323    1.287   .     A
C253   C259    1.438   .     S
C253   O326    1.287   .     A
C254   O325    1.287   .     A
C254   O324    1.287   .     A
C254   C257    1.438   .     S
C255   H285    1.085   .     S
C255   C266    1.383   .     A
C255   C257    1.398   .     A
C256   C267    1.383   .     A
C256   H296    1.085   .     S
C256   C259    1.398   .     A
C257   C260    1.398   .     A
C258   O320    1.276   .     A
C258   C284    1.409   .     S
C258   O321    1.276   .     A
C259   C261    1.398   .     A
C260   H307    1.085   .     S
C260   C262    1.383   .     A
C261   H311    1.085   .     S
C261   C263    1.383   .     A
C262   C268    1.400   .     A
C262   C264    1.411   .     A
C263   C270    1.400   .     A
C263   C265    1.411   .     A
C264   C266    1.411   .     A
C264   C1003   1.391   .     S
C265   C267    1.411   .     A
C265   C1002   1.391   1_554 S
C266   C279    1.400   .     A
C267   C269    1.400   .     A
C268   H312    1.084   .     S
C268   C1007   1.389   .     S
C269   H314    1.084   .     S
C269   C1006   1.389   1_554 S
C270   H313    1.084   .     S
C270   C1017   1.389   1_554 S
C271   H293    1.107   .     S
C271   C280    1.532   .     S
C271   C272    1.528   .     S
C271   H292    1.109   .     S
C272   H290    1.108   .     S
C272   H291    1.110   .     S
C272   H289    1.110   .     S
C273   C281    1.532   .     S
C273   H298    1.107   .     S
C273   H299    1.109   .     S
C273   C274    1.528   .     S
C274   H297    1.110   .     S
C274   H295    1.108   .     S
C274   H294    1.110   .     S
C275   C282    1.532   .     S
C275   C276    1.528   .     S
C275   H303    1.109   .     S
C275   H304    1.107   .     S
C276   H300    1.109   .     S
C276   H302    1.110   .     S
C276   H301    1.108   .     S
C277   H309    1.107   .     S
C277   C283    1.532   .     S
C277   C278    1.528   .     S
C277   H310    1.109   .     S
C278   H306    1.108   .     S
C278   H308    1.110   .     S
C278   H305    1.109   .     S
C279   H315    1.084   .     S
C279   C1008   1.389   .     S
C280   C446    1.397   1_455 S
C281   C284    1.411   .     A
C281   C365    1.397   .     S
C282   C284    1.411   .     A
C282   C362    1.397   .     S
C283   C445    1.397   1_455 S
N317   Zn327   2.008   .     S
N318   Zn328   2.008   .     S
O319   Zn327   1.984   .     S
O320   Zn328   1.984   .     S
O321   Zn327   1.984   .     S
O322   Zn328   1.984   .     S
O323   Zn327   2.018   .     S
O324   Zn328   2.018   .     S
O325   Zn327   2.018   .     S
O326   Zn328   2.018   .     S
C329   C330    1.409   .     S
C329   O404    1.276   .     A
C329   O401    1.276   .     A
C330   C362    1.411   .     A
C330   C365    1.411   .     A
C331   H398    1.081   .     S
C331   N400    1.366   .     A
C332   H368    1.081   .     S
C332   N399    1.366   .     A
C332   C579    1.416   .     S
C333   N400    1.366   .     A
C333   H369    1.082   .     S
C334   N399    1.366   .     A
C334   H370    1.082   .     S
C334   C577    1.416   .     S
C335   O405    1.287   .     A
C335   C341    1.438   .     S
C335   O408    1.287   .     A
C336   O407    1.287   .     A
C336   O406    1.287   .     A
C336   C339    1.438   .     S
C337   H367    1.085   .     S
C337   C348    1.383   .     A
C337   C339    1.398   .     A
C338   C349    1.383   .     A
C338   H378    1.085   .     S
C338   C341    1.398   .     A
C339   C342    1.398   .     A
C340   O402    1.276   .     A
C340   C366    1.409   .     S
C340   O403    1.276   .     A
C341   C343    1.398   .     A
C342   H389    1.085   .     S
C342   C344    1.383   .     A
C343   H393    1.085   .     S
C343   C345    1.383   .     A
C344   C350    1.400   .     A
C344   C346    1.411   .     A
C345   C352    1.400   .     A
C345   C347    1.411   .     A
C346   C348    1.411   .     A
C346   C1085   1.391   .     S
C347   C349    1.411   .     A
C347   C1084   1.391   1_554 S
C348   C361    1.400   .     A
C349   C351    1.400   .     A
C350   H394    1.084   .     S
C350   C1089   1.389   .     S
C351   H396    1.084   .     S
C351   C1088   1.389   1_554 S
C352   H395    1.084   .     S
C352   C1099   1.389   1_554 S
C353   H375    1.107   .     S
C353   C362    1.532   .     S
C353   C354    1.528   .     S
C353   H374    1.109   .     S
C354   H372    1.108   .     S
C354   H373    1.110   .     S
C354   H371    1.110   .     S
C355   C363    1.532   .     S
C355   H380    1.107   .     S
C355   H381    1.109   .     S
C355   C356    1.528   .     S
C356   H379    1.110   .     S
C356   H377    1.108   .     S
C356   H376    1.110   .     S
C357   C364    1.532   .     S
C357   C358    1.528   .     S
C357   H385    1.109   .     S
C357   H386    1.107   .     S
C358   H382    1.109   .     S
C358   H384    1.110   .     S
C358   H383    1.108   .     S
C359   H391    1.107   .     S
C359   C365    1.532   .     S
C359   C360    1.528   .     S
C359   H392    1.109   .     S
C360   H388    1.108   .     S
C360   H390    1.110   .     S
C360   H387    1.109   .     S
C361   H397    1.084   .     S
C361   C1090   1.389   .     S
C363   C366    1.411   .     A
C363   C447    1.397   .     S
C364   C366    1.411   .     A
C364   C444    1.397   .     S
N399   Zn409   2.008   .     S
N400   Zn410   2.008   .     S
O401   Zn409   1.984   .     S
O402   Zn410   1.984   .     S
O403   Zn409   1.984   .     S
O404   Zn410   1.984   .     S
O405   Zn409   2.018   .     S
O406   Zn410   2.018   .     S
O407   Zn409   2.018   .     S
O408   Zn410   2.018   .     S
C411   C412    1.409   .     S
C411   O486    1.276   .     A
C411   O483    1.276   .     A
C412   C444    1.411   .     A
C412   C447    1.411   .     A
C413   H480    1.081   .     S
C413   N482    1.366   .     A
C414   H450    1.081   .     S
C414   N481    1.366   .     A
C414   C661    1.416   .     S
C415   N482    1.366   .     A
C415   H451    1.082   .     S
C416   N481    1.366   .     A
C416   H452    1.082   .     S
C416   C659    1.416   .     S
C417   O487    1.287   .     A
C417   C423    1.438   .     S
C417   O490    1.287   .     A
C418   O489    1.287   .     A
C418   O488    1.287   .     A
C418   C421    1.438   .     S
C419   H449    1.085   .     S
C419   C430    1.383   .     A
C419   C421    1.398   .     A
C420   C431    1.383   .     A
C420   H460    1.085   .     S
C420   C423    1.398   .     A
C421   C424    1.398   .     A
C422   O484    1.276   .     A
C422   C448    1.409   .     S
C422   O485    1.276   .     A
C423   C425    1.398   .     A
C424   H471    1.085   .     S
C424   C426    1.383   .     A
C425   H475    1.085   .     S
C425   C427    1.383   .     A
C426   C432    1.400   .     A
C426   C428    1.411   .     A
C427   C434    1.400   .     A
C427   C429    1.411   .     A
C428   C430    1.411   .     A
C428   C1167   1.391   .     S
C429   C431    1.411   .     A
C429   C1166   1.391   1_554 S
C430   C443    1.400   .     A
C431   C433    1.400   .     A
C432   H476    1.084   .     S
C432   C1171   1.389   .     S
C433   H478    1.084   .     S
C433   C1170   1.389   1_554 S
C434   H477    1.084   .     S
C434   C1181   1.389   1_554 S
C435   H457    1.107   .     S
C435   C444    1.532   .     S
C435   C436    1.528   .     S
C435   H456    1.109   .     S
C436   H454    1.108   .     S
C436   H455    1.110   .     S
C436   H453    1.110   .     S
C437   C445    1.532   .     S
C437   H462    1.107   .     S
C437   H463    1.109   .     S
C437   C438    1.528   .     S
C438   H461    1.110   .     S
C438   H459    1.108   .     S
C438   H458    1.110   .     S
C439   C446    1.532   .     S
C439   C440    1.528   .     S
C439   H467    1.109   .     S
C439   H468    1.107   .     S
C440   H464    1.109   .     S
C440   H466    1.110   .     S
C440   H465    1.108   .     S
C441   H473    1.107   .     S
C441   C447    1.532   .     S
C441   C442    1.528   .     S
C441   H474    1.109   .     S
C442   H470    1.108   .     S
C442   H472    1.110   .     S
C442   H469    1.109   .     S
C443   H479    1.084   .     S
C443   C1172   1.389   .     S
C445   C448    1.411   .     A
C445   C283    1.397   1_655 S
C446   C448    1.411   .     A
C446   C280    1.397   1_655 S
N481   Zn491   2.008   .     S
N482   Zn492   2.008   .     S
O483   Zn491   1.984   .     S
O484   Zn492   1.984   .     S
O485   Zn491   1.984   .     S
O486   Zn492   1.984   .     S
O487   Zn491   2.018   .     S
O488   Zn492   2.018   .     S
O489   Zn491   2.018   .     S
O490   Zn492   2.018   .     S
C493   C494    1.409   .     S
C493   O568    1.276   .     A
C493   O565    1.276   .     A
C494   C526    1.411   .     A
C494   C529    1.411   .     A
C495   H562    1.081   .     S
C495   N564    1.366   .     A
C496   H532    1.081   .     S
C496   N563    1.366   .     A
C496   C5      1.416   1_565 S
C497   N564    1.366   .     A
C497   H533    1.082   .     S
C498   N563    1.366   .     A
C498   H534    1.082   .     S
C498   C3      1.416   1_565 S
C499   O569    1.287   .     A
C499   C505    1.438   .     S
C499   O572    1.287   .     A
C500   O571    1.287   .     A
C500   O570    1.287   .     A
C500   C503    1.438   .     S
C501   H531    1.085   .     S
C501   C512    1.383   .     A
C501   C503    1.398   .     A
C502   C513    1.383   .     A
C502   H542    1.085   .     S
C502   C505    1.398   .     A
C503   C506    1.398   .     A
C504   O566    1.276   .     A
C504   C530    1.409   .     S
C504   O567    1.276   .     A
C505   C507    1.398   .     A
C506   H553    1.085   .     S
C506   C508    1.383   .     A
C507   H557    1.085   .     S
C507   C509    1.383   .     A
C508   C514    1.400   .     A
C508   C510    1.411   .     A
C509   C516    1.400   .     A
C509   C511    1.411   .     A
C510   C512    1.411   .     A
C510   C1249   1.391   .     S
C511   C513    1.411   .     A
C511   C1248   1.391   1_554 S
C512   C525    1.400   .     A
C513   C515    1.400   .     A
C514   H558    1.084   .     S
C514   C1253   1.389   .     S
C515   H560    1.084   .     S
C515   C1252   1.389   1_554 S
C516   H559    1.084   .     S
C516   C1263   1.389   1_554 S
C517   H539    1.107   .     S
C517   C526    1.532   .     S
C517   C518    1.528   .     S
C517   H538    1.109   .     S
C518   H536    1.108   .     S
C518   H537    1.110   .     S
C518   H535    1.110   .     S
C519   C527    1.532   .     S
C519   H544    1.107   .     S
C519   H545    1.109   .     S
C519   C520    1.528   .     S
C520   H543    1.110   .     S
C520   H541    1.108   .     S
C520   H540    1.110   .     S
C521   C528    1.532   .     S
C521   C522    1.528   .     S
C521   H549    1.109   .     S
C521   H550    1.107   .     S
C522   H546    1.109   .     S
C522   H548    1.110   .     S
C522   H547    1.108   .     S
C523   H555    1.107   .     S
C523   C529    1.532   .     S
C523   C524    1.528   .     S
C523   H556    1.109   .     S
C524   H552    1.108   .     S
C524   H554    1.110   .     S
C524   H551    1.109   .     S
C525   H561    1.084   .     S
C525   C1254   1.389   .     S
C526   C692    1.397   1_455 S
C527   C530    1.411   .     A
C527   C611    1.397   .     S
C528   C530    1.411   .     A
C528   C608    1.397   .     S
C529   C691    1.397   1_455 S
N563   Zn573   2.008   .     S
N564   Zn574   2.008   .     S
O565   Zn573   1.984   .     S
O566   Zn574   1.984   .     S
O567   Zn573   1.984   .     S
O568   Zn574   1.984   .     S
O569   Zn573   2.018   .     S
O570   Zn574   2.018   .     S
O571   Zn573   2.018   .     S
O572   Zn574   2.018   .     S
C575   C576    1.409   .     S
C575   O650    1.276   .     A
C575   O647    1.276   .     A
C576   C608    1.411   .     A
C576   C611    1.411   .     A
C577   H644    1.081   .     S
C577   N646    1.366   .     A
C578   H614    1.081   .     S
C578   N645    1.366   .     A
C578   C87     1.416   1_565 S
C579   N646    1.366   .     A
C579   H615    1.082   .     S
C580   N645    1.366   .     A
C580   H616    1.082   .     S
C580   C85     1.416   1_565 S
C581   O651    1.287   .     A
C581   C587    1.438   .     S
C581   O654    1.287   .     A
C582   O653    1.287   .     A
C582   O652    1.287   .     A
C582   C585    1.438   .     S
C583   H613    1.085   .     S
C583   C594    1.383   .     A
C583   C585    1.398   .     A
C584   C595    1.383   .     A
C584   H624    1.085   .     S
C584   C587    1.398   .     A
C585   C588    1.398   .     A
C586   O648    1.276   .     A
C586   C612    1.409   .     S
C586   O649    1.276   .     A
C587   C589    1.398   .     A
C588   H635    1.085   .     S
C588   C590    1.383   .     A
C589   H639    1.085   .     S
C589   C591    1.383   .     A
C590   C596    1.400   .     A
C590   C592    1.411   .     A
C591   C598    1.400   .     A
C591   C593    1.411   .     A
C592   C594    1.411   .     A
C592   C1331   1.391   .     S
C593   C595    1.411   .     A
C593   C1330   1.391   1_554 S
C594   C607    1.400   .     A
C595   C597    1.400   .     A
C596   H640    1.084   .     S
C596   C1335   1.389   .     S
C597   H642    1.084   .     S
C597   C1334   1.389   1_554 S
C598   H641    1.084   .     S
C598   C1345   1.389   1_554 S
C599   H621    1.107   .     S
C599   C608    1.532   .     S
C599   C600    1.528   .     S
C599   H620    1.109   .     S
C600   H618    1.108   .     S
C600   H619    1.110   .     S
C600   H617    1.110   .     S
C601   C609    1.532   .     S
C601   H626    1.107   .     S
C601   H627    1.109   .     S
C601   C602    1.528   .     S
C602   H625    1.110   .     S
C602   H623    1.108   .     S
C602   H622    1.110   .     S
C603   C610    1.532   .     S
C603   C604    1.528   .     S
C603   H631    1.109   .     S
C603   H632    1.107   .     S
C604   H628    1.109   .     S
C604   H630    1.110   .     S
C604   H629    1.108   .     S
C605   H637    1.107   .     S
C605   C611    1.532   .     S
C605   C606    1.528   .     S
C605   H638    1.109   .     S
C606   H634    1.108   .     S
C606   H636    1.110   .     S
C606   H633    1.109   .     S
C607   H643    1.084   .     S
C607   C1336   1.389   .     S
C609   C612    1.411   .     A
C609   C693    1.397   .     S
C610   C612    1.411   .     A
C610   C690    1.397   .     S
N645   Zn655   2.008   .     S
N646   Zn656   2.008   .     S
O647   Zn655   1.984   .     S
O648   Zn656   1.984   .     S
O649   Zn655   1.984   .     S
O650   Zn656   1.984   .     S
O651   Zn655   2.018   .     S
O652   Zn656   2.018   .     S
O653   Zn655   2.018   .     S
O654   Zn656   2.018   .     S
C657   C658    1.409   .     S
C657   O732    1.276   .     A
C657   O729    1.276   .     A
C658   C690    1.411   .     A
C658   C693    1.411   .     A
C659   H726    1.081   .     S
C659   N728    1.366   .     A
C660   H696    1.081   .     S
C660   N727    1.366   .     A
C660   C169    1.416   1_565 S
C661   N728    1.366   .     A
C661   H697    1.082   .     S
C662   N727    1.366   .     A
C662   H698    1.082   .     S
C662   C167    1.416   1_565 S
C663   O733    1.287   .     A
C663   C669    1.438   .     S
C663   O736    1.287   .     A
C664   O735    1.287   .     A
C664   O734    1.287   .     A
C664   C667    1.438   .     S
C665   H695    1.085   .     S
C665   C676    1.383   .     A
C665   C667    1.398   .     A
C666   C677    1.383   .     A
C666   H706    1.085   .     S
C666   C669    1.398   .     A
C667   C670    1.398   .     A
C668   O730    1.276   .     A
C668   C694    1.409   .     S
C668   O731    1.276   .     A
C669   C671    1.398   .     A
C670   H717    1.085   .     S
C670   C672    1.383   .     A
C671   H721    1.085   .     S
C671   C673    1.383   .     A
C672   C678    1.400   .     A
C672   C674    1.411   .     A
C673   C680    1.400   .     A
C673   C675    1.411   .     A
C674   C676    1.411   .     A
C674   C1413   1.391   .     S
C675   C677    1.411   .     A
C675   C1412   1.391   1_554 S
C676   C689    1.400   .     A
C677   C679    1.400   .     A
C678   H722    1.084   .     S
C678   C1417   1.389   .     S
C679   H724    1.084   .     S
C679   C1416   1.389   1_554 S
C680   H723    1.084   .     S
C680   C1427   1.389   1_554 S
C681   H703    1.107   .     S
C681   C690    1.532   .     S
C681   C682    1.528   .     S
C681   H702    1.109   .     S
C682   H700    1.108   .     S
C682   H701    1.110   .     S
C682   H699    1.110   .     S
C683   C691    1.532   .     S
C683   H708    1.107   .     S
C683   H709    1.109   .     S
C683   C684    1.528   .     S
C684   H707    1.110   .     S
C684   H705    1.108   .     S
C684   H704    1.110   .     S
C685   C692    1.532   .     S
C685   C686    1.528   .     S
C685   H713    1.109   .     S
C685   H714    1.107   .     S
C686   H710    1.109   .     S
C686   H712    1.110   .     S
C686   H711    1.108   .     S
C687   H719    1.107   .     S
C687   C693    1.532   .     S
C687   C688    1.528   .     S
C687   H720    1.109   .     S
C688   H716    1.108   .     S
C688   H718    1.110   .     S
C688   H715    1.109   .     S
C689   H725    1.084   .     S
C689   C1418   1.389   .     S
C691   C694    1.411   .     A
C691   C529    1.397   1_655 S
C692   C694    1.411   .     A
C692   C526    1.397   1_655 S
N727   Zn737   2.008   .     S
N728   Zn738   2.008   .     S
O729   Zn737   1.984   .     S
O730   Zn738   1.984   .     S
O731   Zn737   1.984   .     S
O732   Zn738   1.984   .     S
O733   Zn737   2.018   .     S
O734   Zn738   2.018   .     S
O735   Zn737   2.018   .     S
O736   Zn738   2.018   .     S
C739   C740    1.409   .     S
C739   O814    1.276   .     A
C739   O811    1.276   .     A
C740   C772    1.411   .     A
C740   C775    1.411   .     A
C741   H808    1.081   .     S
C741   N810    1.366   .     A
C741   C1236   1.416   1_545 S
C742   H778    1.081   .     S
C742   N809    1.366   .     A
C742   C989    1.416   .     S
C743   N810    1.366   .     A
C743   H779    1.082   .     S
C743   C1234   1.416   1_545 S
C744   N809    1.366   .     A
C744   H780    1.082   .     S
C744   C987    1.416   .     S
C745   O815    1.287   .     A
C745   C751    1.438   .     S
C745   O818    1.287   .     A
C746   O817    1.287   .     A
C746   O816    1.287   .     A
C746   C749    1.438   .     S
C747   H777    1.085   .     S
C747   C758    1.383   .     A
C747   C749    1.398   .     A
C748   C759    1.383   .     A
C748   H788    1.085   .     S
C748   C751    1.398   .     A
C749   C752    1.398   .     A
C750   O812    1.276   .     A
C750   C776    1.409   .     S
C750   O813    1.276   .     A
C751   C753    1.398   .     A
C752   H799    1.085   .     S
C752   C754    1.383   .     A
C753   H803    1.085   .     S
C753   C755    1.383   .     A
C754   C760    1.400   .     A
C754   C756    1.411   .     A
C755   C762    1.400   .     A
C755   C757    1.411   .     A
C756   C758    1.411   .     A
C756   C19     1.391   1_556 S
C757   C759    1.411   .     A
C758   C771    1.400   .     A
C759   C761    1.400   .     A
C760   H804    1.084   .     S
C760   C23     1.389   1_556 S
C761   H806    1.084   .     S
C762   H805    1.084   .     S
C763   H785    1.107   .     S
C763   C772    1.532   .     S
C763   C764    1.528   .     S
C763   H784    1.109   .     S
C764   H782    1.108   .     S
C764   H783    1.110   .     S
C764   H781    1.110   .     S
C765   C773    1.532   .     S
C765   H790    1.107   .     S
C765   H791    1.109   .     S
C765   C766    1.528   .     S
C766   H789    1.110   .     S
C766   H787    1.108   .     S
C766   H786    1.110   .     S
C767   C774    1.532   .     S
C767   C768    1.528   .     S
C767   H795    1.109   .     S
C767   H796    1.107   .     S
C768   H792    1.109   .     S
C768   H794    1.110   .     S
C768   H793    1.108   .     S
C769   H801    1.107   .     S
C769   C775    1.532   .     S
C769   C770    1.528   .     S
C769   H802    1.109   .     S
C770   H798    1.108   .     S
C770   H800    1.110   .     S
C770   H797    1.109   .     S
C771   H807    1.084   .     S
C771   C24     1.389   1_556 S
C772   C938    1.397   1_455 S
C773   C776    1.411   .     A
C773   C857    1.397   .     S
C774   C776    1.411   .     A
C774   C854    1.397   .     S
C775   C937    1.397   1_455 S
N809   Zn819   2.008   .     S
N810   Zn820   2.008   .     S
O811   Zn819   1.984   .     S
O812   Zn820   1.984   .     S
O813   Zn819   1.984   .     S
O814   Zn820   1.984   .     S
O815   Zn819   2.018   .     S
O816   Zn820   2.018   .     S
O817   Zn819   2.018   .     S
O818   Zn820   2.018   .     S
C821   C822    1.409   .     S
C821   O896    1.276   .     A
C821   O893    1.276   .     A
C822   C854    1.411   .     A
C822   C857    1.411   .     A
C823   H890    1.081   .     S
C823   N892    1.366   .     A
C823   C1318   1.416   1_545 S
C824   H860    1.081   .     S
C824   N891    1.366   .     A
C824   C1071   1.416   .     S
C825   N892    1.366   .     A
C825   H861    1.082   .     S
C825   C1316   1.416   1_545 S
C826   N891    1.366   .     A
C826   H862    1.082   .     S
C826   C1069   1.416   .     S
C827   O897    1.287   .     A
C827   C833    1.438   .     S
C827   O900    1.287   .     A
C828   O899    1.287   .     A
C828   O898    1.287   .     A
C828   C831    1.438   .     S
C829   H859    1.085   .     S
C829   C840    1.383   .     A
C829   C831    1.398   .     A
C830   C841    1.383   .     A
C830   H870    1.085   .     S
C830   C833    1.398   .     A
C831   C834    1.398   .     A
C832   O894    1.276   .     A
C832   C858    1.409   .     S
C832   O895    1.276   .     A
C833   C835    1.398   .     A
C834   H881    1.085   .     S
C834   C836    1.383   .     A
C835   H885    1.085   .     S
C835   C837    1.383   .     A
C836   C842    1.400   .     A
C836   C838    1.411   .     A
C837   C844    1.400   .     A
C837   C839    1.411   .     A
C838   C840    1.411   .     A
C838   C101    1.391   1_556 S
C839   C841    1.411   .     A
C840   C853    1.400   .     A
C841   C843    1.400   .     A
C842   H886    1.084   .     S
C842   C105    1.389   1_556 S
C843   H888    1.084   .     S
C844   H887    1.084   .     S
C845   H867    1.107   .     S
C845   C854    1.532   .     S
C845   C846    1.528   .     S
C845   H866    1.109   .     S
C846   H864    1.108   .     S
C846   H865    1.110   .     S
C846   H863    1.110   .     S
C847   C855    1.532   .     S
C847   H872    1.107   .     S
C847   H873    1.109   .     S
C847   C848    1.528   .     S
C848   H871    1.110   .     S
C848   H869    1.108   .     S
C848   H868    1.110   .     S
C849   C856    1.532   .     S
C849   C850    1.528   .     S
C849   H877    1.109   .     S
C849   H878    1.107   .     S
C850   H874    1.109   .     S
C850   H876    1.110   .     S
C850   H875    1.108   .     S
C851   H883    1.107   .     S
C851   C857    1.532   .     S
C851   C852    1.528   .     S
C851   H884    1.109   .     S
C852   H880    1.108   .     S
C852   H882    1.110   .     S
C852   H879    1.109   .     S
C853   H889    1.084   .     S
C853   C106    1.389   1_556 S
C855   C858    1.411   .     A
C855   C939    1.397   .     S
C856   C858    1.411   .     A
C856   C936    1.397   .     S
N891   Zn901   2.008   .     S
N892   Zn902   2.008   .     S
O893   Zn901   1.984   .     S
O894   Zn902   1.984   .     S
O895   Zn901   1.984   .     S
O896   Zn902   1.984   .     S
O897   Zn901   2.018   .     S
O898   Zn902   2.018   .     S
O899   Zn901   2.018   .     S
O900   Zn902   2.018   .     S
C903   C904    1.409   .     S
C903   O978    1.276   .     A
C903   O975    1.276   .     A
C904   C936    1.411   .     A
C904   C939    1.411   .     A
C905   H972    1.081   .     S
C905   N974    1.366   .     A
C905   C1400   1.416   1_545 S
C906   H942    1.081   .     S
C906   N973    1.366   .     A
C906   C1153   1.416   .     S
C907   N974    1.366   .     A
C907   H943    1.082   .     S
C907   C1398   1.416   1_545 S
C908   N973    1.366   .     A
C908   H944    1.082   .     S
C908   C1151   1.416   .     S
C909   O979    1.287   .     A
C909   C915    1.438   .     S
C909   O982    1.287   .     A
C910   O981    1.287   .     A
C910   O980    1.287   .     A
C910   C913    1.438   .     S
C911   H941    1.085   .     S
C911   C922    1.383   .     A
C911   C913    1.398   .     A
C912   C923    1.383   .     A
C912   H952    1.085   .     S
C912   C915    1.398   .     A
C913   C916    1.398   .     A
C914   O976    1.276   .     A
C914   C940    1.409   .     S
C914   O977    1.276   .     A
C915   C917    1.398   .     A
C916   H963    1.085   .     S
C916   C918    1.383   .     A
C917   H967    1.085   .     S
C917   C919    1.383   .     A
C918   C924    1.400   .     A
C918   C920    1.411   .     A
C919   C926    1.400   .     A
C919   C921    1.411   .     A
C920   C922    1.411   .     A
C920   C183    1.391   1_556 S
C921   C923    1.411   .     A
C922   C935    1.400   .     A
C923   C925    1.400   .     A
C924   H968    1.084   .     S
C924   C187    1.389   1_556 S
C925   H970    1.084   .     S
C926   H969    1.084   .     S
C927   H949    1.107   .     S
C927   C936    1.532   .     S
C927   C928    1.528   .     S
C927   H948    1.109   .     S
C928   H946    1.108   .     S
C928   H947    1.110   .     S
C928   H945    1.110   .     S
C929   C937    1.532   .     S
C929   H954    1.107   .     S
C929   H955    1.109   .     S
C929   C930    1.528   .     S
C930   H953    1.110   .     S
C930   H951    1.108   .     S
C930   H950    1.110   .     S
C931   C938    1.532   .     S
C931   C932    1.528   .     S
C931   H959    1.109   .     S
C931   H960    1.107   .     S
C932   H956    1.109   .     S
C932   H958    1.110   .     S
C932   H957    1.108   .     S
C933   H965    1.107   .     S
C933   C939    1.532   .     S
C933   C934    1.528   .     S
C933   H966    1.109   .     S
C934   H962    1.108   .     S
C934   H964    1.110   .     S
C934   H961    1.109   .     S
C935   H971    1.084   .     S
C935   C188    1.389   1_556 S
C937   C940    1.411   .     A
C937   C775    1.397   1_655 S
C938   C940    1.411   .     A
C938   C772    1.397   1_655 S
N973   Zn983   2.008   .     S
N974   Zn984   2.008   .     S
O975   Zn983   1.984   .     S
O976   Zn984   1.984   .     S
O977   Zn983   1.984   .     S
O978   Zn984   1.984   .     S
O979   Zn983   2.018   .     S
O980   Zn984   2.018   .     S
O981   Zn983   2.018   .     S
O982   Zn984   2.018   .     S
C985   C986    1.409   .     S
C985   O1060   1.276   .     A
C985   O1057   1.276   .     A
C986   C1018   1.411   .     A
C986   C1021   1.411   .     A
C987   H1054   1.081   .     S
C987   N1056   1.366   .     A
C988   H1024   1.081   .     S
C988   N1055   1.366   .     A
C988   C1235   1.416   .     S
C989   N1056   1.366   .     A
C989   H1025   1.082   .     S
C990   N1055   1.366   .     A
C990   H1026   1.082   .     S
C990   C1233   1.416   .     S
C991   O1061   1.287   .     A
C991   C997    1.438   .     S
C991   O1064   1.287   .     A
C992   O1063   1.287   .     A
C992   O1062   1.287   .     A
C992   C995    1.438   .     S
C993   H1023   1.085   .     S
C993   C1004   1.383   .     A
C993   C995    1.398   .     A
C994   C1005   1.383   .     A
C994   H1034   1.085   .     S
C994   C997    1.398   .     A
C995   C998    1.398   .     A
C996   O1058   1.276   .     A
C996   C1022   1.409   .     S
C996   O1059   1.276   .     A
C997   C999    1.398   .     A
C998   H1045   1.085   .     S
C998   C1000   1.383   .     A
C999   H1049   1.085   .     S
C999   C1001   1.383   .     A
C1000  C1006   1.400   .     A
C1000  C1002   1.411   .     A
C1001  C1008   1.400   .     A
C1001  C1003   1.411   .     A
C1002  C1004   1.411   .     A
C1002  C265    1.391   1_556 S
C1003  C1005   1.411   .     A
C1004  C1017   1.400   .     A
C1005  C1007   1.400   .     A
C1006  H1050   1.084   .     S
C1006  C269    1.389   1_556 S
C1007  H1052   1.084   .     S
C1008  H1051   1.084   .     S
C1009  H1031   1.107   .     S
C1009  C1018   1.532   .     S
C1009  C1010   1.528   .     S
C1009  H1030   1.109   .     S
C1010  H1028   1.108   .     S
C1010  H1029   1.110   .     S
C1010  H1027   1.110   .     S
C1011  C1019   1.532   .     S
C1011  H1036   1.107   .     S
C1011  H1037   1.109   .     S
C1011  C1012   1.528   .     S
C1012  H1035   1.110   .     S
C1012  H1033   1.108   .     S
C1012  H1032   1.110   .     S
C1013  C1020   1.532   .     S
C1013  C1014   1.528   .     S
C1013  H1041   1.109   .     S
C1013  H1042   1.107   .     S
C1014  H1038   1.109   .     S
C1014  H1040   1.110   .     S
C1014  H1039   1.108   .     S
C1015  H1047   1.107   .     S
C1015  C1021   1.532   .     S
C1015  C1016   1.528   .     S
C1015  H1048   1.109   .     S
C1016  H1044   1.108   .     S
C1016  H1046   1.110   .     S
C1016  H1043   1.109   .     S
C1017  H1053   1.084   .     S
C1017  C270    1.389   1_556 S
C1018  C1184   1.397   1_455 S
C1019  C1022   1.411   .     A
C1019  C1103   1.397   .     S
C1020  C1022   1.411   .     A
C1020  C1100   1.397   .     S
C1021  C1183   1.397   1_455 S
N1055  Zn1065  2.008   .     S
N1056  Zn1066  2.008   .     S
O1057  Zn1065  1.984   .     S
O1058  Zn1066  1.984   .     S
O1059  Zn1065  1.984   .     S
O1060  Zn1066  1.984   .     S
O1061  Zn1065  2.018   .     S
O1062  Zn1066  2.018   .     S
O1063  Zn1065  2.018   .     S
O1064  Zn1066  2.018   .     S
C1067  C1068   1.409   .     S
C1067  O1142   1.276   .     A
C1067  O1139   1.276   .     A
C1068  C1100   1.411   .     A
C1068  C1103   1.411   .     A
C1069  H1136   1.081   .     S
C1069  N1138   1.366   .     A
C1070  H1106   1.081   .     S
C1070  N1137   1.366   .     A
C1070  C1317   1.416   .     S
C1071  N1138   1.366   .     A
C1071  H1107   1.082   .     S
C1072  N1137   1.366   .     A
C1072  H1108   1.082   .     S
C1072  C1315   1.416   .     S
C1073  O1143   1.287   .     A
C1073  C1079   1.438   .     S
C1073  O1146   1.287   .     A
C1074  O1145   1.287   .     A
C1074  O1144   1.287   .     A
C1074  C1077   1.438   .     S
C1075  H1105   1.085   .     S
C1075  C1086   1.383   .     A
C1075  C1077   1.398   .     A
C1076  C1087   1.383   .     A
C1076  H1116   1.085   .     S
C1076  C1079   1.398   .     A
C1077  C1080   1.398   .     A
C1078  O1140   1.276   .     A
C1078  C1104   1.409   .     S
C1078  O1141   1.276   .     A
C1079  C1081   1.398   .     A
C1080  H1127   1.085   .     S
C1080  C1082   1.383   .     A
C1081  H1131   1.085   .     S
C1081  C1083   1.383   .     A
C1082  C1088   1.400   .     A
C1082  C1084   1.411   .     A
C1083  C1090   1.400   .     A
C1083  C1085   1.411   .     A
C1084  C1086   1.411   .     A
C1084  C347    1.391   1_556 S
C1085  C1087   1.411   .     A
C1086  C1099   1.400   .     A
C1087  C1089   1.400   .     A
C1088  H1132   1.084   .     S
C1088  C351    1.389   1_556 S
C1089  H1134   1.084   .     S
C1090  H1133   1.084   .     S
C1091  H1113   1.107   .     S
C1091  C1100   1.532   .     S
C1091  C1092   1.528   .     S
C1091  H1112   1.109   .     S
C1092  H1110   1.108   .     S
C1092  H1111   1.110   .     S
C1092  H1109   1.110   .     S
C1093  C1101   1.532   .     S
C1093  H1118   1.107   .     S
C1093  H1119   1.109   .     S
C1093  C1094   1.528   .     S
C1094  H1117   1.110   .     S
C1094  H1115   1.108   .     S
C1094  H1114   1.110   .     S
C1095  C1102   1.532   .     S
C1095  C1096   1.528   .     S
C1095  H1123   1.109   .     S
C1095  H1124   1.107   .     S
C1096  H1120   1.109   .     S
C1096  H1122   1.110   .     S
C1096  H1121   1.108   .     S
C1097  H1129   1.107   .     S
C1097  C1103   1.532   .     S
C1097  C1098   1.528   .     S
C1097  H1130   1.109   .     S
C1098  H1126   1.108   .     S
C1098  H1128   1.110   .     S
C1098  H1125   1.109   .     S
C1099  H1135   1.084   .     S
C1099  C352    1.389   1_556 S
C1101  C1104   1.411   .     A
C1101  C1185   1.397   .     S
C1102  C1104   1.411   .     A
C1102  C1182   1.397   .     S
N1137  Zn1147  2.008   .     S
N1138  Zn1148  2.008   .     S
O1139  Zn1147  1.984   .     S
O1140  Zn1148  1.984   .     S
O1141  Zn1147  1.984   .     S
O1142  Zn1148  1.984   .     S
O1143  Zn1147  2.018   .     S
O1144  Zn1148  2.018   .     S
O1145  Zn1147  2.018   .     S
O1146  Zn1148  2.018   .     S
C1149  C1150   1.409   .     S
C1149  O1224   1.276   .     A
C1149  O1221   1.276   .     A
C1150  C1182   1.411   .     A
C1150  C1185   1.411   .     A
C1151  H1218   1.081   .     S
C1151  N1220   1.366   .     A
C1152  H1188   1.081   .     S
C1152  N1219   1.366   .     A
C1152  C1399   1.416   .     S
C1153  N1220   1.366   .     A
C1153  H1189   1.082   .     S
C1154  N1219   1.366   .     A
C1154  H1190   1.082   .     S
C1154  C1397   1.416   .     S
C1155  O1225   1.287   .     A
C1155  C1161   1.438   .     S
C1155  O1228   1.287   .     A
C1156  O1227   1.287   .     A
C1156  O1226   1.287   .     A
C1156  C1159   1.438   .     S
C1157  H1187   1.085   .     S
C1157  C1168   1.383   .     A
C1157  C1159   1.398   .     A
C1158  C1169   1.383   .     A
C1158  H1198   1.085   .     S
C1158  C1161   1.398   .     A
C1159  C1162   1.398   .     A
C1160  O1222   1.276   .     A
C1160  C1186   1.409   .     S
C1160  O1223   1.276   .     A
C1161  C1163   1.398   .     A
C1162  H1209   1.085   .     S
C1162  C1164   1.383   .     A
C1163  H1213   1.085   .     S
C1163  C1165   1.383   .     A
C1164  C1170   1.400   .     A
C1164  C1166   1.411   .     A
C1165  C1172   1.400   .     A
C1165  C1167   1.411   .     A
C1166  C1168   1.411   .     A
C1166  C429    1.391   1_556 S
C1167  C1169   1.411   .     A
C1168  C1181   1.400   .     A
C1169  C1171   1.400   .     A
C1170  H1214   1.084   .     S
C1170  C433    1.389   1_556 S
C1171  H1216   1.084   .     S
C1172  H1215   1.084   .     S
C1173  H1195   1.107   .     S
C1173  C1182   1.532   .     S
C1173  C1174   1.528   .     S
C1173  H1194   1.109   .     S
C1174  H1192   1.108   .     S
C1174  H1193   1.110   .     S
C1174  H1191   1.110   .     S
C1175  C1183   1.532   .     S
C1175  H1200   1.107   .     S
C1175  H1201   1.109   .     S
C1175  C1176   1.528   .     S
C1176  H1199   1.110   .     S
C1176  H1197   1.108   .     S
C1176  H1196   1.110   .     S
C1177  C1184   1.532   .     S
C1177  C1178   1.528   .     S
C1177  H1205   1.109   .     S
C1177  H1206   1.107   .     S
C1178  H1202   1.109   .     S
C1178  H1204   1.110   .     S
C1178  H1203   1.108   .     S
C1179  H1211   1.107   .     S
C1179  C1185   1.532   .     S
C1179  C1180   1.528   .     S
C1179  H1212   1.109   .     S
C1180  H1208   1.108   .     S
C1180  H1210   1.110   .     S
C1180  H1207   1.109   .     S
C1181  H1217   1.084   .     S
C1181  C434    1.389   1_556 S
C1183  C1186   1.411   .     A
C1183  C1021   1.397   1_655 S
C1184  C1186   1.411   .     A
C1184  C1018   1.397   1_655 S
N1219  Zn1229  2.008   .     S
N1220  Zn1230  2.008   .     S
O1221  Zn1229  1.984   .     S
O1222  Zn1230  1.984   .     S
O1223  Zn1229  1.984   .     S
O1224  Zn1230  1.984   .     S
O1225  Zn1229  2.018   .     S
O1226  Zn1230  2.018   .     S
O1227  Zn1229  2.018   .     S
O1228  Zn1230  2.018   .     S
C1231  C1232   1.409   .     S
C1231  O1306   1.276   .     A
C1231  O1303   1.276   .     A
C1232  C1264   1.411   .     A
C1232  C1267   1.411   .     A
C1233  H1300   1.081   .     S
C1233  N1302   1.366   .     A
C1234  H1270   1.081   .     S
C1234  N1301   1.366   .     A
C1234  C743    1.416   1_565 S
C1235  N1302   1.366   .     A
C1235  H1271   1.082   .     S
C1236  N1301   1.366   .     A
C1236  H1272   1.082   .     S
C1236  C741    1.416   1_565 S
C1237  O1307   1.287   .     A
C1237  C1243   1.438   .     S
C1237  O1310   1.287   .     A
C1238  O1309   1.287   .     A
C1238  O1308   1.287   .     A
C1238  C1241   1.438   .     S
C1239  H1269   1.085   .     S
C1239  C1250   1.383   .     A
C1239  C1241   1.398   .     A
C1240  C1251   1.383   .     A
C1240  H1280   1.085   .     S
C1240  C1243   1.398   .     A
C1241  C1244   1.398   .     A
C1242  O1304   1.276   .     A
C1242  C1268   1.409   .     S
C1242  O1305   1.276   .     A
C1243  C1245   1.398   .     A
C1244  H1291   1.085   .     S
C1244  C1246   1.383   .     A
C1245  H1295   1.085   .     S
C1245  C1247   1.383   .     A
C1246  C1252   1.400   .     A
C1246  C1248   1.411   .     A
C1247  C1254   1.400   .     A
C1247  C1249   1.411   .     A
C1248  C1250   1.411   .     A
C1248  C511    1.391   1_556 S
C1249  C1251   1.411   .     A
C1250  C1263   1.400   .     A
C1251  C1253   1.400   .     A
C1252  H1296   1.084   .     S
C1252  C515    1.389   1_556 S
C1253  H1298   1.084   .     S
C1254  H1297   1.084   .     S
C1255  H1277   1.107   .     S
C1255  C1264   1.532   .     S
C1255  C1256   1.528   .     S
C1255  H1276   1.109   .     S
C1256  H1274   1.108   .     S
C1256  H1275   1.110   .     S
C1256  H1273   1.110   .     S
C1257  C1265   1.532   .     S
C1257  H1282   1.107   .     S
C1257  H1283   1.109   .     S
C1257  C1258   1.528   .     S
C1258  H1281   1.110   .     S
C1258  H1279   1.108   .     S
C1258  H1278   1.110   .     S
C1259  C1266   1.532   .     S
C1259  C1260   1.528   .     S
C1259  H1287   1.109   .     S
C1259  H1288   1.107   .     S
C1260  H1284   1.109   .     S
C1260  H1286   1.110   .     S
C1260  H1285   1.108   .     S
C1261  H1293   1.107   .     S
C1261  C1267   1.532   .     S
C1261  C1262   1.528   .     S
C1261  H1294   1.109   .     S
C1262  H1290   1.108   .     S
C1262  H1292   1.110   .     S
C1262  H1289   1.109   .     S
C1263  H1299   1.084   .     S
C1263  C516    1.389   1_556 S
C1264  C1430   1.397   1_455 S
C1265  C1268   1.411   .     A
C1265  C1349   1.397   .     S
C1266  C1268   1.411   .     A
C1266  C1346   1.397   .     S
C1267  C1429   1.397   1_455 S
N1301  Zn1311  2.008   .     S
N1302  Zn1312  2.008   .     S
O1303  Zn1311  1.984   .     S
O1304  Zn1312  1.984   .     S
O1305  Zn1311  1.984   .     S
O1306  Zn1312  1.984   .     S
O1307  Zn1311  2.018   .     S
O1308  Zn1312  2.018   .     S
O1309  Zn1311  2.018   .     S
O1310  Zn1312  2.018   .     S
C1313  C1314   1.409   .     S
C1313  O1388   1.276   .     A
C1313  O1385   1.276   .     A
C1314  C1346   1.411   .     A
C1314  C1349   1.411   .     A
C1315  H1382   1.081   .     S
C1315  N1384   1.366   .     A
C1316  H1352   1.081   .     S
C1316  N1383   1.366   .     A
C1316  C825    1.416   1_565 S
C1317  N1384   1.366   .     A
C1317  H1353   1.082   .     S
C1318  N1383   1.366   .     A
C1318  H1354   1.082   .     S
C1318  C823    1.416   1_565 S
C1319  O1389   1.287   .     A
C1319  C1325   1.438   .     S
C1319  O1392   1.287   .     A
C1320  O1391   1.287   .     A
C1320  O1390   1.287   .     A
C1320  C1323   1.438   .     S
C1321  H1351   1.085   .     S
C1321  C1332   1.383   .     A
C1321  C1323   1.398   .     A
C1322  C1333   1.383   .     A
C1322  H1362   1.085   .     S
C1322  C1325   1.398   .     A
C1323  C1326   1.398   .     A
C1324  O1386   1.276   .     A
C1324  C1350   1.409   .     S
C1324  O1387   1.276   .     A
C1325  C1327   1.398   .     A
C1326  H1373   1.085   .     S
C1326  C1328   1.383   .     A
C1327  H1377   1.085   .     S
C1327  C1329   1.383   .     A
C1328  C1334   1.400   .     A
C1328  C1330   1.411   .     A
C1329  C1336   1.400   .     A
C1329  C1331   1.411   .     A
C1330  C1332   1.411   .     A
C1330  C593    1.391   1_556 S
C1331  C1333   1.411   .     A
C1332  C1345   1.400   .     A
C1333  C1335   1.400   .     A
C1334  H1378   1.084   .     S
C1334  C597    1.389   1_556 S
C1335  H1380   1.084   .     S
C1336  H1379   1.084   .     S
C1337  H1359   1.107   .     S
C1337  C1346   1.532   .     S
C1337  C1338   1.528   .     S
C1337  H1358   1.109   .     S
C1338  H1356   1.108   .     S
C1338  H1357   1.110   .     S
C1338  H1355   1.110   .     S
C1339  C1347   1.532   .     S
C1339  H1364   1.107   .     S
C1339  H1365   1.109   .     S
C1339  C1340   1.528   .     S
C1340  H1363   1.110   .     S
C1340  H1361   1.108   .     S
C1340  H1360   1.110   .     S
C1341  C1348   1.532   .     S
C1341  C1342   1.528   .     S
C1341  H1369   1.109   .     S
C1341  H1370   1.107   .     S
C1342  H1366   1.109   .     S
C1342  H1368   1.110   .     S
C1342  H1367   1.108   .     S
C1343  H1375   1.107   .     S
C1343  C1349   1.532   .     S
C1343  C1344   1.528   .     S
C1343  H1376   1.109   .     S
C1344  H1372   1.108   .     S
C1344  H1374   1.110   .     S
C1344  H1371   1.109   .     S
C1345  H1381   1.084   .     S
C1345  C598    1.389   1_556 S
C1347  C1350   1.411   .     A
C1347  C1431   1.397   .     S
C1348  C1350   1.411   .     A
C1348  C1428   1.397   .     S
N1383  Zn1393  2.008   .     S
N1384  Zn1394  2.008   .     S
O1385  Zn1393  1.984   .     S
O1386  Zn1394  1.984   .     S
O1387  Zn1393  1.984   .     S
O1388  Zn1394  1.984   .     S
O1389  Zn1393  2.018   .     S
O1390  Zn1394  2.018   .     S
O1391  Zn1393  2.018   .     S
O1392  Zn1394  2.018   .     S
C1395  C1396   1.409   .     S
C1395  O1470   1.276   .     A
C1395  O1467   1.276   .     A
C1396  C1428   1.411   .     A
C1396  C1431   1.411   .     A
C1397  H1464   1.081   .     S
C1397  N1466   1.366   .     A
C1398  H1434   1.081   .     S
C1398  N1465   1.366   .     A
C1398  C907    1.416   1_565 S
C1399  N1466   1.366   .     A
C1399  H1435   1.082   .     S
C1400  N1465   1.366   .     A
C1400  H1436   1.082   .     S
C1400  C905    1.416   1_565 S
C1401  O1471   1.287   .     A
C1401  C1407   1.438   .     S
C1401  O1474   1.287   .     A
C1402  O1473   1.287   .     A
C1402  O1472   1.287   .     A
C1402  C1405   1.438   .     S
C1403  H1433   1.085   .     S
C1403  C1414   1.383   .     A
C1403  C1405   1.398   .     A
C1404  C1415   1.383   .     A
C1404  H1444   1.085   .     S
C1404  C1407   1.398   .     A
C1405  C1408   1.398   .     A
C1406  O1468   1.276   .     A
C1406  C1432   1.409   .     S
C1406  O1469   1.276   .     A
C1407  C1409   1.398   .     A
C1408  H1455   1.085   .     S
C1408  C1410   1.383   .     A
C1409  H1459   1.085   .     S
C1409  C1411   1.383   .     A
C1410  C1416   1.400   .     A
C1410  C1412   1.411   .     A
C1411  C1418   1.400   .     A
C1411  C1413   1.411   .     A
C1412  C1414   1.411   .     A
C1412  C675    1.391   1_556 S
C1413  C1415   1.411   .     A
C1414  C1427   1.400   .     A
C1415  C1417   1.400   .     A
C1416  H1460   1.084   .     S
C1416  C679    1.389   1_556 S
C1417  H1462   1.084   .     S
C1418  H1461   1.084   .     S
C1419  H1441   1.107   .     S
C1419  C1428   1.532   .     S
C1419  C1420   1.528   .     S
C1419  H1440   1.109   .     S
C1420  H1438   1.108   .     S
C1420  H1439   1.110   .     S
C1420  H1437   1.110   .     S
C1421  C1429   1.532   .     S
C1421  H1446   1.107   .     S
C1421  H1447   1.109   .     S
C1421  C1422   1.528   .     S
C1422  H1445   1.110   .     S
C1422  H1443   1.108   .     S
C1422  H1442   1.110   .     S
C1423  C1430   1.532   .     S
C1423  C1424   1.528   .     S
C1423  H1451   1.109   .     S
C1423  H1452   1.107   .     S
C1424  H1448   1.109   .     S
C1424  H1450   1.110   .     S
C1424  H1449   1.108   .     S
C1425  H1457   1.107   .     S
C1425  C1431   1.532   .     S
C1425  C1426   1.528   .     S
C1425  H1458   1.109   .     S
C1426  H1454   1.108   .     S
C1426  H1456   1.110   .     S
C1426  H1453   1.109   .     S
C1427  H1463   1.084   .     S
C1427  C680    1.389   1_556 S
C1429  C1432   1.411   .     A
C1429  C1267   1.397   1_655 S
C1430  C1432   1.411   .     A
C1430  C1264   1.397   1_655 S
N1465  Zn1475  2.008   .     S
N1466  Zn1476  2.008   .     S
O1467  Zn1475  1.984   .     S
O1468  Zn1476  1.984   .     S
O1469  Zn1475  1.984   .     S
O1470  Zn1476  1.984   .     S
O1471  Zn1475  2.018   .     S
O1472  Zn1476  2.018   .     S
O1473  Zn1475  2.018   .     S
O1474  Zn1476  2.018   .     S
