data_str_m3_o5_o17_pcu_sym.17
_audit_creation_date              2020-01-03
_audit_creation_method            'Materials Studio'
_symmetry_space_group_name_H-M    'P1'
_symmetry_Int_Tables_number       1
_symmetry_cell_setting            triclinic
loop_
_symmetry_equiv_pos_as_xyz
  x,y,z
_cell_length_a                    29.8811
_cell_length_b                    26.7783
_cell_length_c                    24.3464
_cell_angle_alpha                 90.0424
_cell_angle_beta                  90.0001
_cell_angle_gamma                 89.9998
loop_
_atom_site_label
_atom_site_type_symbol
_atom_site_fract_x
_atom_site_fract_y
_atom_site_fract_z
_atom_site_U_iso_or_equiv
_atom_site_adp_type
_atom_site_occupancy
O1     O     0.25000   0.09512   0.21228   0.00000  Uiso   1.00
O2     O     0.25000   0.23822   0.12105   0.00000  Uiso   1.00
O3     O     0.25000   0.23822   0.21228   0.00000  Uiso   1.00
O4     O     0.25000   0.09512   0.12105   0.00000  Uiso   1.00
H5     H     0.45937   0.04130   0.18623   0.00000  Uiso   1.00
H6     H     0.04014   0.29195   0.14570   0.00000  Uiso   1.00
H7     H     0.45937   0.29203   0.14711   0.00000  Uiso   1.00
H8     H     0.04014   0.04139   0.18763   0.00000  Uiso   1.00
C9     C     0.25002   0.07268   0.16666   0.00000  Uiso   1.00
C10    C     0.25002   0.26065   0.16668   0.00000  Uiso   1.00
O11    O     0.18392   0.16667   0.21230   0.00000  Uiso   1.00
O12    O     0.31607   0.16667   0.12104   0.00000  Uiso   1.00
O13    O     0.31607   0.16667   0.21230   0.00000  Uiso   1.00
O14    O     0.18392   0.16667   0.12104   0.00000  Uiso   1.00
C15    C     0.16335   0.16667   0.16667   0.00000  Uiso   1.00
C16    C     0.33659   0.16667   0.16667   0.00000  Uiso   1.00
Zn17   Zn    0.25000   0.16667   0.22759   0.00000  Uiso   1.00
Zn18   Zn    0.25000   0.16667   0.10574   0.00000  Uiso   1.00
N19    N     0.25000   0.16667   0.02455   0.00000  Uiso   1.00
N20    N     0.25000   0.16667   0.30879   0.00000  Uiso   1.00
C21    C     0.40652   0.21234   0.16335   0.00000  Uiso   1.00
C22    C     0.09329   0.12199   0.17791   0.00000  Uiso   1.00
C23    C     0.40652   0.12099   0.16998   0.00000  Uiso   1.00
C24    C     0.09329   0.21135   0.15543   0.00000  Uiso   1.00
C25    C     0.38409   0.16667   0.16667   0.00000  Uiso   1.00
C26    C     0.11576   0.16667   0.16667   0.00000  Uiso   1.00
C27    C     0.45312   0.12103   0.17260   0.00000  Uiso   1.00
C28    C     0.04665   0.21195   0.15796   0.00000  Uiso   1.00
C29    C     0.45312   0.21230   0.16073   0.00000  Uiso   1.00
C30    C     0.04665   0.12138   0.17537   0.00000  Uiso   1.00
C31    C     0.47649   0.16667   0.16667   0.00000  Uiso   1.00
C32    C     0.02330   0.16667   0.16667   0.00000  Uiso   1.00
C33    C     0.47667   0.07642   0.18051   0.00000  Uiso   1.00
C34    C     0.02300   0.25678   0.15161   0.00000  Uiso   1.00
C35    C     0.47667   0.25692   0.15283   0.00000  Uiso   1.00
C36    C     0.02300   0.07656   0.18172   0.00000  Uiso   1.00
C37    C     0.25002   0.02174   0.16665   0.00000  Uiso   1.00
C38    C     0.25002   0.31160   0.16668   0.00000  Uiso   1.00
O39    O     0.38247   0.25648   0.15955   0.00000  Uiso   1.00
C40    C     0.37710   0.27629   0.21291   0.00000  Uiso   1.00
H41    H     0.40973   0.28839   0.23041   0.00000  Uiso   1.00
H42    H     0.36061   0.24927   0.24109   0.00000  Uiso   1.00
H43    H     0.35519   0.30962   0.21052   0.00000  Uiso   1.00
O44    O     0.11738   0.07837   0.18620   0.00000  Uiso   1.00
C45    C     0.12157   0.07001   0.24322   0.00000  Uiso   1.00
H46    H     0.08854   0.06297   0.26275   0.00000  Uiso   1.00
H47    H     0.13845   0.10165   0.26432   0.00000  Uiso   1.00
H48    H     0.14247   0.03626   0.24958   0.00000  Uiso   1.00
O49    O     0.38248   0.07685   0.17378   0.00000  Uiso   1.00
C50    C     0.37711   0.05705   0.12042   0.00000  Uiso   1.00
H51    H     0.40974   0.04495   0.10293   0.00000  Uiso   1.00
H52    H     0.36061   0.08406   0.09224   0.00000  Uiso   1.00
H53    H     0.35519   0.02371   0.12282   0.00000  Uiso   1.00
O54    O     0.11738   0.25497   0.14714   0.00000  Uiso   1.00
C55    C     0.12157   0.26334   0.09011   0.00000  Uiso   1.00
H56    H     0.08853   0.27031   0.07057   0.00000  Uiso   1.00
H57    H     0.13849   0.23172   0.06903   0.00000  Uiso   1.00
H58    H     0.14243   0.29711   0.08376   0.00000  Uiso   1.00
O59    O     0.75000   0.09512   0.21228   0.00000  Uiso   1.00
O60    O     0.75000   0.23822   0.12105   0.00000  Uiso   1.00
O61    O     0.75000   0.23822   0.21228   0.00000  Uiso   1.00
O62    O     0.75000   0.09512   0.12105   0.00000  Uiso   1.00
H63    H     0.95937   0.04130   0.18623   0.00000  Uiso   1.00
H64    H     0.54014   0.29195   0.14570   0.00000  Uiso   1.00
H65    H     0.95937   0.29203   0.14711   0.00000  Uiso   1.00
H66    H     0.54014   0.04139   0.18763   0.00000  Uiso   1.00
C67    C     0.75002   0.07268   0.16666   0.00000  Uiso   1.00
C68    C     0.75002   0.26065   0.16668   0.00000  Uiso   1.00
O69    O     0.68392   0.16667   0.21230   0.00000  Uiso   1.00
O70    O     0.81607   0.16667   0.12104   0.00000  Uiso   1.00
O71    O     0.81607   0.16667   0.21230   0.00000  Uiso   1.00
O72    O     0.68392   0.16667   0.12104   0.00000  Uiso   1.00
C73    C     0.66335   0.16667   0.16667   0.00000  Uiso   1.00
C74    C     0.83659   0.16667   0.16667   0.00000  Uiso   1.00
Zn75   Zn    0.75000   0.16667   0.22759   0.00000  Uiso   1.00
Zn76   Zn    0.75000   0.16667   0.10574   0.00000  Uiso   1.00
N77    N     0.75000   0.16667   0.02455   0.00000  Uiso   1.00
N78    N     0.75000   0.16667   0.30879   0.00000  Uiso   1.00
C79    C     0.90652   0.21234   0.16335   0.00000  Uiso   1.00
C80    C     0.59329   0.12199   0.17791   0.00000  Uiso   1.00
C81    C     0.90652   0.12099   0.16998   0.00000  Uiso   1.00
C82    C     0.59329   0.21135   0.15543   0.00000  Uiso   1.00
C83    C     0.88409   0.16667   0.16667   0.00000  Uiso   1.00
C84    C     0.61576   0.16667   0.16667   0.00000  Uiso   1.00
C85    C     0.95312   0.12103   0.17260   0.00000  Uiso   1.00
C86    C     0.54665   0.21195   0.15796   0.00000  Uiso   1.00
C87    C     0.95312   0.21230   0.16073   0.00000  Uiso   1.00
C88    C     0.54665   0.12138   0.17537   0.00000  Uiso   1.00
C89    C     0.97649   0.16667   0.16667   0.00000  Uiso   1.00
C90    C     0.52330   0.16667   0.16667   0.00000  Uiso   1.00
C91    C     0.97667   0.07642   0.18051   0.00000  Uiso   1.00
C92    C     0.52300   0.25678   0.15161   0.00000  Uiso   1.00
C93    C     0.97667   0.25692   0.15283   0.00000  Uiso   1.00
C94    C     0.52300   0.07656   0.18172   0.00000  Uiso   1.00
C95    C     0.75002   0.02174   0.16665   0.00000  Uiso   1.00
C96    C     0.75002   0.31160   0.16668   0.00000  Uiso   1.00
O97    O     0.88247   0.25648   0.15955   0.00000  Uiso   1.00
C98    C     0.87710   0.27629   0.21291   0.00000  Uiso   1.00
H99    H     0.90973   0.28839   0.23041   0.00000  Uiso   1.00
H100   H     0.86061   0.24927   0.24109   0.00000  Uiso   1.00
H101   H     0.85519   0.30962   0.21052   0.00000  Uiso   1.00
O102   O     0.61738   0.07837   0.18620   0.00000  Uiso   1.00
C103   C     0.62157   0.07001   0.24322   0.00000  Uiso   1.00
H104   H     0.58854   0.06297   0.26275   0.00000  Uiso   1.00
H105   H     0.63845   0.10165   0.26432   0.00000  Uiso   1.00
H106   H     0.64247   0.03626   0.24958   0.00000  Uiso   1.00
O107   O     0.88248   0.07685   0.17378   0.00000  Uiso   1.00
C108   C     0.87711   0.05705   0.12042   0.00000  Uiso   1.00
H109   H     0.90974   0.04495   0.10293   0.00000  Uiso   1.00
H110   H     0.86061   0.08406   0.09224   0.00000  Uiso   1.00
H111   H     0.85519   0.02371   0.12282   0.00000  Uiso   1.00
O112   O     0.61738   0.25497   0.14714   0.00000  Uiso   1.00
C113   C     0.62157   0.26334   0.09011   0.00000  Uiso   1.00
H114   H     0.58853   0.27031   0.07057   0.00000  Uiso   1.00
H115   H     0.63849   0.23172   0.06903   0.00000  Uiso   1.00
H116   H     0.64243   0.29711   0.08376   0.00000  Uiso   1.00
O117   O     0.25000   0.42845   0.21228   0.00000  Uiso   1.00
O118   O     0.25000   0.57155   0.12105   0.00000  Uiso   1.00
O119   O     0.25000   0.57155   0.21228   0.00000  Uiso   1.00
O120   O     0.25000   0.42845   0.12105   0.00000  Uiso   1.00
H121   H     0.45937   0.37464   0.18623   0.00000  Uiso   1.00
H122   H     0.04014   0.62528   0.14570   0.00000  Uiso   1.00
H123   H     0.45937   0.62536   0.14711   0.00000  Uiso   1.00
H124   H     0.04014   0.37472   0.18763   0.00000  Uiso   1.00
C125   C     0.25002   0.40601   0.16666   0.00000  Uiso   1.00
C126   C     0.25002   0.59399   0.16668   0.00000  Uiso   1.00
O127   O     0.18392   0.50000   0.21230   0.00000  Uiso   1.00
O128   O     0.31607   0.50000   0.12104   0.00000  Uiso   1.00
O129   O     0.31607   0.50000   0.21230   0.00000  Uiso   1.00
O130   O     0.18392   0.50000   0.12104   0.00000  Uiso   1.00
C131   C     0.16335   0.50000   0.16667   0.00000  Uiso   1.00
C132   C     0.33659   0.50000   0.16667   0.00000  Uiso   1.00
Zn133  Zn    0.25000   0.50000   0.22759   0.00000  Uiso   1.00
Zn134  Zn    0.25000   0.50000   0.10574   0.00000  Uiso   1.00
N135   N     0.25000   0.50000   0.02455   0.00000  Uiso   1.00
N136   N     0.25000   0.50000   0.30879   0.00000  Uiso   1.00
C137   C     0.40652   0.54568   0.16335   0.00000  Uiso   1.00
C138   C     0.09329   0.45532   0.17791   0.00000  Uiso   1.00
C139   C     0.40652   0.45432   0.16998   0.00000  Uiso   1.00
C140   C     0.09329   0.54468   0.15543   0.00000  Uiso   1.00
C141   C     0.38409   0.50000   0.16667   0.00000  Uiso   1.00
C142   C     0.11576   0.50000   0.16667   0.00000  Uiso   1.00
C143   C     0.45312   0.45437   0.17260   0.00000  Uiso   1.00
C144   C     0.04665   0.54529   0.15796   0.00000  Uiso   1.00
C145   C     0.45312   0.54563   0.16073   0.00000  Uiso   1.00
C146   C     0.04665   0.45471   0.17537   0.00000  Uiso   1.00
C147   C     0.47649   0.50000   0.16667   0.00000  Uiso   1.00
C148   C     0.02330   0.50000   0.16667   0.00000  Uiso   1.00
C149   C     0.47667   0.40975   0.18051   0.00000  Uiso   1.00
C150   C     0.02300   0.59011   0.15161   0.00000  Uiso   1.00
C151   C     0.47667   0.59025   0.15283   0.00000  Uiso   1.00
C152   C     0.02300   0.40989   0.18172   0.00000  Uiso   1.00
C153   C     0.25002   0.35507   0.16665   0.00000  Uiso   1.00
C154   C     0.25002   0.64493   0.16668   0.00000  Uiso   1.00
O155   O     0.38247   0.58981   0.15955   0.00000  Uiso   1.00
C156   C     0.37710   0.60962   0.21291   0.00000  Uiso   1.00
H157   H     0.40973   0.62172   0.23041   0.00000  Uiso   1.00
H158   H     0.36061   0.58260   0.24109   0.00000  Uiso   1.00
H159   H     0.35519   0.64296   0.21052   0.00000  Uiso   1.00
O160   O     0.11738   0.41170   0.18620   0.00000  Uiso   1.00
C161   C     0.12157   0.40334   0.24322   0.00000  Uiso   1.00
H162   H     0.08854   0.39631   0.26275   0.00000  Uiso   1.00
H163   H     0.13845   0.43498   0.26432   0.00000  Uiso   1.00
H164   H     0.14247   0.36960   0.24958   0.00000  Uiso   1.00
O165   O     0.38248   0.41018   0.17378   0.00000  Uiso   1.00
C166   C     0.37711   0.39038   0.12042   0.00000  Uiso   1.00
H167   H     0.40974   0.37828   0.10293   0.00000  Uiso   1.00
H168   H     0.36061   0.41740   0.09224   0.00000  Uiso   1.00
H169   H     0.35519   0.35704   0.12282   0.00000  Uiso   1.00
O170   O     0.11738   0.58830   0.14714   0.00000  Uiso   1.00
C171   C     0.12157   0.59667   0.09011   0.00000  Uiso   1.00
H172   H     0.08853   0.60365   0.07057   0.00000  Uiso   1.00
H173   H     0.13849   0.56506   0.06903   0.00000  Uiso   1.00
H174   H     0.14243   0.63045   0.08376   0.00000  Uiso   1.00
O175   O     0.75000   0.42845   0.21228   0.00000  Uiso   1.00
O176   O     0.75000   0.57155   0.12105   0.00000  Uiso   1.00
O177   O     0.75000   0.57155   0.21228   0.00000  Uiso   1.00
O178   O     0.75000   0.42845   0.12105   0.00000  Uiso   1.00
H179   H     0.95937   0.37464   0.18623   0.00000  Uiso   1.00
H180   H     0.54014   0.62528   0.14570   0.00000  Uiso   1.00
H181   H     0.95937   0.62536   0.14711   0.00000  Uiso   1.00
H182   H     0.54014   0.37472   0.18763   0.00000  Uiso   1.00
C183   C     0.75002   0.40601   0.16666   0.00000  Uiso   1.00
C184   C     0.75002   0.59399   0.16668   0.00000  Uiso   1.00
O185   O     0.68392   0.50000   0.21230   0.00000  Uiso   1.00
O186   O     0.81607   0.50000   0.12104   0.00000  Uiso   1.00
O187   O     0.81607   0.50000   0.21230   0.00000  Uiso   1.00
O188   O     0.68392   0.50000   0.12104   0.00000  Uiso   1.00
C189   C     0.66335   0.50000   0.16667   0.00000  Uiso   1.00
C190   C     0.83659   0.50000   0.16667   0.00000  Uiso   1.00
Zn191  Zn    0.75000   0.50000   0.22759   0.00000  Uiso   1.00
Zn192  Zn    0.75000   0.50000   0.10574   0.00000  Uiso   1.00
N193   N     0.75000   0.50000   0.02455   0.00000  Uiso   1.00
N194   N     0.75000   0.50000   0.30879   0.00000  Uiso   1.00
C195   C     0.90652   0.54568   0.16335   0.00000  Uiso   1.00
C196   C     0.59329   0.45532   0.17791   0.00000  Uiso   1.00
C197   C     0.90652   0.45432   0.16998   0.00000  Uiso   1.00
C198   C     0.59329   0.54468   0.15543   0.00000  Uiso   1.00
C199   C     0.88409   0.50000   0.16667   0.00000  Uiso   1.00
C200   C     0.61576   0.50000   0.16667   0.00000  Uiso   1.00
C201   C     0.95312   0.45437   0.17260   0.00000  Uiso   1.00
C202   C     0.54665   0.54529   0.15796   0.00000  Uiso   1.00
C203   C     0.95312   0.54563   0.16073   0.00000  Uiso   1.00
C204   C     0.54665   0.45471   0.17537   0.00000  Uiso   1.00
C205   C     0.97649   0.50000   0.16667   0.00000  Uiso   1.00
C206   C     0.52330   0.50000   0.16667   0.00000  Uiso   1.00
C207   C     0.97667   0.40975   0.18051   0.00000  Uiso   1.00
C208   C     0.52300   0.59011   0.15161   0.00000  Uiso   1.00
C209   C     0.97667   0.59025   0.15283   0.00000  Uiso   1.00
C210   C     0.52300   0.40989   0.18172   0.00000  Uiso   1.00
C211   C     0.75002   0.35507   0.16665   0.00000  Uiso   1.00
C212   C     0.75002   0.64493   0.16668   0.00000  Uiso   1.00
O213   O     0.88247   0.58981   0.15955   0.00000  Uiso   1.00
C214   C     0.87710   0.60962   0.21291   0.00000  Uiso   1.00
H215   H     0.90973   0.62172   0.23041   0.00000  Uiso   1.00
H216   H     0.86061   0.58260   0.24109   0.00000  Uiso   1.00
H217   H     0.85519   0.64296   0.21052   0.00000  Uiso   1.00
O218   O     0.61738   0.41170   0.18620   0.00000  Uiso   1.00
C219   C     0.62157   0.40334   0.24322   0.00000  Uiso   1.00
H220   H     0.58854   0.39631   0.26275   0.00000  Uiso   1.00
H221   H     0.63845   0.43498   0.26432   0.00000  Uiso   1.00
H222   H     0.64247   0.36960   0.24958   0.00000  Uiso   1.00
O223   O     0.88248   0.41018   0.17378   0.00000  Uiso   1.00
C224   C     0.87711   0.39038   0.12042   0.00000  Uiso   1.00
H225   H     0.90974   0.37828   0.10293   0.00000  Uiso   1.00
H226   H     0.86061   0.41740   0.09224   0.00000  Uiso   1.00
H227   H     0.85519   0.35704   0.12282   0.00000  Uiso   1.00
O228   O     0.61738   0.58830   0.14714   0.00000  Uiso   1.00
C229   C     0.62157   0.59667   0.09011   0.00000  Uiso   1.00
H230   H     0.58853   0.60365   0.07057   0.00000  Uiso   1.00
H231   H     0.63849   0.56506   0.06903   0.00000  Uiso   1.00
H232   H     0.64243   0.63045   0.08376   0.00000  Uiso   1.00
O233   O     0.25000   0.76178   0.21228   0.00000  Uiso   1.00
O234   O     0.25000   0.90488   0.12105   0.00000  Uiso   1.00
O235   O     0.25000   0.90488   0.21228   0.00000  Uiso   1.00
O236   O     0.25000   0.76178   0.12105   0.00000  Uiso   1.00
H237   H     0.45937   0.70797   0.18623   0.00000  Uiso   1.00
H238   H     0.04014   0.95861   0.14570   0.00000  Uiso   1.00
H239   H     0.45937   0.95870   0.14711   0.00000  Uiso   1.00
H240   H     0.04014   0.70805   0.18763   0.00000  Uiso   1.00
C241   C     0.25002   0.73935   0.16666   0.00000  Uiso   1.00
C242   C     0.25002   0.92732   0.16668   0.00000  Uiso   1.00
O243   O     0.18392   0.83333   0.21230   0.00000  Uiso   1.00
O244   O     0.31607   0.83333   0.12104   0.00000  Uiso   1.00
O245   O     0.31607   0.83333   0.21230   0.00000  Uiso   1.00
O246   O     0.18392   0.83333   0.12104   0.00000  Uiso   1.00
C247   C     0.16335   0.83333   0.16667   0.00000  Uiso   1.00
C248   C     0.33659   0.83333   0.16667   0.00000  Uiso   1.00
Zn249  Zn    0.25000   0.83333   0.22759   0.00000  Uiso   1.00
Zn250  Zn    0.25000   0.83333   0.10574   0.00000  Uiso   1.00
N251   N     0.25000   0.83333   0.02455   0.00000  Uiso   1.00
N252   N     0.25000   0.83333   0.30879   0.00000  Uiso   1.00
C253   C     0.40652   0.87901   0.16335   0.00000  Uiso   1.00
C254   C     0.09329   0.78866   0.17791   0.00000  Uiso   1.00
C255   C     0.40652   0.78765   0.16998   0.00000  Uiso   1.00
C256   C     0.09329   0.87801   0.15543   0.00000  Uiso   1.00
C257   C     0.38409   0.83333   0.16667   0.00000  Uiso   1.00
C258   C     0.11576   0.83333   0.16667   0.00000  Uiso   1.00
C259   C     0.45312   0.78770   0.17260   0.00000  Uiso   1.00
C260   C     0.04665   0.87862   0.15796   0.00000  Uiso   1.00
C261   C     0.45312   0.87897   0.16073   0.00000  Uiso   1.00
C262   C     0.04665   0.78805   0.17537   0.00000  Uiso   1.00
C263   C     0.47649   0.83333   0.16667   0.00000  Uiso   1.00
C264   C     0.02330   0.83333   0.16667   0.00000  Uiso   1.00
C265   C     0.47667   0.74308   0.18051   0.00000  Uiso   1.00
C266   C     0.02300   0.92344   0.15161   0.00000  Uiso   1.00
C267   C     0.47667   0.92358   0.15283   0.00000  Uiso   1.00
C268   C     0.02300   0.74322   0.18172   0.00000  Uiso   1.00
C269   C     0.25002   0.68840   0.16665   0.00000  Uiso   1.00
C270   C     0.25002   0.97826   0.16668   0.00000  Uiso   1.00
O271   O     0.38247   0.92315   0.15955   0.00000  Uiso   1.00
C272   C     0.37710   0.94295   0.21291   0.00000  Uiso   1.00
H273   H     0.40973   0.95505   0.23041   0.00000  Uiso   1.00
H274   H     0.36061   0.91593   0.24109   0.00000  Uiso   1.00
H275   H     0.35519   0.97629   0.21052   0.00000  Uiso   1.00
O276   O     0.11738   0.74503   0.18620   0.00000  Uiso   1.00
C277   C     0.12157   0.73667   0.24322   0.00000  Uiso   1.00
H278   H     0.08854   0.72964   0.26275   0.00000  Uiso   1.00
H279   H     0.13845   0.76831   0.26432   0.00000  Uiso   1.00
H280   H     0.14247   0.70293   0.24958   0.00000  Uiso   1.00
O281   O     0.38248   0.74352   0.17378   0.00000  Uiso   1.00
C282   C     0.37711   0.72371   0.12042   0.00000  Uiso   1.00
H283   H     0.40974   0.71161   0.10293   0.00000  Uiso   1.00
H284   H     0.36061   0.75073   0.09224   0.00000  Uiso   1.00
H285   H     0.35519   0.69038   0.12282   0.00000  Uiso   1.00
O286   O     0.11738   0.92164   0.14714   0.00000  Uiso   1.00
C287   C     0.12157   0.93000   0.09011   0.00000  Uiso   1.00
H288   H     0.08853   0.93698   0.07057   0.00000  Uiso   1.00
H289   H     0.13849   0.89839   0.06903   0.00000  Uiso   1.00
H290   H     0.14243   0.96378   0.08376   0.00000  Uiso   1.00
O291   O     0.75000   0.76178   0.21228   0.00000  Uiso   1.00
O292   O     0.75000   0.90488   0.12105   0.00000  Uiso   1.00
O293   O     0.75000   0.90488   0.21228   0.00000  Uiso   1.00
O294   O     0.75000   0.76178   0.12105   0.00000  Uiso   1.00
H295   H     0.95937   0.70797   0.18623   0.00000  Uiso   1.00
H296   H     0.54014   0.95861   0.14570   0.00000  Uiso   1.00
H297   H     0.95937   0.95870   0.14711   0.00000  Uiso   1.00
H298   H     0.54014   0.70805   0.18763   0.00000  Uiso   1.00
C299   C     0.75002   0.73935   0.16666   0.00000  Uiso   1.00
C300   C     0.75002   0.92732   0.16668   0.00000  Uiso   1.00
O301   O     0.68392   0.83333   0.21230   0.00000  Uiso   1.00
O302   O     0.81607   0.83333   0.12104   0.00000  Uiso   1.00
O303   O     0.81607   0.83333   0.21230   0.00000  Uiso   1.00
O304   O     0.68392   0.83333   0.12104   0.00000  Uiso   1.00
C305   C     0.66335   0.83333   0.16667   0.00000  Uiso   1.00
C306   C     0.83659   0.83333   0.16667   0.00000  Uiso   1.00
Zn307  Zn    0.75000   0.83333   0.22759   0.00000  Uiso   1.00
Zn308  Zn    0.75000   0.83333   0.10574   0.00000  Uiso   1.00
N309   N     0.75000   0.83333   0.02455   0.00000  Uiso   1.00
N310   N     0.75000   0.83333   0.30879   0.00000  Uiso   1.00
C311   C     0.90652   0.87901   0.16335   0.00000  Uiso   1.00
C312   C     0.59329   0.78866   0.17791   0.00000  Uiso   1.00
C313   C     0.90652   0.78765   0.16998   0.00000  Uiso   1.00
C314   C     0.59329   0.87801   0.15543   0.00000  Uiso   1.00
C315   C     0.88409   0.83333   0.16667   0.00000  Uiso   1.00
C316   C     0.61576   0.83333   0.16667   0.00000  Uiso   1.00
C317   C     0.95312   0.78770   0.17260   0.00000  Uiso   1.00
C318   C     0.54665   0.87862   0.15796   0.00000  Uiso   1.00
C319   C     0.95312   0.87897   0.16073   0.00000  Uiso   1.00
C320   C     0.54665   0.78805   0.17537   0.00000  Uiso   1.00
C321   C     0.97649   0.83333   0.16667   0.00000  Uiso   1.00
C322   C     0.52330   0.83333   0.16667   0.00000  Uiso   1.00
C323   C     0.97667   0.74308   0.18051   0.00000  Uiso   1.00
C324   C     0.52300   0.92344   0.15161   0.00000  Uiso   1.00
C325   C     0.97667   0.92358   0.15283   0.00000  Uiso   1.00
C326   C     0.52300   0.74322   0.18172   0.00000  Uiso   1.00
C327   C     0.75002   0.68840   0.16665   0.00000  Uiso   1.00
C328   C     0.75002   0.97826   0.16668   0.00000  Uiso   1.00
O329   O     0.88247   0.92315   0.15955   0.00000  Uiso   1.00
C330   C     0.87710   0.94295   0.21291   0.00000  Uiso   1.00
H331   H     0.90973   0.95505   0.23041   0.00000  Uiso   1.00
H332   H     0.86061   0.91593   0.24109   0.00000  Uiso   1.00
H333   H     0.85519   0.97629   0.21052   0.00000  Uiso   1.00
O334   O     0.61738   0.74503   0.18620   0.00000  Uiso   1.00
C335   C     0.62157   0.73667   0.24322   0.00000  Uiso   1.00
H336   H     0.58854   0.72964   0.26275   0.00000  Uiso   1.00
H337   H     0.63845   0.76831   0.26432   0.00000  Uiso   1.00
H338   H     0.64247   0.70293   0.24958   0.00000  Uiso   1.00
O339   O     0.88248   0.74352   0.17378   0.00000  Uiso   1.00
C340   C     0.87711   0.72371   0.12042   0.00000  Uiso   1.00
H341   H     0.90974   0.71161   0.10293   0.00000  Uiso   1.00
H342   H     0.86061   0.75073   0.09224   0.00000  Uiso   1.00
H343   H     0.85519   0.69038   0.12282   0.00000  Uiso   1.00
O344   O     0.61738   0.92164   0.14714   0.00000  Uiso   1.00
C345   C     0.62157   0.93000   0.09011   0.00000  Uiso   1.00
H346   H     0.58853   0.93698   0.07057   0.00000  Uiso   1.00
H347   H     0.63849   0.89839   0.06903   0.00000  Uiso   1.00
H348   H     0.64243   0.96378   0.08376   0.00000  Uiso   1.00
O349   O     0.25000   0.09512   0.54562   0.00000  Uiso   1.00
O350   O     0.25000   0.23822   0.45438   0.00000  Uiso   1.00
O351   O     0.25000   0.23822   0.54562   0.00000  Uiso   1.00
O352   O     0.25000   0.09512   0.45438   0.00000  Uiso   1.00
H353   H     0.45937   0.04130   0.51956   0.00000  Uiso   1.00
H354   H     0.04014   0.29195   0.47903   0.00000  Uiso   1.00
H355   H     0.45937   0.29203   0.48044   0.00000  Uiso   1.00
H356   H     0.04014   0.04139   0.52096   0.00000  Uiso   1.00
C357   C     0.25002   0.07268   0.49999   0.00000  Uiso   1.00
C358   C     0.25002   0.26065   0.50001   0.00000  Uiso   1.00
O359   O     0.18392   0.16667   0.54563   0.00000  Uiso   1.00
O360   O     0.31607   0.16667   0.45437   0.00000  Uiso   1.00
O361   O     0.31607   0.16667   0.54563   0.00000  Uiso   1.00
O362   O     0.18392   0.16667   0.45437   0.00000  Uiso   1.00
C363   C     0.16335   0.16667   0.50000   0.00000  Uiso   1.00
C364   C     0.33659   0.16667   0.50000   0.00000  Uiso   1.00
Zn365  Zn    0.25000   0.16667   0.56093   0.00000  Uiso   1.00
Zn366  Zn    0.25000   0.16667   0.43907   0.00000  Uiso   1.00
N367   N     0.25000   0.16667   0.35788   0.00000  Uiso   1.00
N368   N     0.25000   0.16667   0.64212   0.00000  Uiso   1.00
C369   C     0.40652   0.21234   0.49669   0.00000  Uiso   1.00
C370   C     0.09329   0.12199   0.51124   0.00000  Uiso   1.00
C371   C     0.40652   0.12099   0.50332   0.00000  Uiso   1.00
C372   C     0.09329   0.21135   0.48876   0.00000  Uiso   1.00
C373   C     0.38409   0.16667   0.50000   0.00000  Uiso   1.00
C374   C     0.11576   0.16667   0.50000   0.00000  Uiso   1.00
C375   C     0.45312   0.12103   0.50593   0.00000  Uiso   1.00
C376   C     0.04665   0.21195   0.49129   0.00000  Uiso   1.00
C377   C     0.45312   0.21230   0.49407   0.00000  Uiso   1.00
C378   C     0.04665   0.12138   0.50871   0.00000  Uiso   1.00
C379   C     0.47649   0.16667   0.50000   0.00000  Uiso   1.00
C380   C     0.02330   0.16667   0.50000   0.00000  Uiso   1.00
C381   C     0.47667   0.07642   0.51384   0.00000  Uiso   1.00
C382   C     0.02300   0.25678   0.48494   0.00000  Uiso   1.00
C383   C     0.47667   0.25692   0.48616   0.00000  Uiso   1.00
C384   C     0.02300   0.07656   0.51506   0.00000  Uiso   1.00
C385   C     0.25002   0.02174   0.49998   0.00000  Uiso   1.00
C386   C     0.25002   0.31160   0.50002   0.00000  Uiso   1.00
O387   O     0.38247   0.25648   0.49289   0.00000  Uiso   1.00
C388   C     0.37710   0.27629   0.54624   0.00000  Uiso   1.00
H389   H     0.40973   0.28839   0.56374   0.00000  Uiso   1.00
H390   H     0.36061   0.24927   0.57442   0.00000  Uiso   1.00
H391   H     0.35519   0.30962   0.54385   0.00000  Uiso   1.00
O392   O     0.11738   0.07837   0.51953   0.00000  Uiso   1.00
C393   C     0.12157   0.07001   0.57656   0.00000  Uiso   1.00
H394   H     0.08854   0.06297   0.59609   0.00000  Uiso   1.00
H395   H     0.13845   0.10165   0.59765   0.00000  Uiso   1.00
H396   H     0.14247   0.03626   0.58292   0.00000  Uiso   1.00
O397   O     0.38248   0.07685   0.50711   0.00000  Uiso   1.00
C398   C     0.37711   0.05705   0.45376   0.00000  Uiso   1.00
H399   H     0.40974   0.04495   0.43626   0.00000  Uiso   1.00
H400   H     0.36061   0.08406   0.42558   0.00000  Uiso   1.00
H401   H     0.35519   0.02371   0.45615   0.00000  Uiso   1.00
O402   O     0.11738   0.25497   0.48047   0.00000  Uiso   1.00
C403   C     0.12157   0.26334   0.42345   0.00000  Uiso   1.00
H404   H     0.08853   0.27031   0.40391   0.00000  Uiso   1.00
H405   H     0.13849   0.23172   0.40237   0.00000  Uiso   1.00
H406   H     0.14243   0.29711   0.41709   0.00000  Uiso   1.00
O407   O     0.75000   0.09512   0.54562   0.00000  Uiso   1.00
O408   O     0.75000   0.23822   0.45438   0.00000  Uiso   1.00
O409   O     0.75000   0.23822   0.54562   0.00000  Uiso   1.00
O410   O     0.75000   0.09512   0.45438   0.00000  Uiso   1.00
H411   H     0.95937   0.04130   0.51956   0.00000  Uiso   1.00
H412   H     0.54014   0.29195   0.47903   0.00000  Uiso   1.00
H413   H     0.95937   0.29203   0.48044   0.00000  Uiso   1.00
H414   H     0.54014   0.04139   0.52096   0.00000  Uiso   1.00
C415   C     0.75002   0.07268   0.49999   0.00000  Uiso   1.00
C416   C     0.75002   0.26065   0.50001   0.00000  Uiso   1.00
O417   O     0.68392   0.16667   0.54563   0.00000  Uiso   1.00
O418   O     0.81607   0.16667   0.45437   0.00000  Uiso   1.00
O419   O     0.81607   0.16667   0.54563   0.00000  Uiso   1.00
O420   O     0.68392   0.16667   0.45437   0.00000  Uiso   1.00
C421   C     0.66335   0.16667   0.50000   0.00000  Uiso   1.00
C422   C     0.83659   0.16667   0.50000   0.00000  Uiso   1.00
Zn423  Zn    0.75000   0.16667   0.56093   0.00000  Uiso   1.00
Zn424  Zn    0.75000   0.16667   0.43907   0.00000  Uiso   1.00
N425   N     0.75000   0.16667   0.35788   0.00000  Uiso   1.00
N426   N     0.75000   0.16667   0.64212   0.00000  Uiso   1.00
C427   C     0.90652   0.21234   0.49669   0.00000  Uiso   1.00
C428   C     0.59329   0.12199   0.51124   0.00000  Uiso   1.00
C429   C     0.90652   0.12099   0.50332   0.00000  Uiso   1.00
C430   C     0.59329   0.21135   0.48876   0.00000  Uiso   1.00
C431   C     0.88409   0.16667   0.50000   0.00000  Uiso   1.00
C432   C     0.61576   0.16667   0.50000   0.00000  Uiso   1.00
C433   C     0.95312   0.12103   0.50593   0.00000  Uiso   1.00
C434   C     0.54665   0.21195   0.49129   0.00000  Uiso   1.00
C435   C     0.95312   0.21230   0.49407   0.00000  Uiso   1.00
C436   C     0.54665   0.12138   0.50871   0.00000  Uiso   1.00
C437   C     0.97649   0.16667   0.50000   0.00000  Uiso   1.00
C438   C     0.52330   0.16667   0.50000   0.00000  Uiso   1.00
C439   C     0.97667   0.07642   0.51384   0.00000  Uiso   1.00
C440   C     0.52300   0.25678   0.48494   0.00000  Uiso   1.00
C441   C     0.97667   0.25692   0.48616   0.00000  Uiso   1.00
C442   C     0.52300   0.07656   0.51506   0.00000  Uiso   1.00
C443   C     0.75002   0.02174   0.49998   0.00000  Uiso   1.00
C444   C     0.75002   0.31160   0.50002   0.00000  Uiso   1.00
O445   O     0.88247   0.25648   0.49289   0.00000  Uiso   1.00
C446   C     0.87710   0.27629   0.54624   0.00000  Uiso   1.00
H447   H     0.90973   0.28839   0.56374   0.00000  Uiso   1.00
H448   H     0.86061   0.24927   0.57442   0.00000  Uiso   1.00
H449   H     0.85519   0.30962   0.54385   0.00000  Uiso   1.00
O450   O     0.61738   0.07837   0.51953   0.00000  Uiso   1.00
C451   C     0.62157   0.07001   0.57656   0.00000  Uiso   1.00
H452   H     0.58854   0.06297   0.59609   0.00000  Uiso   1.00
H453   H     0.63845   0.10165   0.59765   0.00000  Uiso   1.00
H454   H     0.64247   0.03626   0.58292   0.00000  Uiso   1.00
O455   O     0.88248   0.07685   0.50711   0.00000  Uiso   1.00
C456   C     0.87711   0.05705   0.45376   0.00000  Uiso   1.00
H457   H     0.90974   0.04495   0.43626   0.00000  Uiso   1.00
H458   H     0.86061   0.08406   0.42558   0.00000  Uiso   1.00
H459   H     0.85519   0.02371   0.45615   0.00000  Uiso   1.00
O460   O     0.61738   0.25497   0.48047   0.00000  Uiso   1.00
C461   C     0.62157   0.26334   0.42345   0.00000  Uiso   1.00
H462   H     0.58853   0.27031   0.40391   0.00000  Uiso   1.00
H463   H     0.63849   0.23172   0.40237   0.00000  Uiso   1.00
H464   H     0.64243   0.29711   0.41709   0.00000  Uiso   1.00
O465   O     0.25000   0.42845   0.54562   0.00000  Uiso   1.00
O466   O     0.25000   0.57155   0.45438   0.00000  Uiso   1.00
O467   O     0.25000   0.57155   0.54562   0.00000  Uiso   1.00
O468   O     0.25000   0.42845   0.45438   0.00000  Uiso   1.00
H469   H     0.45937   0.37464   0.51956   0.00000  Uiso   1.00
H470   H     0.04014   0.62528   0.47903   0.00000  Uiso   1.00
H471   H     0.45937   0.62536   0.48044   0.00000  Uiso   1.00
H472   H     0.04014   0.37472   0.52096   0.00000  Uiso   1.00
C473   C     0.25002   0.40601   0.49999   0.00000  Uiso   1.00
C474   C     0.25002   0.59399   0.50001   0.00000  Uiso   1.00
O475   O     0.18392   0.50000   0.54563   0.00000  Uiso   1.00
O476   O     0.31607   0.50000   0.45437   0.00000  Uiso   1.00
O477   O     0.31607   0.50000   0.54563   0.00000  Uiso   1.00
O478   O     0.18392   0.50000   0.45437   0.00000  Uiso   1.00
C479   C     0.16335   0.50000   0.50000   0.00000  Uiso   1.00
C480   C     0.33659   0.50000   0.50000   0.00000  Uiso   1.00
Zn481  Zn    0.25000   0.50000   0.56093   0.00000  Uiso   1.00
Zn482  Zn    0.25000   0.50000   0.43907   0.00000  Uiso   1.00
N483   N     0.25000   0.50000   0.35788   0.00000  Uiso   1.00
N484   N     0.25000   0.50000   0.64212   0.00000  Uiso   1.00
C485   C     0.40652   0.54568   0.49669   0.00000  Uiso   1.00
C486   C     0.09329   0.45532   0.51124   0.00000  Uiso   1.00
C487   C     0.40652   0.45432   0.50332   0.00000  Uiso   1.00
C488   C     0.09329   0.54468   0.48876   0.00000  Uiso   1.00
C489   C     0.38409   0.50000   0.50000   0.00000  Uiso   1.00
C490   C     0.11576   0.50000   0.50000   0.00000  Uiso   1.00
C491   C     0.45312   0.45437   0.50593   0.00000  Uiso   1.00
C492   C     0.04665   0.54529   0.49129   0.00000  Uiso   1.00
C493   C     0.45312   0.54563   0.49407   0.00000  Uiso   1.00
C494   C     0.04665   0.45471   0.50871   0.00000  Uiso   1.00
C495   C     0.47649   0.50000   0.50000   0.00000  Uiso   1.00
C496   C     0.02330   0.50000   0.50000   0.00000  Uiso   1.00
C497   C     0.47667   0.40975   0.51384   0.00000  Uiso   1.00
C498   C     0.02300   0.59011   0.48494   0.00000  Uiso   1.00
C499   C     0.47667   0.59025   0.48616   0.00000  Uiso   1.00
C500   C     0.02300   0.40989   0.51506   0.00000  Uiso   1.00
C501   C     0.25002   0.35507   0.49998   0.00000  Uiso   1.00
C502   C     0.25002   0.64493   0.50002   0.00000  Uiso   1.00
O503   O     0.38247   0.58981   0.49289   0.00000  Uiso   1.00
C504   C     0.37710   0.60962   0.54624   0.00000  Uiso   1.00
H505   H     0.40973   0.62172   0.56374   0.00000  Uiso   1.00
H506   H     0.36061   0.58260   0.57442   0.00000  Uiso   1.00
H507   H     0.35519   0.64296   0.54385   0.00000  Uiso   1.00
O508   O     0.11738   0.41170   0.51953   0.00000  Uiso   1.00
C509   C     0.12157   0.40334   0.57656   0.00000  Uiso   1.00
H510   H     0.08854   0.39631   0.59609   0.00000  Uiso   1.00
H511   H     0.13845   0.43498   0.59765   0.00000  Uiso   1.00
H512   H     0.14247   0.36960   0.58292   0.00000  Uiso   1.00
O513   O     0.38248   0.41018   0.50711   0.00000  Uiso   1.00
C514   C     0.37711   0.39038   0.45376   0.00000  Uiso   1.00
H515   H     0.40974   0.37828   0.43626   0.00000  Uiso   1.00
H516   H     0.36061   0.41740   0.42558   0.00000  Uiso   1.00
H517   H     0.35519   0.35704   0.45615   0.00000  Uiso   1.00
O518   O     0.11738   0.58830   0.48047   0.00000  Uiso   1.00
C519   C     0.12157   0.59667   0.42345   0.00000  Uiso   1.00
H520   H     0.08853   0.60365   0.40391   0.00000  Uiso   1.00
H521   H     0.13849   0.56506   0.40237   0.00000  Uiso   1.00
H522   H     0.14243   0.63045   0.41709   0.00000  Uiso   1.00
O523   O     0.75000   0.42845   0.54562   0.00000  Uiso   1.00
O524   O     0.75000   0.57155   0.45438   0.00000  Uiso   1.00
O525   O     0.75000   0.57155   0.54562   0.00000  Uiso   1.00
O526   O     0.75000   0.42845   0.45438   0.00000  Uiso   1.00
H527   H     0.95937   0.37464   0.51956   0.00000  Uiso   1.00
H528   H     0.54014   0.62528   0.47903   0.00000  Uiso   1.00
H529   H     0.95937   0.62536   0.48044   0.00000  Uiso   1.00
H530   H     0.54014   0.37472   0.52096   0.00000  Uiso   1.00
C531   C     0.75002   0.40601   0.49999   0.00000  Uiso   1.00
C532   C     0.75002   0.59399   0.50001   0.00000  Uiso   1.00
O533   O     0.68392   0.50000   0.54563   0.00000  Uiso   1.00
O534   O     0.81607   0.50000   0.45437   0.00000  Uiso   1.00
O535   O     0.81607   0.50000   0.54563   0.00000  Uiso   1.00
O536   O     0.68392   0.50000   0.45437   0.00000  Uiso   1.00
C537   C     0.66335   0.50000   0.50000   0.00000  Uiso   1.00
C538   C     0.83659   0.50000   0.50000   0.00000  Uiso   1.00
Zn539  Zn    0.75000   0.50000   0.56093   0.00000  Uiso   1.00
Zn540  Zn    0.75000   0.50000   0.43907   0.00000  Uiso   1.00
N541   N     0.75000   0.50000   0.35788   0.00000  Uiso   1.00
N542   N     0.75000   0.50000   0.64212   0.00000  Uiso   1.00
C543   C     0.90652   0.54568   0.49669   0.00000  Uiso   1.00
C544   C     0.59329   0.45532   0.51124   0.00000  Uiso   1.00
C545   C     0.90652   0.45432   0.50332   0.00000  Uiso   1.00
C546   C     0.59329   0.54468   0.48876   0.00000  Uiso   1.00
C547   C     0.88409   0.50000   0.50000   0.00000  Uiso   1.00
C548   C     0.61576   0.50000   0.50000   0.00000  Uiso   1.00
C549   C     0.95312   0.45437   0.50593   0.00000  Uiso   1.00
C550   C     0.54665   0.54529   0.49129   0.00000  Uiso   1.00
C551   C     0.95312   0.54563   0.49407   0.00000  Uiso   1.00
C552   C     0.54665   0.45471   0.50871   0.00000  Uiso   1.00
C553   C     0.97649   0.50000   0.50000   0.00000  Uiso   1.00
C554   C     0.52330   0.50000   0.50000   0.00000  Uiso   1.00
C555   C     0.97667   0.40975   0.51384   0.00000  Uiso   1.00
C556   C     0.52300   0.59011   0.48494   0.00000  Uiso   1.00
C557   C     0.97667   0.59025   0.48616   0.00000  Uiso   1.00
C558   C     0.52300   0.40989   0.51506   0.00000  Uiso   1.00
C559   C     0.75002   0.35507   0.49998   0.00000  Uiso   1.00
C560   C     0.75002   0.64493   0.50002   0.00000  Uiso   1.00
O561   O     0.88247   0.58981   0.49289   0.00000  Uiso   1.00
C562   C     0.87710   0.60962   0.54624   0.00000  Uiso   1.00
H563   H     0.90973   0.62172   0.56374   0.00000  Uiso   1.00
H564   H     0.86061   0.58260   0.57442   0.00000  Uiso   1.00
H565   H     0.85519   0.64296   0.54385   0.00000  Uiso   1.00
O566   O     0.61738   0.41170   0.51953   0.00000  Uiso   1.00
C567   C     0.62157   0.40334   0.57656   0.00000  Uiso   1.00
H568   H     0.58854   0.39631   0.59609   0.00000  Uiso   1.00
H569   H     0.63845   0.43498   0.59765   0.00000  Uiso   1.00
H570   H     0.64247   0.36960   0.58292   0.00000  Uiso   1.00
O571   O     0.88248   0.41018   0.50711   0.00000  Uiso   1.00
C572   C     0.87711   0.39038   0.45376   0.00000  Uiso   1.00
H573   H     0.90974   0.37828   0.43626   0.00000  Uiso   1.00
H574   H     0.86061   0.41740   0.42558   0.00000  Uiso   1.00
H575   H     0.85519   0.35704   0.45615   0.00000  Uiso   1.00
O576   O     0.61738   0.58830   0.48047   0.00000  Uiso   1.00
C577   C     0.62157   0.59667   0.42345   0.00000  Uiso   1.00
H578   H     0.58853   0.60365   0.40391   0.00000  Uiso   1.00
H579   H     0.63849   0.56506   0.40237   0.00000  Uiso   1.00
H580   H     0.64243   0.63045   0.41709   0.00000  Uiso   1.00
O581   O     0.25000   0.76178   0.54562   0.00000  Uiso   1.00
O582   O     0.25000   0.90488   0.45438   0.00000  Uiso   1.00
O583   O     0.25000   0.90488   0.54562   0.00000  Uiso   1.00
O584   O     0.25000   0.76178   0.45438   0.00000  Uiso   1.00
H585   H     0.45937   0.70797   0.51956   0.00000  Uiso   1.00
H586   H     0.04014   0.95861   0.47903   0.00000  Uiso   1.00
H587   H     0.45937   0.95870   0.48044   0.00000  Uiso   1.00
H588   H     0.04014   0.70805   0.52096   0.00000  Uiso   1.00
C589   C     0.25002   0.73935   0.49999   0.00000  Uiso   1.00
C590   C     0.25002   0.92732   0.50001   0.00000  Uiso   1.00
O591   O     0.18392   0.83333   0.54563   0.00000  Uiso   1.00
O592   O     0.31607   0.83333   0.45437   0.00000  Uiso   1.00
O593   O     0.31607   0.83333   0.54563   0.00000  Uiso   1.00
O594   O     0.18392   0.83333   0.45437   0.00000  Uiso   1.00
C595   C     0.16335   0.83333   0.50000   0.00000  Uiso   1.00
C596   C     0.33659   0.83333   0.50000   0.00000  Uiso   1.00
Zn597  Zn    0.25000   0.83333   0.56093   0.00000  Uiso   1.00
Zn598  Zn    0.25000   0.83333   0.43907   0.00000  Uiso   1.00
N599   N     0.25000   0.83333   0.35788   0.00000  Uiso   1.00
N600   N     0.25000   0.83333   0.64212   0.00000  Uiso   1.00
C601   C     0.40652   0.87901   0.49669   0.00000  Uiso   1.00
C602   C     0.09329   0.78866   0.51124   0.00000  Uiso   1.00
C603   C     0.40652   0.78765   0.50332   0.00000  Uiso   1.00
C604   C     0.09329   0.87801   0.48876   0.00000  Uiso   1.00
C605   C     0.38409   0.83333   0.50000   0.00000  Uiso   1.00
C606   C     0.11576   0.83333   0.50000   0.00000  Uiso   1.00
C607   C     0.45312   0.78770   0.50593   0.00000  Uiso   1.00
C608   C     0.04665   0.87862   0.49129   0.00000  Uiso   1.00
C609   C     0.45312   0.87897   0.49407   0.00000  Uiso   1.00
C610   C     0.04665   0.78805   0.50871   0.00000  Uiso   1.00
C611   C     0.47649   0.83333   0.50000   0.00000  Uiso   1.00
C612   C     0.02330   0.83333   0.50000   0.00000  Uiso   1.00
C613   C     0.47667   0.74308   0.51384   0.00000  Uiso   1.00
C614   C     0.02300   0.92344   0.48494   0.00000  Uiso   1.00
C615   C     0.47667   0.92358   0.48616   0.00000  Uiso   1.00
C616   C     0.02300   0.74322   0.51506   0.00000  Uiso   1.00
C617   C     0.25002   0.68840   0.49998   0.00000  Uiso   1.00
C618   C     0.25002   0.97826   0.50002   0.00000  Uiso   1.00
O619   O     0.38247   0.92315   0.49289   0.00000  Uiso   1.00
C620   C     0.37710   0.94295   0.54624   0.00000  Uiso   1.00
H621   H     0.40973   0.95505   0.56374   0.00000  Uiso   1.00
H622   H     0.36061   0.91593   0.57442   0.00000  Uiso   1.00
H623   H     0.35519   0.97629   0.54385   0.00000  Uiso   1.00
O624   O     0.11738   0.74503   0.51953   0.00000  Uiso   1.00
C625   C     0.12157   0.73667   0.57656   0.00000  Uiso   1.00
H626   H     0.08854   0.72964   0.59609   0.00000  Uiso   1.00
H627   H     0.13845   0.76831   0.59765   0.00000  Uiso   1.00
H628   H     0.14247   0.70293   0.58292   0.00000  Uiso   1.00
O629   O     0.38248   0.74352   0.50711   0.00000  Uiso   1.00
C630   C     0.37711   0.72371   0.45376   0.00000  Uiso   1.00
H631   H     0.40974   0.71161   0.43626   0.00000  Uiso   1.00
H632   H     0.36061   0.75073   0.42558   0.00000  Uiso   1.00
H633   H     0.35519   0.69038   0.45615   0.00000  Uiso   1.00
O634   O     0.11738   0.92164   0.48047   0.00000  Uiso   1.00
C635   C     0.12157   0.93000   0.42345   0.00000  Uiso   1.00
H636   H     0.08853   0.93698   0.40391   0.00000  Uiso   1.00
H637   H     0.13849   0.89839   0.40237   0.00000  Uiso   1.00
H638   H     0.14243   0.96378   0.41709   0.00000  Uiso   1.00
O639   O     0.75000   0.76178   0.54562   0.00000  Uiso   1.00
O640   O     0.75000   0.90488   0.45438   0.00000  Uiso   1.00
O641   O     0.75000   0.90488   0.54562   0.00000  Uiso   1.00
O642   O     0.75000   0.76178   0.45438   0.00000  Uiso   1.00
H643   H     0.95937   0.70797   0.51956   0.00000  Uiso   1.00
H644   H     0.54014   0.95861   0.47903   0.00000  Uiso   1.00
H645   H     0.95937   0.95870   0.48044   0.00000  Uiso   1.00
H646   H     0.54014   0.70805   0.52096   0.00000  Uiso   1.00
C647   C     0.75002   0.73935   0.49999   0.00000  Uiso   1.00
C648   C     0.75002   0.92732   0.50001   0.00000  Uiso   1.00
O649   O     0.68392   0.83333   0.54563   0.00000  Uiso   1.00
O650   O     0.81607   0.83333   0.45437   0.00000  Uiso   1.00
O651   O     0.81607   0.83333   0.54563   0.00000  Uiso   1.00
O652   O     0.68392   0.83333   0.45437   0.00000  Uiso   1.00
C653   C     0.66335   0.83333   0.50000   0.00000  Uiso   1.00
C654   C     0.83659   0.83333   0.50000   0.00000  Uiso   1.00
Zn655  Zn    0.75000   0.83333   0.56093   0.00000  Uiso   1.00
Zn656  Zn    0.75000   0.83333   0.43907   0.00000  Uiso   1.00
N657   N     0.75000   0.83333   0.35788   0.00000  Uiso   1.00
N658   N     0.75000   0.83333   0.64212   0.00000  Uiso   1.00
C659   C     0.90652   0.87901   0.49669   0.00000  Uiso   1.00
C660   C     0.59329   0.78866   0.51124   0.00000  Uiso   1.00
C661   C     0.90652   0.78765   0.50332   0.00000  Uiso   1.00
C662   C     0.59329   0.87801   0.48876   0.00000  Uiso   1.00
C663   C     0.88409   0.83333   0.50000   0.00000  Uiso   1.00
C664   C     0.61576   0.83333   0.50000   0.00000  Uiso   1.00
C665   C     0.95312   0.78770   0.50593   0.00000  Uiso   1.00
C666   C     0.54665   0.87862   0.49129   0.00000  Uiso   1.00
C667   C     0.95312   0.87897   0.49407   0.00000  Uiso   1.00
C668   C     0.54665   0.78805   0.50871   0.00000  Uiso   1.00
C669   C     0.97649   0.83333   0.50000   0.00000  Uiso   1.00
C670   C     0.52330   0.83333   0.50000   0.00000  Uiso   1.00
C671   C     0.97667   0.74308   0.51384   0.00000  Uiso   1.00
C672   C     0.52300   0.92344   0.48494   0.00000  Uiso   1.00
C673   C     0.97667   0.92358   0.48616   0.00000  Uiso   1.00
C674   C     0.52300   0.74322   0.51506   0.00000  Uiso   1.00
C675   C     0.75002   0.68840   0.49998   0.00000  Uiso   1.00
C676   C     0.75002   0.97826   0.50002   0.00000  Uiso   1.00
O677   O     0.88247   0.92315   0.49289   0.00000  Uiso   1.00
C678   C     0.87710   0.94295   0.54624   0.00000  Uiso   1.00
H679   H     0.90973   0.95505   0.56374   0.00000  Uiso   1.00
H680   H     0.86061   0.91593   0.57442   0.00000  Uiso   1.00
H681   H     0.85519   0.97629   0.54385   0.00000  Uiso   1.00
O682   O     0.61738   0.74503   0.51953   0.00000  Uiso   1.00
C683   C     0.62157   0.73667   0.57656   0.00000  Uiso   1.00
H684   H     0.58854   0.72964   0.59609   0.00000  Uiso   1.00
H685   H     0.63845   0.76831   0.59765   0.00000  Uiso   1.00
H686   H     0.64247   0.70293   0.58292   0.00000  Uiso   1.00
O687   O     0.88248   0.74352   0.50711   0.00000  Uiso   1.00
C688   C     0.87711   0.72371   0.45376   0.00000  Uiso   1.00
H689   H     0.90974   0.71161   0.43626   0.00000  Uiso   1.00
H690   H     0.86061   0.75073   0.42558   0.00000  Uiso   1.00
H691   H     0.85519   0.69038   0.45615   0.00000  Uiso   1.00
O692   O     0.61738   0.92164   0.48047   0.00000  Uiso   1.00
C693   C     0.62157   0.93000   0.42345   0.00000  Uiso   1.00
H694   H     0.58853   0.93698   0.40391   0.00000  Uiso   1.00
H695   H     0.63849   0.89839   0.40237   0.00000  Uiso   1.00
H696   H     0.64243   0.96378   0.41709   0.00000  Uiso   1.00
O697   O     0.25000   0.09512   0.87895   0.00000  Uiso   1.00
O698   O     0.25000   0.23822   0.78772   0.00000  Uiso   1.00
O699   O     0.25000   0.23822   0.87895   0.00000  Uiso   1.00
O700   O     0.25000   0.09512   0.78772   0.00000  Uiso   1.00
H701   H     0.45937   0.04130   0.85289   0.00000  Uiso   1.00
H702   H     0.04014   0.29195   0.81237   0.00000  Uiso   1.00
H703   H     0.45937   0.29203   0.81377   0.00000  Uiso   1.00
H704   H     0.04014   0.04139   0.85430   0.00000  Uiso   1.00
C705   C     0.25002   0.07268   0.83332   0.00000  Uiso   1.00
C706   C     0.25002   0.26065   0.83335   0.00000  Uiso   1.00
O707   O     0.18392   0.16667   0.87896   0.00000  Uiso   1.00
O708   O     0.31607   0.16667   0.78770   0.00000  Uiso   1.00
O709   O     0.31607   0.16667   0.87896   0.00000  Uiso   1.00
O710   O     0.18392   0.16667   0.78770   0.00000  Uiso   1.00
C711   C     0.16335   0.16667   0.83333   0.00000  Uiso   1.00
C712   C     0.33659   0.16667   0.83333   0.00000  Uiso   1.00
Zn713  Zn    0.25000   0.16667   0.89426   0.00000  Uiso   1.00
Zn714  Zn    0.25000   0.16667   0.77241   0.00000  Uiso   1.00
N715   N     0.25000   0.16667   0.69121   0.00000  Uiso   1.00
N716   N     0.25000   0.16667   0.97545   0.00000  Uiso   1.00
C717   C     0.40652   0.21234   0.83002   0.00000  Uiso   1.00
C718   C     0.09329   0.12199   0.84457   0.00000  Uiso   1.00
C719   C     0.40652   0.12099   0.83665   0.00000  Uiso   1.00
C720   C     0.09329   0.21135   0.82209   0.00000  Uiso   1.00
C721   C     0.38409   0.16667   0.83333   0.00000  Uiso   1.00
C722   C     0.11576   0.16667   0.83333   0.00000  Uiso   1.00
C723   C     0.45312   0.12103   0.83927   0.00000  Uiso   1.00
C724   C     0.04665   0.21195   0.82462   0.00000  Uiso   1.00
C725   C     0.45312   0.21230   0.82740   0.00000  Uiso   1.00
C726   C     0.04665   0.12138   0.84204   0.00000  Uiso   1.00
C727   C     0.47649   0.16667   0.83333   0.00000  Uiso   1.00
C728   C     0.02330   0.16667   0.83333   0.00000  Uiso   1.00
C729   C     0.47667   0.07642   0.84717   0.00000  Uiso   1.00
C730   C     0.02300   0.25678   0.81828   0.00000  Uiso   1.00
C731   C     0.47667   0.25692   0.81949   0.00000  Uiso   1.00
C732   C     0.02300   0.07656   0.84839   0.00000  Uiso   1.00
C733   C     0.25002   0.02174   0.83332   0.00000  Uiso   1.00
C734   C     0.25002   0.31160   0.83335   0.00000  Uiso   1.00
O735   O     0.38247   0.25648   0.82622   0.00000  Uiso   1.00
C736   C     0.37710   0.27629   0.87958   0.00000  Uiso   1.00
H737   H     0.40973   0.28839   0.89707   0.00000  Uiso   1.00
H738   H     0.36061   0.24927   0.90776   0.00000  Uiso   1.00
H739   H     0.35519   0.30962   0.87718   0.00000  Uiso   1.00
O740   O     0.11738   0.07837   0.85286   0.00000  Uiso   1.00
C741   C     0.12157   0.07001   0.90989   0.00000  Uiso   1.00
H742   H     0.08854   0.06297   0.92942   0.00000  Uiso   1.00
H743   H     0.13845   0.10165   0.93098   0.00000  Uiso   1.00
H744   H     0.14247   0.03626   0.91625   0.00000  Uiso   1.00
O745   O     0.38248   0.07685   0.84045   0.00000  Uiso   1.00
C746   C     0.37711   0.05705   0.78709   0.00000  Uiso   1.00
H747   H     0.40974   0.04495   0.76960   0.00000  Uiso   1.00
H748   H     0.36061   0.08406   0.75891   0.00000  Uiso   1.00
H749   H     0.35519   0.02371   0.78948   0.00000  Uiso   1.00
O750   O     0.11738   0.25497   0.81381   0.00000  Uiso   1.00
C751   C     0.12157   0.26334   0.75678   0.00000  Uiso   1.00
H752   H     0.08853   0.27031   0.73724   0.00000  Uiso   1.00
H753   H     0.13849   0.23172   0.73570   0.00000  Uiso   1.00
H754   H     0.14243   0.29711   0.75043   0.00000  Uiso   1.00
O755   O     0.75000   0.09512   0.87895   0.00000  Uiso   1.00
O756   O     0.75000   0.23822   0.78772   0.00000  Uiso   1.00
O757   O     0.75000   0.23822   0.87895   0.00000  Uiso   1.00
O758   O     0.75000   0.09512   0.78772   0.00000  Uiso   1.00
H759   H     0.95937   0.04130   0.85289   0.00000  Uiso   1.00
H760   H     0.54014   0.29195   0.81237   0.00000  Uiso   1.00
H761   H     0.95937   0.29203   0.81377   0.00000  Uiso   1.00
H762   H     0.54014   0.04139   0.85430   0.00000  Uiso   1.00
C763   C     0.75002   0.07268   0.83332   0.00000  Uiso   1.00
C764   C     0.75002   0.26065   0.83335   0.00000  Uiso   1.00
O765   O     0.68392   0.16667   0.87896   0.00000  Uiso   1.00
O766   O     0.81607   0.16667   0.78770   0.00000  Uiso   1.00
O767   O     0.81607   0.16667   0.87896   0.00000  Uiso   1.00
O768   O     0.68392   0.16667   0.78770   0.00000  Uiso   1.00
C769   C     0.66335   0.16667   0.83333   0.00000  Uiso   1.00
C770   C     0.83659   0.16667   0.83333   0.00000  Uiso   1.00
Zn771  Zn    0.75000   0.16667   0.89426   0.00000  Uiso   1.00
Zn772  Zn    0.75000   0.16667   0.77241   0.00000  Uiso   1.00
N773   N     0.75000   0.16667   0.69121   0.00000  Uiso   1.00
N774   N     0.75000   0.16667   0.97545   0.00000  Uiso   1.00
C775   C     0.90652   0.21234   0.83002   0.00000  Uiso   1.00
C776   C     0.59329   0.12199   0.84457   0.00000  Uiso   1.00
C777   C     0.90652   0.12099   0.83665   0.00000  Uiso   1.00
C778   C     0.59329   0.21135   0.82209   0.00000  Uiso   1.00
C779   C     0.88409   0.16667   0.83333   0.00000  Uiso   1.00
C780   C     0.61576   0.16667   0.83333   0.00000  Uiso   1.00
C781   C     0.95312   0.12103   0.83927   0.00000  Uiso   1.00
C782   C     0.54665   0.21195   0.82462   0.00000  Uiso   1.00
C783   C     0.95312   0.21230   0.82740   0.00000  Uiso   1.00
C784   C     0.54665   0.12138   0.84204   0.00000  Uiso   1.00
C785   C     0.97649   0.16667   0.83333   0.00000  Uiso   1.00
C786   C     0.52330   0.16667   0.83333   0.00000  Uiso   1.00
C787   C     0.97667   0.07642   0.84717   0.00000  Uiso   1.00
C788   C     0.52300   0.25678   0.81828   0.00000  Uiso   1.00
C789   C     0.97667   0.25692   0.81949   0.00000  Uiso   1.00
C790   C     0.52300   0.07656   0.84839   0.00000  Uiso   1.00
C791   C     0.75002   0.02174   0.83332   0.00000  Uiso   1.00
C792   C     0.75002   0.31160   0.83335   0.00000  Uiso   1.00
O793   O     0.88247   0.25648   0.82622   0.00000  Uiso   1.00
C794   C     0.87710   0.27629   0.87958   0.00000  Uiso   1.00
H795   H     0.90973   0.28839   0.89707   0.00000  Uiso   1.00
H796   H     0.86061   0.24927   0.90776   0.00000  Uiso   1.00
H797   H     0.85519   0.30962   0.87718   0.00000  Uiso   1.00
O798   O     0.61738   0.07837   0.85286   0.00000  Uiso   1.00
C799   C     0.62157   0.07001   0.90989   0.00000  Uiso   1.00
H800   H     0.58854   0.06297   0.92942   0.00000  Uiso   1.00
H801   H     0.63845   0.10165   0.93098   0.00000  Uiso   1.00
H802   H     0.64247   0.03626   0.91625   0.00000  Uiso   1.00
O803   O     0.88248   0.07685   0.84045   0.00000  Uiso   1.00
C804   C     0.87711   0.05705   0.78709   0.00000  Uiso   1.00
H805   H     0.90974   0.04495   0.76960   0.00000  Uiso   1.00
H806   H     0.86061   0.08406   0.75891   0.00000  Uiso   1.00
H807   H     0.85519   0.02371   0.78948   0.00000  Uiso   1.00
O808   O     0.61738   0.25497   0.81381   0.00000  Uiso   1.00
C809   C     0.62157   0.26334   0.75678   0.00000  Uiso   1.00
H810   H     0.58853   0.27031   0.73724   0.00000  Uiso   1.00
H811   H     0.63849   0.23172   0.73570   0.00000  Uiso   1.00
H812   H     0.64243   0.29711   0.75043   0.00000  Uiso   1.00
O813   O     0.25000   0.42845   0.87895   0.00000  Uiso   1.00
O814   O     0.25000   0.57155   0.78772   0.00000  Uiso   1.00
O815   O     0.25000   0.57155   0.87895   0.00000  Uiso   1.00
O816   O     0.25000   0.42845   0.78772   0.00000  Uiso   1.00
H817   H     0.45937   0.37464   0.85289   0.00000  Uiso   1.00
H818   H     0.04014   0.62528   0.81237   0.00000  Uiso   1.00
H819   H     0.45937   0.62536   0.81377   0.00000  Uiso   1.00
H820   H     0.04014   0.37472   0.85430   0.00000  Uiso   1.00
C821   C     0.25002   0.40601   0.83332   0.00000  Uiso   1.00
C822   C     0.25002   0.59399   0.83335   0.00000  Uiso   1.00
O823   O     0.18392   0.50000   0.87896   0.00000  Uiso   1.00
O824   O     0.31607   0.50000   0.78770   0.00000  Uiso   1.00
O825   O     0.31607   0.50000   0.87896   0.00000  Uiso   1.00
O826   O     0.18392   0.50000   0.78770   0.00000  Uiso   1.00
C827   C     0.16335   0.50000   0.83333   0.00000  Uiso   1.00
C828   C     0.33659   0.50000   0.83333   0.00000  Uiso   1.00
Zn829  Zn    0.25000   0.50000   0.89426   0.00000  Uiso   1.00
Zn830  Zn    0.25000   0.50000   0.77241   0.00000  Uiso   1.00
N831   N     0.25000   0.50000   0.69121   0.00000  Uiso   1.00
N832   N     0.25000   0.50000   0.97545   0.00000  Uiso   1.00
C833   C     0.40652   0.54568   0.83002   0.00000  Uiso   1.00
C834   C     0.09329   0.45532   0.84457   0.00000  Uiso   1.00
C835   C     0.40652   0.45432   0.83665   0.00000  Uiso   1.00
C836   C     0.09329   0.54468   0.82209   0.00000  Uiso   1.00
C837   C     0.38409   0.50000   0.83333   0.00000  Uiso   1.00
C838   C     0.11576   0.50000   0.83333   0.00000  Uiso   1.00
C839   C     0.45312   0.45437   0.83927   0.00000  Uiso   1.00
C840   C     0.04665   0.54529   0.82462   0.00000  Uiso   1.00
C841   C     0.45312   0.54563   0.82740   0.00000  Uiso   1.00
C842   C     0.04665   0.45471   0.84204   0.00000  Uiso   1.00
C843   C     0.47649   0.50000   0.83333   0.00000  Uiso   1.00
C844   C     0.02330   0.50000   0.83333   0.00000  Uiso   1.00
C845   C     0.47667   0.40975   0.84717   0.00000  Uiso   1.00
C846   C     0.02300   0.59011   0.81828   0.00000  Uiso   1.00
C847   C     0.47667   0.59025   0.81949   0.00000  Uiso   1.00
C848   C     0.02300   0.40989   0.84839   0.00000  Uiso   1.00
C849   C     0.25002   0.35507   0.83332   0.00000  Uiso   1.00
C850   C     0.25002   0.64493   0.83335   0.00000  Uiso   1.00
O851   O     0.38247   0.58981   0.82622   0.00000  Uiso   1.00
C852   C     0.37710   0.60962   0.87958   0.00000  Uiso   1.00
H853   H     0.40973   0.62172   0.89707   0.00000  Uiso   1.00
H854   H     0.36061   0.58260   0.90776   0.00000  Uiso   1.00
H855   H     0.35519   0.64296   0.87718   0.00000  Uiso   1.00
O856   O     0.11738   0.41170   0.85286   0.00000  Uiso   1.00
C857   C     0.12157   0.40334   0.90989   0.00000  Uiso   1.00
H858   H     0.08854   0.39631   0.92942   0.00000  Uiso   1.00
H859   H     0.13845   0.43498   0.93098   0.00000  Uiso   1.00
H860   H     0.14247   0.36960   0.91625   0.00000  Uiso   1.00
O861   O     0.38248   0.41018   0.84045   0.00000  Uiso   1.00
C862   C     0.37711   0.39038   0.78709   0.00000  Uiso   1.00
H863   H     0.40974   0.37828   0.76960   0.00000  Uiso   1.00
H864   H     0.36061   0.41740   0.75891   0.00000  Uiso   1.00
H865   H     0.35519   0.35704   0.78948   0.00000  Uiso   1.00
O866   O     0.11738   0.58830   0.81381   0.00000  Uiso   1.00
C867   C     0.12157   0.59667   0.75678   0.00000  Uiso   1.00
H868   H     0.08853   0.60365   0.73724   0.00000  Uiso   1.00
H869   H     0.13849   0.56506   0.73570   0.00000  Uiso   1.00
H870   H     0.14243   0.63045   0.75043   0.00000  Uiso   1.00
O871   O     0.75000   0.42845   0.87895   0.00000  Uiso   1.00
O872   O     0.75000   0.57155   0.78772   0.00000  Uiso   1.00
O873   O     0.75000   0.57155   0.87895   0.00000  Uiso   1.00
O874   O     0.75000   0.42845   0.78772   0.00000  Uiso   1.00
H875   H     0.95937   0.37464   0.85289   0.00000  Uiso   1.00
H876   H     0.54014   0.62528   0.81237   0.00000  Uiso   1.00
H877   H     0.95937   0.62536   0.81377   0.00000  Uiso   1.00
H878   H     0.54014   0.37472   0.85430   0.00000  Uiso   1.00
C879   C     0.75002   0.40601   0.83332   0.00000  Uiso   1.00
C880   C     0.75002   0.59399   0.83335   0.00000  Uiso   1.00
O881   O     0.68392   0.50000   0.87896   0.00000  Uiso   1.00
O882   O     0.81607   0.50000   0.78770   0.00000  Uiso   1.00
O883   O     0.81607   0.50000   0.87896   0.00000  Uiso   1.00
O884   O     0.68392   0.50000   0.78770   0.00000  Uiso   1.00
C885   C     0.66335   0.50000   0.83333   0.00000  Uiso   1.00
C886   C     0.83659   0.50000   0.83333   0.00000  Uiso   1.00
Zn887  Zn    0.75000   0.50000   0.89426   0.00000  Uiso   1.00
Zn888  Zn    0.75000   0.50000   0.77241   0.00000  Uiso   1.00
N889   N     0.75000   0.50000   0.69121   0.00000  Uiso   1.00
N890   N     0.75000   0.50000   0.97545   0.00000  Uiso   1.00
C891   C     0.90652   0.54568   0.83002   0.00000  Uiso   1.00
C892   C     0.59329   0.45532   0.84457   0.00000  Uiso   1.00
C893   C     0.90652   0.45432   0.83665   0.00000  Uiso   1.00
C894   C     0.59329   0.54468   0.82209   0.00000  Uiso   1.00
C895   C     0.88409   0.50000   0.83333   0.00000  Uiso   1.00
C896   C     0.61576   0.50000   0.83333   0.00000  Uiso   1.00
C897   C     0.95312   0.45437   0.83927   0.00000  Uiso   1.00
C898   C     0.54665   0.54529   0.82462   0.00000  Uiso   1.00
C899   C     0.95312   0.54563   0.82740   0.00000  Uiso   1.00
C900   C     0.54665   0.45471   0.84204   0.00000  Uiso   1.00
C901   C     0.97649   0.50000   0.83333   0.00000  Uiso   1.00
C902   C     0.52330   0.50000   0.83333   0.00000  Uiso   1.00
C903   C     0.97667   0.40975   0.84717   0.00000  Uiso   1.00
C904   C     0.52300   0.59011   0.81828   0.00000  Uiso   1.00
C905   C     0.97667   0.59025   0.81949   0.00000  Uiso   1.00
C906   C     0.52300   0.40989   0.84839   0.00000  Uiso   1.00
C907   C     0.75002   0.35507   0.83332   0.00000  Uiso   1.00
C908   C     0.75002   0.64493   0.83335   0.00000  Uiso   1.00
O909   O     0.88247   0.58981   0.82622   0.00000  Uiso   1.00
C910   C     0.87710   0.60962   0.87958   0.00000  Uiso   1.00
H911   H     0.90973   0.62172   0.89707   0.00000  Uiso   1.00
H912   H     0.86061   0.58260   0.90776   0.00000  Uiso   1.00
H913   H     0.85519   0.64296   0.87718   0.00000  Uiso   1.00
O914   O     0.61738   0.41170   0.85286   0.00000  Uiso   1.00
C915   C     0.62157   0.40334   0.90989   0.00000  Uiso   1.00
H916   H     0.58854   0.39631   0.92942   0.00000  Uiso   1.00
H917   H     0.63845   0.43498   0.93098   0.00000  Uiso   1.00
H918   H     0.64247   0.36960   0.91625   0.00000  Uiso   1.00
O919   O     0.88248   0.41018   0.84045   0.00000  Uiso   1.00
C920   C     0.87711   0.39038   0.78709   0.00000  Uiso   1.00
H921   H     0.90974   0.37828   0.76960   0.00000  Uiso   1.00
H922   H     0.86061   0.41740   0.75891   0.00000  Uiso   1.00
H923   H     0.85519   0.35704   0.78948   0.00000  Uiso   1.00
O924   O     0.61738   0.58830   0.81381   0.00000  Uiso   1.00
C925   C     0.62157   0.59667   0.75678   0.00000  Uiso   1.00
H926   H     0.58853   0.60365   0.73724   0.00000  Uiso   1.00
H927   H     0.63849   0.56506   0.73570   0.00000  Uiso   1.00
H928   H     0.64243   0.63045   0.75043   0.00000  Uiso   1.00
O929   O     0.25000   0.76178   0.87895   0.00000  Uiso   1.00
O930   O     0.25000   0.90488   0.78772   0.00000  Uiso   1.00
O931   O     0.25000   0.90488   0.87895   0.00000  Uiso   1.00
O932   O     0.25000   0.76178   0.78772   0.00000  Uiso   1.00
H933   H     0.45937   0.70797   0.85289   0.00000  Uiso   1.00
H934   H     0.04014   0.95861   0.81237   0.00000  Uiso   1.00
H935   H     0.45937   0.95870   0.81377   0.00000  Uiso   1.00
H936   H     0.04014   0.70805   0.85430   0.00000  Uiso   1.00
C937   C     0.25002   0.73935   0.83332   0.00000  Uiso   1.00
C938   C     0.25002   0.92732   0.83335   0.00000  Uiso   1.00
O939   O     0.18392   0.83333   0.87896   0.00000  Uiso   1.00
O940   O     0.31607   0.83333   0.78770   0.00000  Uiso   1.00
O941   O     0.31607   0.83333   0.87896   0.00000  Uiso   1.00
O942   O     0.18392   0.83333   0.78770   0.00000  Uiso   1.00
C943   C     0.16335   0.83333   0.83333   0.00000  Uiso   1.00
C944   C     0.33659   0.83333   0.83333   0.00000  Uiso   1.00
Zn945  Zn    0.25000   0.83333   0.89426   0.00000  Uiso   1.00
Zn946  Zn    0.25000   0.83333   0.77241   0.00000  Uiso   1.00
N947   N     0.25000   0.83333   0.69121   0.00000  Uiso   1.00
N948   N     0.25000   0.83333   0.97545   0.00000  Uiso   1.00
C949   C     0.40652   0.87901   0.83002   0.00000  Uiso   1.00
C950   C     0.09329   0.78866   0.84457   0.00000  Uiso   1.00
C951   C     0.40652   0.78765   0.83665   0.00000  Uiso   1.00
C952   C     0.09329   0.87801   0.82209   0.00000  Uiso   1.00
C953   C     0.38409   0.83333   0.83333   0.00000  Uiso   1.00
C954   C     0.11576   0.83333   0.83333   0.00000  Uiso   1.00
C955   C     0.45312   0.78770   0.83927   0.00000  Uiso   1.00
C956   C     0.04665   0.87862   0.82462   0.00000  Uiso   1.00
C957   C     0.45312   0.87897   0.82740   0.00000  Uiso   1.00
C958   C     0.04665   0.78805   0.84204   0.00000  Uiso   1.00
C959   C     0.47649   0.83333   0.83333   0.00000  Uiso   1.00
C960   C     0.02330   0.83333   0.83333   0.00000  Uiso   1.00
C961   C     0.47667   0.74308   0.84717   0.00000  Uiso   1.00
C962   C     0.02300   0.92344   0.81828   0.00000  Uiso   1.00
C963   C     0.47667   0.92358   0.81949   0.00000  Uiso   1.00
C964   C     0.02300   0.74322   0.84839   0.00000  Uiso   1.00
C965   C     0.25002   0.68840   0.83332   0.00000  Uiso   1.00
C966   C     0.25002   0.97826   0.83335   0.00000  Uiso   1.00
O967   O     0.38247   0.92315   0.82622   0.00000  Uiso   1.00
C968   C     0.37710   0.94295   0.87958   0.00000  Uiso   1.00
H969   H     0.40973   0.95505   0.89707   0.00000  Uiso   1.00
H970   H     0.36061   0.91593   0.90776   0.00000  Uiso   1.00
H971   H     0.35519   0.97629   0.87718   0.00000  Uiso   1.00
O972   O     0.11738   0.74503   0.85286   0.00000  Uiso   1.00
C973   C     0.12157   0.73667   0.90989   0.00000  Uiso   1.00
H974   H     0.08854   0.72964   0.92942   0.00000  Uiso   1.00
H975   H     0.13845   0.76831   0.93098   0.00000  Uiso   1.00
H976   H     0.14247   0.70293   0.91625   0.00000  Uiso   1.00
O977   O     0.38248   0.74352   0.84045   0.00000  Uiso   1.00
C978   C     0.37711   0.72371   0.78709   0.00000  Uiso   1.00
H979   H     0.40974   0.71161   0.76960   0.00000  Uiso   1.00
H980   H     0.36061   0.75073   0.75891   0.00000  Uiso   1.00
H981   H     0.35519   0.69038   0.78948   0.00000  Uiso   1.00
O982   O     0.11738   0.92164   0.81381   0.00000  Uiso   1.00
C983   C     0.12157   0.93000   0.75678   0.00000  Uiso   1.00
H984   H     0.08853   0.93698   0.73724   0.00000  Uiso   1.00
H985   H     0.13849   0.89839   0.73570   0.00000  Uiso   1.00
H986   H     0.14243   0.96378   0.75043   0.00000  Uiso   1.00
O987   O     0.75000   0.76178   0.87895   0.00000  Uiso   1.00
O988   O     0.75000   0.90488   0.78772   0.00000  Uiso   1.00
O989   O     0.75000   0.90488   0.87895   0.00000  Uiso   1.00
O990   O     0.75000   0.76178   0.78772   0.00000  Uiso   1.00
H991   H     0.95937   0.70797   0.85289   0.00000  Uiso   1.00
H992   H     0.54014   0.95861   0.81237   0.00000  Uiso   1.00
H993   H     0.95937   0.95870   0.81377   0.00000  Uiso   1.00
H994   H     0.54014   0.70805   0.85430   0.00000  Uiso   1.00
C995   C     0.75002   0.73935   0.83332   0.00000  Uiso   1.00
C996   C     0.75002   0.92732   0.83335   0.00000  Uiso   1.00
O997   O     0.68392   0.83333   0.87896   0.00000  Uiso   1.00
O998   O     0.81607   0.83333   0.78770   0.00000  Uiso   1.00
O999   O     0.81607   0.83333   0.87896   0.00000  Uiso   1.00
O1000  O     0.68392   0.83333   0.78770   0.00000  Uiso   1.00
C1001  C     0.66335   0.83333   0.83333   0.00000  Uiso   1.00
C1002  C     0.83659   0.83333   0.83333   0.00000  Uiso   1.00
Zn1003 Zn    0.75000   0.83333   0.89426   0.00000  Uiso   1.00
Zn1004 Zn    0.75000   0.83333   0.77241   0.00000  Uiso   1.00
N1005  N     0.75000   0.83333   0.69121   0.00000  Uiso   1.00
N1006  N     0.75000   0.83333   0.97545   0.00000  Uiso   1.00
C1007  C     0.90652   0.87901   0.83002   0.00000  Uiso   1.00
C1008  C     0.59329   0.78866   0.84457   0.00000  Uiso   1.00
C1009  C     0.90652   0.78765   0.83665   0.00000  Uiso   1.00
C1010  C     0.59329   0.87801   0.82209   0.00000  Uiso   1.00
C1011  C     0.88409   0.83333   0.83333   0.00000  Uiso   1.00
C1012  C     0.61576   0.83333   0.83333   0.00000  Uiso   1.00
C1013  C     0.95312   0.78770   0.83927   0.00000  Uiso   1.00
C1014  C     0.54665   0.87862   0.82462   0.00000  Uiso   1.00
C1015  C     0.95312   0.87897   0.82740   0.00000  Uiso   1.00
C1016  C     0.54665   0.78805   0.84204   0.00000  Uiso   1.00
C1017  C     0.97649   0.83333   0.83333   0.00000  Uiso   1.00
C1018  C     0.52330   0.83333   0.83333   0.00000  Uiso   1.00
C1019  C     0.97667   0.74308   0.84717   0.00000  Uiso   1.00
C1020  C     0.52300   0.92344   0.81828   0.00000  Uiso   1.00
C1021  C     0.97667   0.92358   0.81949   0.00000  Uiso   1.00
C1022  C     0.52300   0.74322   0.84839   0.00000  Uiso   1.00
C1023  C     0.75002   0.68840   0.83332   0.00000  Uiso   1.00
C1024  C     0.75002   0.97826   0.83335   0.00000  Uiso   1.00
O1025  O     0.88247   0.92315   0.82622   0.00000  Uiso   1.00
C1026  C     0.87710   0.94295   0.87958   0.00000  Uiso   1.00
H1027  H     0.90973   0.95505   0.89707   0.00000  Uiso   1.00
H1028  H     0.86061   0.91593   0.90776   0.00000  Uiso   1.00
H1029  H     0.85519   0.97629   0.87718   0.00000  Uiso   1.00
O1030  O     0.61738   0.74503   0.85286   0.00000  Uiso   1.00
C1031  C     0.62157   0.73667   0.90989   0.00000  Uiso   1.00
H1032  H     0.58854   0.72964   0.92942   0.00000  Uiso   1.00
H1033  H     0.63845   0.76831   0.93098   0.00000  Uiso   1.00
H1034  H     0.64247   0.70293   0.91625   0.00000  Uiso   1.00
O1035  O     0.88248   0.74352   0.84045   0.00000  Uiso   1.00
C1036  C     0.87711   0.72371   0.78709   0.00000  Uiso   1.00
H1037  H     0.90974   0.71161   0.76960   0.00000  Uiso   1.00
H1038  H     0.86061   0.75073   0.75891   0.00000  Uiso   1.00
H1039  H     0.85519   0.69038   0.78948   0.00000  Uiso   1.00
O1040  O     0.61738   0.92164   0.81381   0.00000  Uiso   1.00
C1041  C     0.62157   0.93000   0.75678   0.00000  Uiso   1.00
H1042  H     0.58853   0.93698   0.73724   0.00000  Uiso   1.00
H1043  H     0.63849   0.89839   0.73570   0.00000  Uiso   1.00
H1044  H     0.64243   0.96378   0.75043   0.00000  Uiso   1.00
loop_
_geom_bond_atom_site_label_1
_geom_bond_atom_site_label_2
_geom_bond_distance
_geom_bond_site_symmetry_2
_ccdc_geom_bond_type
O1     Zn17    1.952   .     S
O1     C9      1.263   .     A
O2     Zn18    1.952   .     S
O2     C10     1.263   .     A
O3     C10     1.263   .     A
O3     Zn17    1.952   .     S
O4     Zn18    1.952   .     S
O4     C9      1.263   .     A
H5     C33     1.082   .     S
H6     C34     1.082   .     S
H7     C35     1.082   .     S
H8     C36     1.082   .     S
C9     C37     1.364   .     S
C10    C38     1.364   .     S
O11    C15     1.270   .     A
O11    Zn17    2.009   .     S
O12    C16     1.269   .     A
O12    Zn18    2.009   .     S
O13    Zn17    2.009   .     S
O13    C16     1.269   .     A
O14    Zn18    2.009   .     S
O14    C15     1.270   .     A
C15    C26     1.422   .     S
C16    C25     1.419   .     S
Zn17   N20     1.977   .     S
Zn18   N19     1.977   .     S
N19    N716    1.195   1_554 S
N20    N367    1.195   .     S
C21    O39     1.386   .     S
C21    C25     1.397   .     A
C21    C29     1.394   .     A
C22    O44     1.387   .     S
C22    C26     1.399   .     A
C22    C30     1.395   .     A
C23    C27     1.394   .     A
C23    C25     1.397   .     A
C23    O49     1.386   .     S
C24    O54     1.387   .     S
C24    C28     1.395   .     A
C24    C26     1.399   .     A
C27    C33     1.400   .     A
C27    C31     1.415   .     A
C28    C34     1.402   .     A
C28    C32     1.415   .     A
C29    C31     1.415   .     A
C29    C35     1.400   .     A
C30    C36     1.402   .     A
C30    C32     1.415   .     A
C31    C90     1.399   .     S
C32    C89     1.399   1_455 S
C33    C94     1.385   .     S
C34    C93     1.385   1_455 S
C35    C92     1.385   .     S
C36    C91     1.385   1_455 S
C37    C270    1.164   1_545 S
C38    C153    1.164   .     S
O39    C40     1.412   .     S
C40    H41     1.112   .     S
C40    H43     1.109   .     S
C40    H42     1.113   .     S
O44    C45     1.412   .     S
C45    H46     1.112   .     S
C45    H47     1.111   .     S
C45    H48     1.109   .     S
O49    C50     1.412   .     S
C50    H52     1.113   .     S
C50    H51     1.112   .     S
C50    H53     1.109   .     S
O54    C55     1.412   .     S
C55    H56     1.112   .     S
C55    H57     1.111   .     S
C55    H58     1.109   .     S
O59    Zn75    1.952   .     S
O59    C67     1.263   .     A
O60    Zn76    1.952   .     S
O60    C68     1.263   .     A
O61    C68     1.263   .     A
O61    Zn75    1.952   .     S
O62    Zn76    1.952   .     S
O62    C67     1.263   .     A
H63    C91     1.082   .     S
H64    C92     1.082   .     S
H65    C93     1.082   .     S
H66    C94     1.082   .     S
C67    C95     1.364   .     S
C68    C96     1.364   .     S
O69    C73     1.270   .     A
O69    Zn75    2.009   .     S
O70    C74     1.269   .     A
O70    Zn76    2.009   .     S
O71    Zn75    2.009   .     S
O71    C74     1.269   .     A
O72    Zn76    2.009   .     S
O72    C73     1.270   .     A
C73    C84     1.422   .     S
C74    C83     1.419   .     S
Zn75   N78     1.977   .     S
Zn76   N77     1.977   .     S
N77    N774    1.195   1_554 S
N78    N425    1.195   .     S
C79    O97     1.386   .     S
C79    C83     1.397   .     A
C79    C87     1.394   .     A
C80    O102    1.387   .     S
C80    C84     1.399   .     A
C80    C88     1.395   .     A
C81    C85     1.394   .     A
C81    C83     1.397   .     A
C81    O107    1.386   .     S
C82    O112    1.387   .     S
C82    C86     1.395   .     A
C82    C84     1.399   .     A
C85    C91     1.400   .     A
C85    C89     1.415   .     A
C86    C92     1.402   .     A
C86    C90     1.415   .     A
C87    C89     1.415   .     A
C87    C93     1.400   .     A
C88    C94     1.402   .     A
C88    C90     1.415   .     A
C89    C32     1.399   1_655 S
C91    C36     1.385   1_655 S
C93    C34     1.385   1_655 S
C95    C328    1.164   1_545 S
C96    C211    1.164   .     S
O97    C98     1.412   .     S
C98    H99     1.112   .     S
C98    H101    1.109   .     S
C98    H100    1.113   .     S
O102   C103    1.412   .     S
C103   H104    1.112   .     S
C103   H105    1.111   .     S
C103   H106    1.109   .     S
O107   C108    1.412   .     S
C108   H110    1.113   .     S
C108   H109    1.112   .     S
C108   H111    1.109   .     S
O112   C113    1.412   .     S
C113   H114    1.112   .     S
C113   H115    1.111   .     S
C113   H116    1.109   .     S
O117   Zn133   1.952   .     S
O117   C125    1.263   .     A
O118   Zn134   1.952   .     S
O118   C126    1.263   .     A
O119   C126    1.263   .     A
O119   Zn133   1.952   .     S
O120   Zn134   1.952   .     S
O120   C125    1.263   .     A
H121   C149    1.082   .     S
H122   C150    1.082   .     S
H123   C151    1.082   .     S
H124   C152    1.082   .     S
C125   C153    1.364   .     S
C126   C154    1.364   .     S
O127   C131    1.270   .     A
O127   Zn133   2.009   .     S
O128   C132    1.269   .     A
O128   Zn134   2.009   .     S
O129   Zn133   2.009   .     S
O129   C132    1.269   .     A
O130   Zn134   2.009   .     S
O130   C131    1.270   .     A
C131   C142    1.422   .     S
C132   C141    1.419   .     S
Zn133  N136    1.977   .     S
Zn134  N135    1.977   .     S
N135   N832    1.195   1_554 S
N136   N483    1.195   .     S
C137   O155    1.386   .     S
C137   C141    1.397   .     A
C137   C145    1.394   .     A
C138   O160    1.387   .     S
C138   C142    1.399   .     A
C138   C146    1.395   .     A
C139   C143    1.394   .     A
C139   C141    1.397   .     A
C139   O165    1.386   .     S
C140   O170    1.387   .     S
C140   C144    1.395   .     A
C140   C142    1.399   .     A
C143   C149    1.400   .     A
C143   C147    1.415   .     A
C144   C150    1.402   .     A
C144   C148    1.415   .     A
C145   C147    1.415   .     A
C145   C151    1.400   .     A
C146   C152    1.402   .     A
C146   C148    1.415   .     A
C147   C206    1.399   .     S
C148   C205    1.399   1_455 S
C149   C210    1.385   .     S
C150   C209    1.385   1_455 S
C151   C208    1.385   .     S
C152   C207    1.385   1_455 S
C154   C269    1.164   .     S
O155   C156    1.412   .     S
C156   H157    1.112   .     S
C156   H159    1.109   .     S
C156   H158    1.113   .     S
O160   C161    1.412   .     S
C161   H162    1.112   .     S
C161   H163    1.111   .     S
C161   H164    1.109   .     S
O165   C166    1.412   .     S
C166   H168    1.113   .     S
C166   H167    1.112   .     S
C166   H169    1.109   .     S
O170   C171    1.412   .     S
C171   H172    1.112   .     S
C171   H173    1.111   .     S
C171   H174    1.109   .     S
O175   Zn191   1.952   .     S
O175   C183    1.263   .     A
O176   Zn192   1.952   .     S
O176   C184    1.263   .     A
O177   C184    1.263   .     A
O177   Zn191   1.952   .     S
O178   Zn192   1.952   .     S
O178   C183    1.263   .     A
H179   C207    1.082   .     S
H180   C208    1.082   .     S
H181   C209    1.082   .     S
H182   C210    1.082   .     S
C183   C211    1.364   .     S
C184   C212    1.364   .     S
O185   C189    1.270   .     A
O185   Zn191   2.009   .     S
O186   C190    1.269   .     A
O186   Zn192   2.009   .     S
O187   Zn191   2.009   .     S
O187   C190    1.269   .     A
O188   Zn192   2.009   .     S
O188   C189    1.270   .     A
C189   C200    1.422   .     S
C190   C199    1.419   .     S
Zn191  N194    1.977   .     S
Zn192  N193    1.977   .     S
N193   N890    1.195   1_554 S
N194   N541    1.195   .     S
C195   O213    1.386   .     S
C195   C199    1.397   .     A
C195   C203    1.394   .     A
C196   O218    1.387   .     S
C196   C200    1.399   .     A
C196   C204    1.395   .     A
C197   C201    1.394   .     A
C197   C199    1.397   .     A
C197   O223    1.386   .     S
C198   O228    1.387   .     S
C198   C202    1.395   .     A
C198   C200    1.399   .     A
C201   C207    1.400   .     A
C201   C205    1.415   .     A
C202   C208    1.402   .     A
C202   C206    1.415   .     A
C203   C205    1.415   .     A
C203   C209    1.400   .     A
C204   C210    1.402   .     A
C204   C206    1.415   .     A
C205   C148    1.399   1_655 S
C207   C152    1.385   1_655 S
C209   C150    1.385   1_655 S
C212   C327    1.164   .     S
O213   C214    1.412   .     S
C214   H215    1.112   .     S
C214   H217    1.109   .     S
C214   H216    1.113   .     S
O218   C219    1.412   .     S
C219   H220    1.112   .     S
C219   H221    1.111   .     S
C219   H222    1.109   .     S
O223   C224    1.412   .     S
C224   H226    1.113   .     S
C224   H225    1.112   .     S
C224   H227    1.109   .     S
O228   C229    1.412   .     S
C229   H230    1.112   .     S
C229   H231    1.111   .     S
C229   H232    1.109   .     S
O233   Zn249   1.952   .     S
O233   C241    1.263   .     A
O234   Zn250   1.952   .     S
O234   C242    1.263   .     A
O235   C242    1.263   .     A
O235   Zn249   1.952   .     S
O236   Zn250   1.952   .     S
O236   C241    1.263   .     A
H237   C265    1.082   .     S
H238   C266    1.082   .     S
H239   C267    1.082   .     S
H240   C268    1.082   .     S
C241   C269    1.364   .     S
C242   C270    1.364   .     S
O243   C247    1.270   .     A
O243   Zn249   2.009   .     S
O244   C248    1.269   .     A
O244   Zn250   2.009   .     S
O245   Zn249   2.009   .     S
O245   C248    1.269   .     A
O246   Zn250   2.009   .     S
O246   C247    1.270   .     A
C247   C258    1.422   .     S
C248   C257    1.419   .     S
Zn249  N252    1.977   .     S
Zn250  N251    1.977   .     S
N251   N948    1.195   1_554 S
N252   N599    1.195   .     S
C253   O271    1.386   .     S
C253   C257    1.397   .     A
C253   C261    1.394   .     A
C254   O276    1.387   .     S
C254   C258    1.399   .     A
C254   C262    1.395   .     A
C255   C259    1.394   .     A
C255   C257    1.397   .     A
C255   O281    1.386   .     S
C256   O286    1.387   .     S
C256   C260    1.395   .     A
C256   C258    1.399   .     A
C259   C265    1.400   .     A
C259   C263    1.415   .     A
C260   C266    1.402   .     A
C260   C264    1.415   .     A
C261   C263    1.415   .     A
C261   C267    1.400   .     A
C262   C268    1.402   .     A
C262   C264    1.415   .     A
C263   C322    1.399   .     S
C264   C321    1.399   1_455 S
C265   C326    1.385   .     S
C266   C325    1.385   1_455 S
C267   C324    1.385   .     S
C268   C323    1.385   1_455 S
C270   C37     1.164   1_565 S
O271   C272    1.412   .     S
C272   H273    1.112   .     S
C272   H275    1.109   .     S
C272   H274    1.113   .     S
O276   C277    1.412   .     S
C277   H278    1.112   .     S
C277   H279    1.111   .     S
C277   H280    1.109   .     S
O281   C282    1.412   .     S
C282   H284    1.113   .     S
C282   H283    1.112   .     S
C282   H285    1.109   .     S
O286   C287    1.412   .     S
C287   H288    1.112   .     S
C287   H289    1.111   .     S
C287   H290    1.109   .     S
O291   Zn307   1.952   .     S
O291   C299    1.263   .     A
O292   Zn308   1.952   .     S
O292   C300    1.263   .     A
O293   C300    1.263   .     A
O293   Zn307   1.952   .     S
O294   Zn308   1.952   .     S
O294   C299    1.263   .     A
H295   C323    1.082   .     S
H296   C324    1.082   .     S
H297   C325    1.082   .     S
H298   C326    1.082   .     S
C299   C327    1.364   .     S
C300   C328    1.364   .     S
O301   C305    1.270   .     A
O301   Zn307   2.009   .     S
O302   C306    1.269   .     A
O302   Zn308   2.009   .     S
O303   Zn307   2.009   .     S
O303   C306    1.269   .     A
O304   Zn308   2.009   .     S
O304   C305    1.270   .     A
C305   C316    1.422   .     S
C306   C315    1.419   .     S
Zn307  N310    1.977   .     S
Zn308  N309    1.977   .     S
N309   N1006   1.195   1_554 S
N310   N657    1.195   .     S
C311   O329    1.386   .     S
C311   C315    1.397   .     A
C311   C319    1.394   .     A
C312   O334    1.387   .     S
C312   C316    1.399   .     A
C312   C320    1.395   .     A
C313   C317    1.394   .     A
C313   C315    1.397   .     A
C313   O339    1.386   .     S
C314   O344    1.387   .     S
C314   C318    1.395   .     A
C314   C316    1.399   .     A
C317   C323    1.400   .     A
C317   C321    1.415   .     A
C318   C324    1.402   .     A
C318   C322    1.415   .     A
C319   C321    1.415   .     A
C319   C325    1.400   .     A
C320   C326    1.402   .     A
C320   C322    1.415   .     A
C321   C264    1.399   1_655 S
C323   C268    1.385   1_655 S
C325   C266    1.385   1_655 S
C328   C95     1.164   1_565 S
O329   C330    1.412   .     S
C330   H331    1.112   .     S
C330   H333    1.109   .     S
C330   H332    1.113   .     S
O334   C335    1.412   .     S
C335   H336    1.112   .     S
C335   H337    1.111   .     S
C335   H338    1.109   .     S
O339   C340    1.412   .     S
C340   H342    1.113   .     S
C340   H341    1.112   .     S
C340   H343    1.109   .     S
O344   C345    1.412   .     S
C345   H346    1.112   .     S
C345   H347    1.111   .     S
C345   H348    1.109   .     S
O349   Zn365   1.952   .     S
O349   C357    1.263   .     A
O350   Zn366   1.952   .     S
O350   C358    1.263   .     A
O351   C358    1.263   .     A
O351   Zn365   1.952   .     S
O352   Zn366   1.952   .     S
O352   C357    1.263   .     A
H353   C381    1.082   .     S
H354   C382    1.082   .     S
H355   C383    1.082   .     S
H356   C384    1.082   .     S
C357   C385    1.364   .     S
C358   C386    1.364   .     S
O359   C363    1.270   .     A
O359   Zn365   2.009   .     S
O360   C364    1.269   .     A
O360   Zn366   2.009   .     S
O361   Zn365   2.009   .     S
O361   C364    1.269   .     A
O362   Zn366   2.009   .     S
O362   C363    1.270   .     A
C363   C374    1.422   .     S
C364   C373    1.419   .     S
Zn365  N368    1.977   .     S
Zn366  N367    1.977   .     S
N368   N715    1.195   .     S
C369   O387    1.386   .     S
C369   C373    1.397   .     A
C369   C377    1.394   .     A
C370   O392    1.387   .     S
C370   C374    1.399   .     A
C370   C378    1.395   .     A
C371   C375    1.394   .     A
C371   C373    1.397   .     A
C371   O397    1.386   .     S
C372   O402    1.387   .     S
C372   C376    1.395   .     A
C372   C374    1.399   .     A
C375   C381    1.400   .     A
C375   C379    1.415   .     A
C376   C382    1.402   .     A
C376   C380    1.415   .     A
C377   C379    1.415   .     A
C377   C383    1.400   .     A
C378   C384    1.402   .     A
C378   C380    1.415   .     A
C379   C438    1.399   .     S
C380   C437    1.399   1_455 S
C381   C442    1.385   .     S
C382   C441    1.385   1_455 S
C383   C440    1.385   .     S
C384   C439    1.385   1_455 S
C385   C618    1.164   1_545 S
C386   C501    1.164   .     S
O387   C388    1.412   .     S
C388   H389    1.112   .     S
C388   H391    1.109   .     S
C388   H390    1.113   .     S
O392   C393    1.412   .     S
C393   H394    1.112   .     S
C393   H395    1.111   .     S
C393   H396    1.109   .     S
O397   C398    1.412   .     S
C398   H400    1.113   .     S
C398   H399    1.112   .     S
C398   H401    1.109   .     S
O402   C403    1.412   .     S
C403   H404    1.112   .     S
C403   H405    1.111   .     S
C403   H406    1.109   .     S
O407   Zn423   1.952   .     S
O407   C415    1.263   .     A
O408   Zn424   1.952   .     S
O408   C416    1.263   .     A
O409   C416    1.263   .     A
O409   Zn423   1.952   .     S
O410   Zn424   1.952   .     S
O410   C415    1.263   .     A
H411   C439    1.082   .     S
H412   C440    1.082   .     S
H413   C441    1.082   .     S
H414   C442    1.082   .     S
C415   C443    1.364   .     S
C416   C444    1.364   .     S
O417   C421    1.270   .     A
O417   Zn423   2.009   .     S
O418   C422    1.269   .     A
O418   Zn424   2.009   .     S
O419   Zn423   2.009   .     S
O419   C422    1.269   .     A
O420   Zn424   2.009   .     S
O420   C421    1.270   .     A
C421   C432    1.422   .     S
C422   C431    1.419   .     S
Zn423  N426    1.977   .     S
Zn424  N425    1.977   .     S
N426   N773    1.195   .     S
C427   O445    1.386   .     S
C427   C431    1.397   .     A
C427   C435    1.394   .     A
C428   O450    1.387   .     S
C428   C432    1.399   .     A
C428   C436    1.395   .     A
C429   C433    1.394   .     A
C429   C431    1.397   .     A
C429   O455    1.386   .     S
C430   O460    1.387   .     S
C430   C434    1.395   .     A
C430   C432    1.399   .     A
C433   C439    1.400   .     A
C433   C437    1.415   .     A
C434   C440    1.402   .     A
C434   C438    1.415   .     A
C435   C437    1.415   .     A
C435   C441    1.400   .     A
C436   C442    1.402   .     A
C436   C438    1.415   .     A
C437   C380    1.399   1_655 S
C439   C384    1.385   1_655 S
C441   C382    1.385   1_655 S
C443   C676    1.164   1_545 S
C444   C559    1.164   .     S
O445   C446    1.412   .     S
C446   H447    1.112   .     S
C446   H449    1.109   .     S
C446   H448    1.113   .     S
O450   C451    1.412   .     S
C451   H452    1.112   .     S
C451   H453    1.111   .     S
C451   H454    1.109   .     S
O455   C456    1.412   .     S
C456   H458    1.113   .     S
C456   H457    1.112   .     S
C456   H459    1.109   .     S
O460   C461    1.412   .     S
C461   H462    1.112   .     S
C461   H463    1.111   .     S
C461   H464    1.109   .     S
O465   Zn481   1.952   .     S
O465   C473    1.263   .     A
O466   Zn482   1.952   .     S
O466   C474    1.263   .     A
O467   C474    1.263   .     A
O467   Zn481   1.952   .     S
O468   Zn482   1.952   .     S
O468   C473    1.263   .     A
H469   C497    1.082   .     S
H470   C498    1.082   .     S
H471   C499    1.082   .     S
H472   C500    1.082   .     S
C473   C501    1.364   .     S
C474   C502    1.364   .     S
O475   C479    1.270   .     A
O475   Zn481   2.009   .     S
O476   C480    1.269   .     A
O476   Zn482   2.009   .     S
O477   Zn481   2.009   .     S
O477   C480    1.269   .     A
O478   Zn482   2.009   .     S
O478   C479    1.270   .     A
C479   C490    1.422   .     S
C480   C489    1.419   .     S
Zn481  N484    1.977   .     S
Zn482  N483    1.977   .     S
N484   N831    1.195   .     S
C485   O503    1.386   .     S
C485   C489    1.397   .     A
C485   C493    1.394   .     A
C486   O508    1.387   .     S
C486   C490    1.399   .     A
C486   C494    1.395   .     A
C487   C491    1.394   .     A
C487   C489    1.397   .     A
C487   O513    1.386   .     S
C488   O518    1.387   .     S
C488   C492    1.395   .     A
C488   C490    1.399   .     A
C491   C497    1.400   .     A
C491   C495    1.415   .     A
C492   C498    1.402   .     A
C492   C496    1.415   .     A
C493   C495    1.415   .     A
C493   C499    1.400   .     A
C494   C500    1.402   .     A
C494   C496    1.415   .     A
C495   C554    1.399   .     S
C496   C553    1.399   1_455 S
C497   C558    1.385   .     S
C498   C557    1.385   1_455 S
C499   C556    1.385   .     S
C500   C555    1.385   1_455 S
C502   C617    1.164   .     S
O503   C504    1.412   .     S
C504   H505    1.112   .     S
C504   H507    1.109   .     S
C504   H506    1.113   .     S
O508   C509    1.412   .     S
C509   H510    1.112   .     S
C509   H511    1.111   .     S
C509   H512    1.109   .     S
O513   C514    1.412   .     S
C514   H516    1.113   .     S
C514   H515    1.112   .     S
C514   H517    1.109   .     S
O518   C519    1.412   .     S
C519   H520    1.112   .     S
C519   H521    1.111   .     S
C519   H522    1.109   .     S
O523   Zn539   1.952   .     S
O523   C531    1.263   .     A
O524   Zn540   1.952   .     S
O524   C532    1.263   .     A
O525   C532    1.263   .     A
O525   Zn539   1.952   .     S
O526   Zn540   1.952   .     S
O526   C531    1.263   .     A
H527   C555    1.082   .     S
H528   C556    1.082   .     S
H529   C557    1.082   .     S
H530   C558    1.082   .     S
C531   C559    1.364   .     S
C532   C560    1.364   .     S
O533   C537    1.270   .     A
O533   Zn539   2.009   .     S
O534   C538    1.269   .     A
O534   Zn540   2.009   .     S
O535   Zn539   2.009   .     S
O535   C538    1.269   .     A
O536   Zn540   2.009   .     S
O536   C537    1.270   .     A
C537   C548    1.422   .     S
C538   C547    1.419   .     S
Zn539  N542    1.977   .     S
Zn540  N541    1.977   .     S
N542   N889    1.195   .     S
C543   O561    1.386   .     S
C543   C547    1.397   .     A
C543   C551    1.394   .     A
C544   O566    1.387   .     S
C544   C548    1.399   .     A
C544   C552    1.395   .     A
C545   C549    1.394   .     A
C545   C547    1.397   .     A
C545   O571    1.386   .     S
C546   O576    1.387   .     S
C546   C550    1.395   .     A
C546   C548    1.399   .     A
C549   C555    1.400   .     A
C549   C553    1.415   .     A
C550   C556    1.402   .     A
C550   C554    1.415   .     A
C551   C553    1.415   .     A
C551   C557    1.400   .     A
C552   C558    1.402   .     A
C552   C554    1.415   .     A
C553   C496    1.399   1_655 S
C555   C500    1.385   1_655 S
C557   C498    1.385   1_655 S
C560   C675    1.164   .     S
O561   C562    1.412   .     S
C562   H563    1.112   .     S
C562   H565    1.109   .     S
C562   H564    1.113   .     S
O566   C567    1.412   .     S
C567   H568    1.112   .     S
C567   H569    1.111   .     S
C567   H570    1.109   .     S
O571   C572    1.412   .     S
C572   H574    1.113   .     S
C572   H573    1.112   .     S
C572   H575    1.109   .     S
O576   C577    1.412   .     S
C577   H578    1.112   .     S
C577   H579    1.111   .     S
C577   H580    1.109   .     S
O581   Zn597   1.952   .     S
O581   C589    1.263   .     A
O582   Zn598   1.952   .     S
O582   C590    1.263   .     A
O583   C590    1.263   .     A
O583   Zn597   1.952   .     S
O584   Zn598   1.952   .     S
O584   C589    1.263   .     A
H585   C613    1.082   .     S
H586   C614    1.082   .     S
H587   C615    1.082   .     S
H588   C616    1.082   .     S
C589   C617    1.364   .     S
C590   C618    1.364   .     S
O591   C595    1.270   .     A
O591   Zn597   2.009   .     S
O592   C596    1.269   .     A
O592   Zn598   2.009   .     S
O593   Zn597   2.009   .     S
O593   C596    1.269   .     A
O594   Zn598   2.009   .     S
O594   C595    1.270   .     A
C595   C606    1.422   .     S
C596   C605    1.419   .     S
Zn597  N600    1.977   .     S
Zn598  N599    1.977   .     S
N600   N947    1.195   .     S
C601   O619    1.386   .     S
C601   C605    1.397   .     A
C601   C609    1.394   .     A
C602   O624    1.387   .     S
C602   C606    1.399   .     A
C602   C610    1.395   .     A
C603   C607    1.394   .     A
C603   C605    1.397   .     A
C603   O629    1.386   .     S
C604   O634    1.387   .     S
C604   C608    1.395   .     A
C604   C606    1.399   .     A
C607   C613    1.400   .     A
C607   C611    1.415   .     A
C608   C614    1.402   .     A
C608   C612    1.415   .     A
C609   C611    1.415   .     A
C609   C615    1.400   .     A
C610   C616    1.402   .     A
C610   C612    1.415   .     A
C611   C670    1.399   .     S
C612   C669    1.399   1_455 S
C613   C674    1.385   .     S
C614   C673    1.385   1_455 S
C615   C672    1.385   .     S
C616   C671    1.385   1_455 S
C618   C385    1.164   1_565 S
O619   C620    1.412   .     S
C620   H621    1.112   .     S
C620   H623    1.109   .     S
C620   H622    1.113   .     S
O624   C625    1.412   .     S
C625   H626    1.112   .     S
C625   H627    1.111   .     S
C625   H628    1.109   .     S
O629   C630    1.412   .     S
C630   H632    1.113   .     S
C630   H631    1.112   .     S
C630   H633    1.109   .     S
O634   C635    1.412   .     S
C635   H636    1.112   .     S
C635   H637    1.111   .     S
C635   H638    1.109   .     S
O639   Zn655   1.952   .     S
O639   C647    1.263   .     A
O640   Zn656   1.952   .     S
O640   C648    1.263   .     A
O641   C648    1.263   .     A
O641   Zn655   1.952   .     S
O642   Zn656   1.952   .     S
O642   C647    1.263   .     A
H643   C671    1.082   .     S
H644   C672    1.082   .     S
H645   C673    1.082   .     S
H646   C674    1.082   .     S
C647   C675    1.364   .     S
C648   C676    1.364   .     S
O649   C653    1.270   .     A
O649   Zn655   2.009   .     S
O650   C654    1.269   .     A
O650   Zn656   2.009   .     S
O651   Zn655   2.009   .     S
O651   C654    1.269   .     A
O652   Zn656   2.009   .     S
O652   C653    1.270   .     A
C653   C664    1.422   .     S
C654   C663    1.419   .     S
Zn655  N658    1.977   .     S
Zn656  N657    1.977   .     S
N658   N1005   1.195   .     S
C659   O677    1.386   .     S
C659   C663    1.397   .     A
C659   C667    1.394   .     A
C660   O682    1.387   .     S
C660   C664    1.399   .     A
C660   C668    1.395   .     A
C661   C665    1.394   .     A
C661   C663    1.397   .     A
C661   O687    1.386   .     S
C662   O692    1.387   .     S
C662   C666    1.395   .     A
C662   C664    1.399   .     A
C665   C671    1.400   .     A
C665   C669    1.415   .     A
C666   C672    1.402   .     A
C666   C670    1.415   .     A
C667   C669    1.415   .     A
C667   C673    1.400   .     A
C668   C674    1.402   .     A
C668   C670    1.415   .     A
C669   C612    1.399   1_655 S
C671   C616    1.385   1_655 S
C673   C614    1.385   1_655 S
C676   C443    1.164   1_565 S
O677   C678    1.412   .     S
C678   H679    1.112   .     S
C678   H681    1.109   .     S
C678   H680    1.113   .     S
O682   C683    1.412   .     S
C683   H684    1.112   .     S
C683   H685    1.111   .     S
C683   H686    1.109   .     S
O687   C688    1.412   .     S
C688   H690    1.113   .     S
C688   H689    1.112   .     S
C688   H691    1.109   .     S
O692   C693    1.412   .     S
C693   H694    1.112   .     S
C693   H695    1.111   .     S
C693   H696    1.109   .     S
O697   Zn713   1.952   .     S
O697   C705    1.263   .     A
O698   Zn714   1.952   .     S
O698   C706    1.263   .     A
O699   C706    1.263   .     A
O699   Zn713   1.952   .     S
O700   Zn714   1.952   .     S
O700   C705    1.263   .     A
H701   C729    1.082   .     S
H702   C730    1.082   .     S
H703   C731    1.082   .     S
H704   C732    1.082   .     S
C705   C733    1.364   .     S
C706   C734    1.364   .     S
O707   C711    1.270   .     A
O707   Zn713   2.009   .     S
O708   C712    1.269   .     A
O708   Zn714   2.009   .     S
O709   Zn713   2.009   .     S
O709   C712    1.269   .     A
O710   Zn714   2.009   .     S
O710   C711    1.270   .     A
C711   C722    1.422   .     S
C712   C721    1.419   .     S
Zn713  N716    1.977   .     S
Zn714  N715    1.977   .     S
N716   N19     1.195   1_556 S
C717   O735    1.386   .     S
C717   C721    1.397   .     A
C717   C725    1.394   .     A
C718   O740    1.387   .     S
C718   C722    1.399   .     A
C718   C726    1.395   .     A
C719   C723    1.394   .     A
C719   C721    1.397   .     A
C719   O745    1.386   .     S
C720   O750    1.387   .     S
C720   C724    1.395   .     A
C720   C722    1.399   .     A
C723   C729    1.400   .     A
C723   C727    1.415   .     A
C724   C730    1.402   .     A
C724   C728    1.415   .     A
C725   C727    1.415   .     A
C725   C731    1.400   .     A
C726   C732    1.402   .     A
C726   C728    1.415   .     A
C727   C786    1.399   .     S
C728   C785    1.399   1_455 S
C729   C790    1.385   .     S
C730   C789    1.385   1_455 S
C731   C788    1.385   .     S
C732   C787    1.385   1_455 S
C733   C966    1.164   1_545 S
C734   C849    1.164   .     S
O735   C736    1.412   .     S
C736   H737    1.112   .     S
C736   H739    1.109   .     S
C736   H738    1.113   .     S
O740   C741    1.412   .     S
C741   H742    1.112   .     S
C741   H743    1.111   .     S
C741   H744    1.109   .     S
O745   C746    1.412   .     S
C746   H748    1.113   .     S
C746   H747    1.112   .     S
C746   H749    1.109   .     S
O750   C751    1.412   .     S
C751   H752    1.112   .     S
C751   H753    1.111   .     S
C751   H754    1.109   .     S
O755   Zn771   1.952   .     S
O755   C763    1.263   .     A
O756   Zn772   1.952   .     S
O756   C764    1.263   .     A
O757   C764    1.263   .     A
O757   Zn771   1.952   .     S
O758   Zn772   1.952   .     S
O758   C763    1.263   .     A
H759   C787    1.082   .     S
H760   C788    1.082   .     S
H761   C789    1.082   .     S
H762   C790    1.082   .     S
C763   C791    1.364   .     S
C764   C792    1.364   .     S
O765   C769    1.270   .     A
O765   Zn771   2.009   .     S
O766   C770    1.269   .     A
O766   Zn772   2.009   .     S
O767   Zn771   2.009   .     S
O767   C770    1.269   .     A
O768   Zn772   2.009   .     S
O768   C769    1.270   .     A
C769   C780    1.422   .     S
C770   C779    1.419   .     S
Zn771  N774    1.977   .     S
Zn772  N773    1.977   .     S
N774   N77     1.195   1_556 S
C775   O793    1.386   .     S
C775   C779    1.397   .     A
C775   C783    1.394   .     A
C776   O798    1.387   .     S
C776   C780    1.399   .     A
C776   C784    1.395   .     A
C777   C781    1.394   .     A
C777   C779    1.397   .     A
C777   O803    1.386   .     S
C778   O808    1.387   .     S
C778   C782    1.395   .     A
C778   C780    1.399   .     A
C781   C787    1.400   .     A
C781   C785    1.415   .     A
C782   C788    1.402   .     A
C782   C786    1.415   .     A
C783   C785    1.415   .     A
C783   C789    1.400   .     A
C784   C790    1.402   .     A
C784   C786    1.415   .     A
C785   C728    1.399   1_655 S
C787   C732    1.385   1_655 S
C789   C730    1.385   1_655 S
C791   C1024   1.164   1_545 S
C792   C907    1.164   .     S
O793   C794    1.412   .     S
C794   H795    1.112   .     S
C794   H797    1.109   .     S
C794   H796    1.113   .     S
O798   C799    1.412   .     S
C799   H800    1.112   .     S
C799   H801    1.111   .     S
C799   H802    1.109   .     S
O803   C804    1.412   .     S
C804   H806    1.113   .     S
C804   H805    1.112   .     S
C804   H807    1.109   .     S
O808   C809    1.412   .     S
C809   H810    1.112   .     S
C809   H811    1.111   .     S
C809   H812    1.109   .     S
O813   Zn829   1.952   .     S
O813   C821    1.263   .     A
O814   Zn830   1.952   .     S
O814   C822    1.263   .     A
O815   C822    1.263   .     A
O815   Zn829   1.952   .     S
O816   Zn830   1.952   .     S
O816   C821    1.263   .     A
H817   C845    1.082   .     S
H818   C846    1.082   .     S
H819   C847    1.082   .     S
H820   C848    1.082   .     S
C821   C849    1.364   .     S
C822   C850    1.364   .     S
O823   C827    1.270   .     A
O823   Zn829   2.009   .     S
O824   C828    1.269   .     A
O824   Zn830   2.009   .     S
O825   Zn829   2.009   .     S
O825   C828    1.269   .     A
O826   Zn830   2.009   .     S
O826   C827    1.270   .     A
C827   C838    1.422   .     S
C828   C837    1.419   .     S
Zn829  N832    1.977   .     S
Zn830  N831    1.977   .     S
N832   N135    1.195   1_556 S
C833   O851    1.386   .     S
C833   C837    1.397   .     A
C833   C841    1.394   .     A
C834   O856    1.387   .     S
C834   C838    1.399   .     A
C834   C842    1.395   .     A
C835   C839    1.394   .     A
C835   C837    1.397   .     A
C835   O861    1.386   .     S
C836   O866    1.387   .     S
C836   C840    1.395   .     A
C836   C838    1.399   .     A
C839   C845    1.400   .     A
C839   C843    1.415   .     A
C840   C846    1.402   .     A
C840   C844    1.415   .     A
C841   C843    1.415   .     A
C841   C847    1.400   .     A
C842   C848    1.402   .     A
C842   C844    1.415   .     A
C843   C902    1.399   .     S
C844   C901    1.399   1_455 S
C845   C906    1.385   .     S
C846   C905    1.385   1_455 S
C847   C904    1.385   .     S
C848   C903    1.385   1_455 S
C850   C965    1.164   .     S
O851   C852    1.412   .     S
C852   H853    1.112   .     S
C852   H855    1.109   .     S
C852   H854    1.113   .     S
O856   C857    1.412   .     S
C857   H858    1.112   .     S
C857   H859    1.111   .     S
C857   H860    1.109   .     S
O861   C862    1.412   .     S
C862   H864    1.113   .     S
C862   H863    1.112   .     S
C862   H865    1.109   .     S
O866   C867    1.412   .     S
C867   H868    1.112   .     S
C867   H869    1.111   .     S
C867   H870    1.109   .     S
O871   Zn887   1.952   .     S
O871   C879    1.263   .     A
O872   Zn888   1.952   .     S
O872   C880    1.263   .     A
O873   C880    1.263   .     A
O873   Zn887   1.952   .     S
O874   Zn888   1.952   .     S
O874   C879    1.263   .     A
H875   C903    1.082   .     S
H876   C904    1.082   .     S
H877   C905    1.082   .     S
H878   C906    1.082   .     S
C879   C907    1.364   .     S
C880   C908    1.364   .     S
O881   C885    1.270   .     A
O881   Zn887   2.009   .     S
O882   C886    1.269   .     A
O882   Zn888   2.009   .     S
O883   Zn887   2.009   .     S
O883   C886    1.269   .     A
O884   Zn888   2.009   .     S
O884   C885    1.270   .     A
C885   C896    1.422   .     S
C886   C895    1.419   .     S
Zn887  N890    1.977   .     S
Zn888  N889    1.977   .     S
N890   N193    1.195   1_556 S
C891   O909    1.386   .     S
C891   C895    1.397   .     A
C891   C899    1.394   .     A
C892   O914    1.387   .     S
C892   C896    1.399   .     A
C892   C900    1.395   .     A
C893   C897    1.394   .     A
C893   C895    1.397   .     A
C893   O919    1.386   .     S
C894   O924    1.387   .     S
C894   C898    1.395   .     A
C894   C896    1.399   .     A
C897   C903    1.400   .     A
C897   C901    1.415   .     A
C898   C904    1.402   .     A
C898   C902    1.415   .     A
C899   C901    1.415   .     A
C899   C905    1.400   .     A
C900   C906    1.402   .     A
C900   C902    1.415   .     A
C901   C844    1.399   1_655 S
C903   C848    1.385   1_655 S
C905   C846    1.385   1_655 S
C908   C1023   1.164   .     S
O909   C910    1.412   .     S
C910   H911    1.112   .     S
C910   H913    1.109   .     S
C910   H912    1.113   .     S
O914   C915    1.412   .     S
C915   H916    1.112   .     S
C915   H917    1.111   .     S
C915   H918    1.109   .     S
O919   C920    1.412   .     S
C920   H922    1.113   .     S
C920   H921    1.112   .     S
C920   H923    1.109   .     S
O924   C925    1.412   .     S
C925   H926    1.112   .     S
C925   H927    1.111   .     S
C925   H928    1.109   .     S
O929   Zn945   1.952   .     S
O929   C937    1.263   .     A
O930   Zn946   1.952   .     S
O930   C938    1.263   .     A
O931   C938    1.263   .     A
O931   Zn945   1.952   .     S
O932   Zn946   1.952   .     S
O932   C937    1.263   .     A
H933   C961    1.082   .     S
H934   C962    1.082   .     S
H935   C963    1.082   .     S
H936   C964    1.082   .     S
C937   C965    1.364   .     S
C938   C966    1.364   .     S
O939   C943    1.270   .     A
O939   Zn945   2.009   .     S
O940   C944    1.269   .     A
O940   Zn946   2.009   .     S
O941   Zn945   2.009   .     S
O941   C944    1.269   .     A
O942   Zn946   2.009   .     S
O942   C943    1.270   .     A
C943   C954    1.422   .     S
C944   C953    1.419   .     S
Zn945  N948    1.977   .     S
Zn946  N947    1.977   .     S
N948   N251    1.195   1_556 S
C949   O967    1.386   .     S
C949   C953    1.397   .     A
C949   C957    1.394   .     A
C950   O972    1.387   .     S
C950   C954    1.399   .     A
C950   C958    1.395   .     A
C951   C955    1.394   .     A
C951   C953    1.397   .     A
C951   O977    1.386   .     S
C952   O982    1.387   .     S
C952   C956    1.395   .     A
C952   C954    1.399   .     A
C955   C961    1.400   .     A
C955   C959    1.415   .     A
C956   C962    1.402   .     A
C956   C960    1.415   .     A
C957   C959    1.415   .     A
C957   C963    1.400   .     A
C958   C964    1.402   .     A
C958   C960    1.415   .     A
C959   C1018   1.399   .     S
C960   C1017   1.399   1_455 S
C961   C1022   1.385   .     S
C962   C1021   1.385   1_455 S
C963   C1020   1.385   .     S
C964   C1019   1.385   1_455 S
C966   C733    1.164   1_565 S
O967   C968    1.412   .     S
C968   H969    1.112   .     S
C968   H971    1.109   .     S
C968   H970    1.113   .     S
O972   C973    1.412   .     S
C973   H974    1.112   .     S
C973   H975    1.111   .     S
C973   H976    1.109   .     S
O977   C978    1.412   .     S
C978   H980    1.113   .     S
C978   H979    1.112   .     S
C978   H981    1.109   .     S
O982   C983    1.412   .     S
C983   H984    1.112   .     S
C983   H985    1.111   .     S
C983   H986    1.109   .     S
O987   Zn1003  1.952   .     S
O987   C995    1.263   .     A
O988   Zn1004  1.952   .     S
O988   C996    1.263   .     A
O989   C996    1.263   .     A
O989   Zn1003  1.952   .     S
O990   Zn1004  1.952   .     S
O990   C995    1.263   .     A
H991   C1019   1.082   .     S
H992   C1020   1.082   .     S
H993   C1021   1.082   .     S
H994   C1022   1.082   .     S
C995   C1023   1.364   .     S
C996   C1024   1.364   .     S
O997   C1001   1.270   .     A
O997   Zn1003  2.009   .     S
O998   C1002   1.269   .     A
O998   Zn1004  2.009   .     S
O999   Zn1003  2.009   .     S
O999   C1002   1.269   .     A
O1000  Zn1004  2.009   .     S
O1000  C1001   1.270   .     A
C1001  C1012   1.422   .     S
C1002  C1011   1.419   .     S
Zn1003 N1006   1.977   .     S
Zn1004 N1005   1.977   .     S
N1006  N309    1.195   1_556 S
C1007  O1025   1.386   .     S
C1007  C1011   1.397   .     A
C1007  C1015   1.394   .     A
C1008  O1030   1.387   .     S
C1008  C1012   1.399   .     A
C1008  C1016   1.395   .     A
C1009  C1013   1.394   .     A
C1009  C1011   1.397   .     A
C1009  O1035   1.386   .     S
C1010  O1040   1.387   .     S
C1010  C1014   1.395   .     A
C1010  C1012   1.399   .     A
C1013  C1019   1.400   .     A
C1013  C1017   1.415   .     A
C1014  C1020   1.402   .     A
C1014  C1018   1.415   .     A
C1015  C1017   1.415   .     A
C1015  C1021   1.400   .     A
C1016  C1022   1.402   .     A
C1016  C1018   1.415   .     A
C1017  C960    1.399   1_655 S
C1019  C964    1.385   1_655 S
C1021  C962    1.385   1_655 S
C1024  C791    1.164   1_565 S
O1025  C1026   1.412   .     S
C1026  H1027   1.112   .     S
C1026  H1029   1.109   .     S
C1026  H1028   1.113   .     S
O1030  C1031   1.412   .     S
C1031  H1032   1.112   .     S
C1031  H1033   1.111   .     S
C1031  H1034   1.109   .     S
O1035  C1036   1.412   .     S
C1036  H1038   1.113   .     S
C1036  H1037   1.112   .     S
C1036  H1039   1.109   .     S
O1040  C1041   1.412   .     S
C1041  H1042   1.112   .     S
C1041  H1043   1.111   .     S
C1041  H1044   1.109   .     S
