data_str_m3_o1_o1_pcu_sym.83
_audit_creation_date              2020-01-03
_audit_creation_method            'Materials Studio'
_symmetry_space_group_name_H-M    'P1'
_symmetry_Int_Tables_number       1
_symmetry_cell_setting            triclinic
loop_
_symmetry_equiv_pos_as_xyz
  x,y,z
_cell_length_a                    31.7717
_cell_length_b                    29.4113
_cell_length_c                    30.0542
_cell_angle_alpha                 90.2121
_cell_angle_beta                  89.8597
_cell_angle_gamma                 90.2034
loop_
_atom_site_label
_atom_site_type_symbol
_atom_site_fract_x
_atom_site_fract_y
_atom_site_fract_z
_atom_site_U_iso_or_equiv
_atom_site_adp_type
_atom_site_occupancy
Br1    Br    0.01172   0.34563   0.05391   0.00000  Uiso   1.00
Br2    Br    0.00513   0.15434   0.27937   0.00000  Uiso   1.00
Br3    Br    0.48880   0.15425   0.05407   0.00000  Uiso   1.00
Br4    Br    0.49360   0.34635   0.27888   0.00000  Uiso   1.00
Br5    Br    0.26172   0.09563   0.05391   0.00000  Uiso   1.00
Br6    Br    0.25513   0.40434   0.27937   0.00000  Uiso   1.00
Br7    Br    0.23880   0.40425   0.05407   0.00000  Uiso   1.00
Br8    Br    0.24360   0.09635   0.27888   0.00000  Uiso   1.00
C9     C     0.05929   0.18923   0.16675   0.00000  Uiso   1.00
C10    C     0.49976   0.21041   0.30963   0.00000  Uiso   1.00
C11    C     0.49739   0.21040   0.02369   0.00000  Uiso   1.00
C12    C     0.49950   0.28979   0.30958   0.00000  Uiso   1.00
C13    C     0.25214   0.03967   0.02373   0.00000  Uiso   1.00
C14    C     0.24976   0.46041   0.30963   0.00000  Uiso   1.00
C15    C     0.24739   0.46040   0.02369   0.00000  Uiso   1.00
C16    C     0.24950   0.03979   0.30958   0.00000  Uiso   1.00
C17    C     0.38534   0.14588   0.12586   0.00000  Uiso   1.00
C18    C     0.11738   0.35153   0.20547   0.00000  Uiso   1.00
C19    C     0.11145   0.35642   0.12527   0.00000  Uiso   1.00
C20    C     0.44111   0.31097   0.16701   0.00000  Uiso   1.00
C21    C     0.40460   0.12551   0.20085   0.00000  Uiso   1.00
C22    C     0.10862   0.14012   0.20862   0.00000  Uiso   1.00
C23    C     0.39914   0.36940   0.13006   0.00000  Uiso   1.00
C24    C     0.38687   0.35436   0.20825   0.00000  Uiso   1.00
C25    C     0.10973   0.13915   0.12778   0.00000  Uiso   1.00
C26    C     0.13534   0.39588   0.12586   0.00000  Uiso   1.00
C27    C     0.36738   0.10154   0.20547   0.00000  Uiso   1.00
C28    C     0.36145   0.10642   0.12527   0.00000  Uiso   1.00
C29    C     0.15460   0.37550   0.20085   0.00000  Uiso   1.00
C30    C     0.35861   0.39012   0.20862   0.00000  Uiso   1.00
C31    C     0.44079   0.18936   0.16626   0.00000  Uiso   1.00
C32    C     0.14914   0.11940   0.13006   0.00000  Uiso   1.00
C33    C     0.13687   0.10436   0.20825   0.00000  Uiso   1.00
C34    C     0.35973   0.38915   0.12778   0.00000  Uiso   1.00
C35    C     0.09630   0.33964   0.16617   0.00000  Uiso   1.00
C36    C     0.40917   0.15440   0.16462   0.00000  Uiso   1.00
C37    C     0.40903   0.34532   0.16849   0.00000  Uiso   1.00
C38    C     0.09222   0.15542   0.16760   0.00000  Uiso   1.00
C39    C     0.34630   0.08964   0.16617   0.00000  Uiso   1.00
C40    C     0.15918   0.40440   0.16462   0.00000  Uiso   1.00
C41    C     0.15903   0.09532   0.16849   0.00000  Uiso   1.00
C42    C     0.06082   0.30892   0.16667   0.00000  Uiso   1.00
C43    C     0.34222   0.40542   0.16760   0.00000  Uiso   1.00
C44    C     0.36947   0.21215   0.08971   0.00000  Uiso   1.00
C45    C     0.32429   0.20783   0.07316   0.00000  Uiso   1.00
C46    C     0.10304   0.36837   0.27805   0.00000  Uiso   1.00
C47    C     0.10688   0.34808   0.32366   0.00000  Uiso   1.00
C48    C     0.13150   0.29265   0.08652   0.00000  Uiso   1.00
C49    C     0.17861   0.30250   0.08094   0.00000  Uiso   1.00
C50    C     0.45919   0.07702   0.21331   0.00000  Uiso   1.00
C51    C     0.46464   0.04331   0.25115   0.00000  Uiso   1.00
C52    C     0.12777   0.19086   0.26208   0.00000  Uiso   1.00
C53    C     0.30929   0.43922   0.16675   0.00000  Uiso   1.00
C54    C     0.10816   0.22585   0.29321   0.00000  Uiso   1.00
C55    C     0.43850   0.41710   0.08644   0.00000  Uiso   1.00
C56    C     0.43190   0.42908   0.03781   0.00000  Uiso   1.00
C57    C     0.36666   0.29357   0.24943   0.00000  Uiso   1.00
C58    C     0.38136   0.26079   0.28526   0.00000  Uiso   1.00
C59    C     0.08259   0.10208   0.06735   0.00000  Uiso   1.00
C60    C     0.08585   0.10544   0.01715   0.00000  Uiso   1.00
C61    C     0.11947   0.46215   0.08971   0.00000  Uiso   1.00
C62    C     0.07428   0.45783   0.07317   0.00000  Uiso   1.00
C63    C     0.35304   0.11837   0.27806   0.00000  Uiso   1.00
C64    C     0.19111   0.06097   0.16701   0.00000  Uiso   1.00
C65    C     0.35688   0.09808   0.32366   0.00000  Uiso   1.00
C66    C     0.38151   0.04265   0.08652   0.00000  Uiso   1.00
C67    C     0.42861   0.05250   0.08094   0.00000  Uiso   1.00
C68    C     0.20919   0.32702   0.21331   0.00000  Uiso   1.00
C69    C     0.21464   0.29331   0.25115   0.00000  Uiso   1.00
C70    C     0.37777   0.44086   0.26208   0.00000  Uiso   1.00
C71    C     0.35816   0.47585   0.29321   0.00000  Uiso   1.00
C72    C     0.18850   0.16710   0.08644   0.00000  Uiso   1.00
C73    C     0.18190   0.17907   0.03781   0.00000  Uiso   1.00
C74    C     0.11666   0.04357   0.24943   0.00000  Uiso   1.00
C75    C     0.19079   0.43936   0.16626   0.00000  Uiso   1.00
C76    C     0.13136   0.01079   0.28526   0.00000  Uiso   1.00
C77    C     0.33259   0.35208   0.06735   0.00000  Uiso   1.00
C78    C     0.33585   0.35544   0.01715   0.00000  Uiso   1.00
C79    C     0.31082   0.05892   0.16667   0.00000  Uiso   1.00
C80    C     0.00214   0.28967   0.02373   0.00000  Uiso   1.00
H81    H     0.38623   0.23682   0.06801   0.00000  Uiso   1.00
H82    H     0.08330   0.32070   0.32829   0.00000  Uiso   1.00
H83    H     0.12135   0.27060   0.05844   0.00000  Uiso   1.00
H84    H     0.12637   0.27222   0.11718   0.00000  Uiso   1.00
H85    H     0.19029   0.32529   0.10763   0.00000  Uiso   1.00
H86    H     0.19661   0.27041   0.08301   0.00000  Uiso   1.00
H87    H     0.18508   0.31838   0.04830   0.00000  Uiso   1.00
H88    H     0.49077   0.08756   0.20108   0.00000  Uiso   1.00
H89    H     0.44337   0.05843   0.18545   0.00000  Uiso   1.00
H90    H     0.43334   0.03284   0.26380   0.00000  Uiso   1.00
H91    H     0.48157   0.01273   0.23893   0.00000  Uiso   1.00
H92    H     0.36954   0.22725   0.12384   0.00000  Uiso   1.00
H93    H     0.48289   0.05866   0.27883   0.00000  Uiso   1.00
H94    H     0.14172   0.20994   0.23348   0.00000  Uiso   1.00
H95    H     0.15344   0.17292   0.27977   0.00000  Uiso   1.00
H96    H     0.09067   0.20903   0.32051   0.00000  Uiso   1.00
H97    H     0.13305   0.24750   0.30813   0.00000  Uiso   1.00
H98    H     0.08618   0.24773   0.27444   0.00000  Uiso   1.00
H99    H     0.47238   0.42068   0.09459   0.00000  Uiso   1.00
H100   H     0.42201   0.44317   0.10718   0.00000  Uiso   1.00
H101   H     0.39783   0.43309   0.03161   0.00000  Uiso   1.00
H102   H     0.44821   0.46138   0.02959   0.00000  Uiso   1.00
H103   H     0.30652   0.18326   0.09399   0.00000  Uiso   1.00
H104   H     0.44424   0.40185   0.01584   0.00000  Uiso   1.00
H105   H     0.36545   0.27422   0.21741   0.00000  Uiso   1.00
H106   H     0.33439   0.30549   0.25778   0.00000  Uiso   1.00
H107   H     0.38565   0.27875   0.31746   0.00000  Uiso   1.00
H108   H     0.35773   0.23325   0.28966   0.00000  Uiso   1.00
H109   H     0.41177   0.24531   0.27535   0.00000  Uiso   1.00
H110   H     0.05041   0.09096   0.07685   0.00000  Uiso   1.00
H111   H     0.10413   0.07417   0.07762   0.00000  Uiso   1.00
H112   H     0.11936   0.10746   0.00686   0.00000  Uiso   1.00
H113   H     0.07092   0.07516   0.00163   0.00000  Uiso   1.00
H114   H     0.30854   0.24143   0.07526   0.00000  Uiso   1.00
H115   H     0.06967   0.13630   0.00566   0.00000  Uiso   1.00
H116   H     0.13622   0.48682   0.06801   0.00000  Uiso   1.00
H117   H     0.11954   0.47725   0.12384   0.00000  Uiso   1.00
H118   H     0.05652   0.43326   0.09399   0.00000  Uiso   1.00
H119   H     0.05854   0.49143   0.07527   0.00000  Uiso   1.00
H120   H     0.07393   0.44631   0.03797   0.00000  Uiso   1.00
H121   H     0.32229   0.13558   0.27460   0.00000  Uiso   1.00
H122   H     0.37777   0.14519   0.27597   0.00000  Uiso   1.00
H123   H     0.38876   0.08353   0.32725   0.00000  Uiso   1.00
H124   H     0.35219   0.12522   0.01542   0.00000  Uiso   1.00
H125   H     0.32393   0.19631   0.03797   0.00000  Uiso   1.00
H126   H     0.33330   0.07070   0.32829   0.00000  Uiso   1.00
H127   H     0.37135   0.02060   0.05845   0.00000  Uiso   1.00
H128   H     0.37637   0.02222   0.11718   0.00000  Uiso   1.00
H129   H     0.44029   0.07529   0.10763   0.00000  Uiso   1.00
H130   H     0.44661   0.02041   0.08302   0.00000  Uiso   1.00
H131   H     0.43508   0.06838   0.04830   0.00000  Uiso   1.00
H132   H     0.24077   0.33756   0.20108   0.00000  Uiso   1.00
H133   H     0.19337   0.30843   0.18544   0.00000  Uiso   1.00
H134   H     0.18334   0.28283   0.26379   0.00000  Uiso   1.00
H135   H     0.23157   0.26273   0.23893   0.00000  Uiso   1.00
H136   H     0.07229   0.38558   0.27459   0.00000  Uiso   1.00
H137   H     0.23289   0.30866   0.27883   0.00000  Uiso   1.00
H138   H     0.39172   0.45994   0.23348   0.00000  Uiso   1.00
H139   H     0.40344   0.42292   0.27977   0.00000  Uiso   1.00
H140   H     0.34067   0.45903   0.32051   0.00000  Uiso   1.00
H141   H     0.38305   0.49750   0.30813   0.00000  Uiso   1.00
H142   H     0.33618   0.49773   0.27444   0.00000  Uiso   1.00
H143   H     0.22238   0.17068   0.09459   0.00000  Uiso   1.00
H144   H     0.17201   0.19317   0.10718   0.00000  Uiso   1.00
H145   H     0.14782   0.18308   0.03161   0.00000  Uiso   1.00
H146   H     0.19821   0.21138   0.02958   0.00000  Uiso   1.00
H147   H     0.12777   0.39519   0.27597   0.00000  Uiso   1.00
H148   H     0.19425   0.15185   0.01583   0.00000  Uiso   1.00
H149   H     0.11545   0.02422   0.21741   0.00000  Uiso   1.00
H150   H     0.08439   0.05549   0.25778   0.00000  Uiso   1.00
H151   H     0.13565   0.02875   0.31746   0.00000  Uiso   1.00
H152   H     0.10773   0.48325   0.28966   0.00000  Uiso   1.00
H153   H     0.16177   0.49532   0.27535   0.00000  Uiso   1.00
H154   H     0.30041   0.34096   0.07685   0.00000  Uiso   1.00
H155   H     0.35413   0.32417   0.07762   0.00000  Uiso   1.00
H156   H     0.36937   0.35746   0.00686   0.00000  Uiso   1.00
H157   H     0.32092   0.32516   0.00163   0.00000  Uiso   1.00
H158   H     0.13876   0.33353   0.32726   0.00000  Uiso   1.00
H159   H     0.31967   0.38630   0.00566   0.00000  Uiso   1.00
H160   H     0.10218   0.37523   0.01542   0.00000  Uiso   1.00
N161   N     0.00000   0.25000   0.28573   0.00000  Uiso   1.00
N162   N     0.00000   0.25000   0.04760   0.00000  Uiso   1.00
N163   N     0.25000  -0.00000   0.28573   0.00000  Uiso   1.00
N164   N     0.25000  -0.00000   0.04760   0.00000  Uiso   1.00
O165   O     0.04581   0.20419   0.20487   0.00000  Uiso   1.00
O166   O     0.20420   0.04581   0.12846   0.00000  Uiso   1.00
O167   O     0.20420   0.04581   0.20487   0.00000  Uiso   1.00
O168   O     0.29581   0.45419   0.12846   0.00000  Uiso   1.00
O169   O     0.20420   0.45419   0.12846   0.00000  Uiso   1.00
O170   O     0.29581   0.04581   0.20487   0.00000  Uiso   1.00
O171   O     0.29581   0.04581   0.12846   0.00000  Uiso   1.00
O172   O     0.20420   0.45419   0.20487   0.00000  Uiso   1.00
O173   O     0.39075   0.16994   0.08669   0.00000  Uiso   1.00
O174   O     0.10680   0.33304   0.24614   0.00000  Uiso   1.00
O175   O     0.10682   0.33294   0.08564   0.00000  Uiso   1.00
O176   O     0.45420   0.29581   0.12846   0.00000  Uiso   1.00
O177   O     0.43751   0.11619   0.22900   0.00000  Uiso   1.00
O178   O     0.09674   0.15895   0.24888   0.00000  Uiso   1.00
O179   O     0.42589   0.37123   0.09382   0.00000  Uiso   1.00
O180   O     0.39458   0.33107   0.24729   0.00000  Uiso   1.00
O181   O     0.09102   0.14537   0.08678   0.00000  Uiso   1.00
O182   O     0.14075   0.41994   0.08669   0.00000  Uiso   1.00
O183   O     0.35680   0.08304   0.24614   0.00000  Uiso   1.00
O184   O     0.35682   0.08294   0.08564   0.00000  Uiso   1.00
O185   O     0.18752   0.36619   0.22900   0.00000  Uiso   1.00
O186   O     0.34674   0.40895   0.24888   0.00000  Uiso   1.00
O187   O     0.45420   0.29581   0.20487   0.00000  Uiso   1.00
O188   O     0.17589   0.12123   0.09382   0.00000  Uiso   1.00
O189   O     0.14458   0.08107   0.24729   0.00000  Uiso   1.00
O190   O     0.34102   0.39537   0.08678   0.00000  Uiso   1.00
O191   O     0.04581   0.20419   0.12846   0.00000  Uiso   1.00
O192   O     0.45420   0.20419   0.12846   0.00000  Uiso   1.00
O193   O     0.04581   0.29581   0.20487   0.00000  Uiso   1.00
O194   O     0.04581   0.29581   0.12846   0.00000  Uiso   1.00
O195   O     0.45420   0.20419   0.20487   0.00000  Uiso   1.00
O196   O     0.29581   0.45419   0.20487   0.00000  Uiso   1.00
Zn197  Zn    0.00000   0.25000   0.21771   0.00000  Uiso   1.00
Zn198  Zn    0.00000   0.25000   0.11563   0.00000  Uiso   1.00
Zn199  Zn    0.25000  -0.00000   0.21771   0.00000  Uiso   1.00
Zn200  Zn    0.25000  -0.00000   0.11563   0.00000  Uiso   1.00
Br201  Br    0.51172   0.34563   0.05391   0.00000  Uiso   1.00
Br202  Br    0.50513   0.15434   0.27937   0.00000  Uiso   1.00
Br203  Br    0.98880   0.15425   0.05407   0.00000  Uiso   1.00
Br204  Br    0.99360   0.34635   0.27888   0.00000  Uiso   1.00
Br205  Br    0.76172   0.09563   0.05391   0.00000  Uiso   1.00
Br206  Br    0.75513   0.40434   0.27937   0.00000  Uiso   1.00
Br207  Br    0.73880   0.40425   0.05407   0.00000  Uiso   1.00
Br208  Br    0.74360   0.09635   0.27888   0.00000  Uiso   1.00
C209   C     0.55929   0.18923   0.16675   0.00000  Uiso   1.00
C210   C     0.99976   0.21041   0.30963   0.00000  Uiso   1.00
C211   C     0.99739   0.21040   0.02369   0.00000  Uiso   1.00
C212   C     0.99950   0.28979   0.30958   0.00000  Uiso   1.00
C213   C     0.75214   0.03967   0.02373   0.00000  Uiso   1.00
C214   C     0.74976   0.46041   0.30963   0.00000  Uiso   1.00
C215   C     0.74739   0.46040   0.02369   0.00000  Uiso   1.00
C216   C     0.74950   0.03979   0.30958   0.00000  Uiso   1.00
C217   C     0.88534   0.14588   0.12586   0.00000  Uiso   1.00
C218   C     0.61738   0.35153   0.20547   0.00000  Uiso   1.00
C219   C     0.61145   0.35642   0.12527   0.00000  Uiso   1.00
C220   C     0.94111   0.31097   0.16701   0.00000  Uiso   1.00
C221   C     0.90460   0.12551   0.20085   0.00000  Uiso   1.00
C222   C     0.60862   0.14012   0.20862   0.00000  Uiso   1.00
C223   C     0.89914   0.36940   0.13006   0.00000  Uiso   1.00
C224   C     0.88687   0.35436   0.20825   0.00000  Uiso   1.00
C225   C     0.60973   0.13915   0.12778   0.00000  Uiso   1.00
C226   C     0.63534   0.39588   0.12586   0.00000  Uiso   1.00
C227   C     0.86738   0.10154   0.20547   0.00000  Uiso   1.00
C228   C     0.86145   0.10642   0.12527   0.00000  Uiso   1.00
C229   C     0.65460   0.37550   0.20085   0.00000  Uiso   1.00
C230   C     0.85861   0.39012   0.20862   0.00000  Uiso   1.00
C231   C     0.94079   0.18936   0.16626   0.00000  Uiso   1.00
C232   C     0.64914   0.11940   0.13006   0.00000  Uiso   1.00
C233   C     0.63687   0.10436   0.20825   0.00000  Uiso   1.00
C234   C     0.85973   0.38915   0.12778   0.00000  Uiso   1.00
C235   C     0.59630   0.33964   0.16617   0.00000  Uiso   1.00
C236   C     0.90917   0.15440   0.16462   0.00000  Uiso   1.00
C237   C     0.90903   0.34532   0.16849   0.00000  Uiso   1.00
C238   C     0.59222   0.15542   0.16760   0.00000  Uiso   1.00
C239   C     0.84630   0.08964   0.16617   0.00000  Uiso   1.00
C240   C     0.65918   0.40440   0.16462   0.00000  Uiso   1.00
C241   C     0.65903   0.09532   0.16849   0.00000  Uiso   1.00
C242   C     0.56082   0.30892   0.16667   0.00000  Uiso   1.00
C243   C     0.84222   0.40542   0.16760   0.00000  Uiso   1.00
C244   C     0.86947   0.21215   0.08971   0.00000  Uiso   1.00
C245   C     0.82429   0.20783   0.07316   0.00000  Uiso   1.00
C246   C     0.60304   0.36837   0.27805   0.00000  Uiso   1.00
C247   C     0.60688   0.34808   0.32366   0.00000  Uiso   1.00
C248   C     0.63150   0.29265   0.08652   0.00000  Uiso   1.00
C249   C     0.67861   0.30250   0.08094   0.00000  Uiso   1.00
C250   C     0.95919   0.07702   0.21331   0.00000  Uiso   1.00
C251   C     0.96464   0.04331   0.25115   0.00000  Uiso   1.00
C252   C     0.62777   0.19086   0.26208   0.00000  Uiso   1.00
C253   C     0.80929   0.43922   0.16675   0.00000  Uiso   1.00
C254   C     0.60816   0.22585   0.29321   0.00000  Uiso   1.00
C255   C     0.93850   0.41710   0.08644   0.00000  Uiso   1.00
C256   C     0.93190   0.42908   0.03781   0.00000  Uiso   1.00
C257   C     0.86666   0.29357   0.24943   0.00000  Uiso   1.00
C258   C     0.88136   0.26079   0.28526   0.00000  Uiso   1.00
C259   C     0.58259   0.10208   0.06735   0.00000  Uiso   1.00
C260   C     0.58585   0.10544   0.01715   0.00000  Uiso   1.00
C261   C     0.61947   0.46215   0.08971   0.00000  Uiso   1.00
C262   C     0.57428   0.45783   0.07317   0.00000  Uiso   1.00
C263   C     0.85304   0.11837   0.27806   0.00000  Uiso   1.00
C264   C     0.69111   0.06097   0.16701   0.00000  Uiso   1.00
C265   C     0.85688   0.09808   0.32366   0.00000  Uiso   1.00
C266   C     0.88151   0.04265   0.08652   0.00000  Uiso   1.00
C267   C     0.92861   0.05250   0.08094   0.00000  Uiso   1.00
C268   C     0.70919   0.32702   0.21331   0.00000  Uiso   1.00
C269   C     0.71464   0.29331   0.25115   0.00000  Uiso   1.00
C270   C     0.87777   0.44086   0.26208   0.00000  Uiso   1.00
C271   C     0.85816   0.47585   0.29321   0.00000  Uiso   1.00
C272   C     0.68850   0.16710   0.08644   0.00000  Uiso   1.00
C273   C     0.68190   0.17907   0.03781   0.00000  Uiso   1.00
C274   C     0.61666   0.04357   0.24943   0.00000  Uiso   1.00
C275   C     0.69079   0.43936   0.16626   0.00000  Uiso   1.00
C276   C     0.63136   0.01079   0.28526   0.00000  Uiso   1.00
C277   C     0.83259   0.35208   0.06735   0.00000  Uiso   1.00
C278   C     0.83585   0.35544   0.01715   0.00000  Uiso   1.00
C279   C     0.81082   0.05892   0.16667   0.00000  Uiso   1.00
C280   C     0.50214   0.28967   0.02373   0.00000  Uiso   1.00
H281   H     0.88623   0.23682   0.06801   0.00000  Uiso   1.00
H282   H     0.58330   0.32070   0.32829   0.00000  Uiso   1.00
H283   H     0.62135   0.27060   0.05844   0.00000  Uiso   1.00
H284   H     0.62637   0.27222   0.11718   0.00000  Uiso   1.00
H285   H     0.69029   0.32529   0.10763   0.00000  Uiso   1.00
H286   H     0.69661   0.27041   0.08301   0.00000  Uiso   1.00
H287   H     0.68508   0.31838   0.04830   0.00000  Uiso   1.00
H288   H     0.99077   0.08756   0.20108   0.00000  Uiso   1.00
H289   H     0.94337   0.05843   0.18545   0.00000  Uiso   1.00
H290   H     0.93334   0.03284   0.26380   0.00000  Uiso   1.00
H291   H     0.98157   0.01273   0.23893   0.00000  Uiso   1.00
H292   H     0.86954   0.22725   0.12384   0.00000  Uiso   1.00
H293   H     0.98289   0.05866   0.27883   0.00000  Uiso   1.00
H294   H     0.64172   0.20994   0.23348   0.00000  Uiso   1.00
H295   H     0.65344   0.17292   0.27977   0.00000  Uiso   1.00
H296   H     0.59067   0.20903   0.32051   0.00000  Uiso   1.00
H297   H     0.63305   0.24750   0.30813   0.00000  Uiso   1.00
H298   H     0.58618   0.24773   0.27444   0.00000  Uiso   1.00
H299   H     0.97238   0.42068   0.09459   0.00000  Uiso   1.00
H300   H     0.92201   0.44317   0.10718   0.00000  Uiso   1.00
H301   H     0.89783   0.43309   0.03161   0.00000  Uiso   1.00
H302   H     0.94821   0.46138   0.02959   0.00000  Uiso   1.00
H303   H     0.80652   0.18326   0.09399   0.00000  Uiso   1.00
H304   H     0.94424   0.40185   0.01584   0.00000  Uiso   1.00
H305   H     0.86545   0.27422   0.21741   0.00000  Uiso   1.00
H306   H     0.83439   0.30549   0.25778   0.00000  Uiso   1.00
H307   H     0.88565   0.27875   0.31746   0.00000  Uiso   1.00
H308   H     0.85773   0.23325   0.28966   0.00000  Uiso   1.00
H309   H     0.91177   0.24531   0.27535   0.00000  Uiso   1.00
H310   H     0.55041   0.09096   0.07685   0.00000  Uiso   1.00
H311   H     0.60413   0.07417   0.07762   0.00000  Uiso   1.00
H312   H     0.61936   0.10746   0.00686   0.00000  Uiso   1.00
H313   H     0.57092   0.07516   0.00163   0.00000  Uiso   1.00
H314   H     0.80854   0.24143   0.07526   0.00000  Uiso   1.00
H315   H     0.56967   0.13630   0.00566   0.00000  Uiso   1.00
H316   H     0.63622   0.48682   0.06801   0.00000  Uiso   1.00
H317   H     0.61954   0.47725   0.12384   0.00000  Uiso   1.00
H318   H     0.55652   0.43326   0.09399   0.00000  Uiso   1.00
H319   H     0.55854   0.49143   0.07527   0.00000  Uiso   1.00
H320   H     0.57393   0.44631   0.03797   0.00000  Uiso   1.00
H321   H     0.82229   0.13558   0.27460   0.00000  Uiso   1.00
H322   H     0.87777   0.14519   0.27597   0.00000  Uiso   1.00
H323   H     0.88876   0.08353   0.32725   0.00000  Uiso   1.00
H324   H     0.85219   0.12522   0.01542   0.00000  Uiso   1.00
H325   H     0.82393   0.19631   0.03797   0.00000  Uiso   1.00
H326   H     0.83330   0.07070   0.32829   0.00000  Uiso   1.00
H327   H     0.87135   0.02060   0.05845   0.00000  Uiso   1.00
H328   H     0.87637   0.02222   0.11718   0.00000  Uiso   1.00
H329   H     0.94029   0.07529   0.10763   0.00000  Uiso   1.00
H330   H     0.94661   0.02041   0.08302   0.00000  Uiso   1.00
H331   H     0.93508   0.06838   0.04830   0.00000  Uiso   1.00
H332   H     0.74077   0.33756   0.20108   0.00000  Uiso   1.00
H333   H     0.69337   0.30843   0.18544   0.00000  Uiso   1.00
H334   H     0.68334   0.28283   0.26379   0.00000  Uiso   1.00
H335   H     0.73157   0.26273   0.23893   0.00000  Uiso   1.00
H336   H     0.57229   0.38558   0.27459   0.00000  Uiso   1.00
H337   H     0.73289   0.30866   0.27883   0.00000  Uiso   1.00
H338   H     0.89172   0.45994   0.23348   0.00000  Uiso   1.00
H339   H     0.90344   0.42292   0.27977   0.00000  Uiso   1.00
H340   H     0.84067   0.45903   0.32051   0.00000  Uiso   1.00
H341   H     0.88305   0.49750   0.30813   0.00000  Uiso   1.00
H342   H     0.83618   0.49773   0.27444   0.00000  Uiso   1.00
H343   H     0.72238   0.17068   0.09459   0.00000  Uiso   1.00
H344   H     0.67201   0.19317   0.10718   0.00000  Uiso   1.00
H345   H     0.64782   0.18308   0.03161   0.00000  Uiso   1.00
H346   H     0.69821   0.21138   0.02958   0.00000  Uiso   1.00
H347   H     0.62777   0.39519   0.27597   0.00000  Uiso   1.00
H348   H     0.69425   0.15185   0.01583   0.00000  Uiso   1.00
H349   H     0.61545   0.02422   0.21741   0.00000  Uiso   1.00
H350   H     0.58439   0.05549   0.25778   0.00000  Uiso   1.00
H351   H     0.63565   0.02875   0.31746   0.00000  Uiso   1.00
H352   H     0.60773   0.48325   0.28966   0.00000  Uiso   1.00
H353   H     0.66177   0.49532   0.27535   0.00000  Uiso   1.00
H354   H     0.80041   0.34096   0.07685   0.00000  Uiso   1.00
H355   H     0.85413   0.32417   0.07762   0.00000  Uiso   1.00
H356   H     0.86937   0.35746   0.00686   0.00000  Uiso   1.00
H357   H     0.82092   0.32516   0.00163   0.00000  Uiso   1.00
H358   H     0.63876   0.33353   0.32726   0.00000  Uiso   1.00
H359   H     0.81967   0.38630   0.00566   0.00000  Uiso   1.00
H360   H     0.60218   0.37523   0.01542   0.00000  Uiso   1.00
N361   N     0.50000   0.25000   0.28573   0.00000  Uiso   1.00
N362   N     0.50000   0.25000   0.04760   0.00000  Uiso   1.00
N363   N     0.75000  -0.00000   0.28573   0.00000  Uiso   1.00
N364   N     0.75000  -0.00000   0.04760   0.00000  Uiso   1.00
O365   O     0.54581   0.20419   0.20487   0.00000  Uiso   1.00
O366   O     0.70420   0.04581   0.12846   0.00000  Uiso   1.00
O367   O     0.70420   0.04581   0.20487   0.00000  Uiso   1.00
O368   O     0.79581   0.45419   0.12846   0.00000  Uiso   1.00
O369   O     0.70420   0.45419   0.12846   0.00000  Uiso   1.00
O370   O     0.79581   0.04581   0.20487   0.00000  Uiso   1.00
O371   O     0.79581   0.04581   0.12846   0.00000  Uiso   1.00
O372   O     0.70420   0.45419   0.20487   0.00000  Uiso   1.00
O373   O     0.89075   0.16994   0.08669   0.00000  Uiso   1.00
O374   O     0.60680   0.33304   0.24614   0.00000  Uiso   1.00
O375   O     0.60682   0.33294   0.08564   0.00000  Uiso   1.00
O376   O     0.95420   0.29581   0.12846   0.00000  Uiso   1.00
O377   O     0.93751   0.11619   0.22900   0.00000  Uiso   1.00
O378   O     0.59674   0.15895   0.24888   0.00000  Uiso   1.00
O379   O     0.92589   0.37123   0.09382   0.00000  Uiso   1.00
O380   O     0.89458   0.33107   0.24729   0.00000  Uiso   1.00
O381   O     0.59102   0.14537   0.08678   0.00000  Uiso   1.00
O382   O     0.64075   0.41994   0.08669   0.00000  Uiso   1.00
O383   O     0.85680   0.08304   0.24614   0.00000  Uiso   1.00
O384   O     0.85682   0.08294   0.08564   0.00000  Uiso   1.00
O385   O     0.68752   0.36619   0.22900   0.00000  Uiso   1.00
O386   O     0.84674   0.40895   0.24888   0.00000  Uiso   1.00
O387   O     0.95420   0.29581   0.20487   0.00000  Uiso   1.00
O388   O     0.67589   0.12123   0.09382   0.00000  Uiso   1.00
O389   O     0.64458   0.08107   0.24729   0.00000  Uiso   1.00
O390   O     0.84102   0.39537   0.08678   0.00000  Uiso   1.00
O391   O     0.54581   0.20419   0.12846   0.00000  Uiso   1.00
O392   O     0.95420   0.20419   0.12846   0.00000  Uiso   1.00
O393   O     0.54581   0.29581   0.20487   0.00000  Uiso   1.00
O394   O     0.54581   0.29581   0.12846   0.00000  Uiso   1.00
O395   O     0.95420   0.20419   0.20487   0.00000  Uiso   1.00
O396   O     0.79581   0.45419   0.20487   0.00000  Uiso   1.00
Zn397  Zn    0.50000   0.25000   0.21771   0.00000  Uiso   1.00
Zn398  Zn    0.50000   0.25000   0.11563   0.00000  Uiso   1.00
Zn399  Zn    0.75000  -0.00000   0.21771   0.00000  Uiso   1.00
Zn400  Zn    0.75000  -0.00000   0.11563   0.00000  Uiso   1.00
Br401  Br    0.01172   0.84563   0.05391   0.00000  Uiso   1.00
Br402  Br    0.00513   0.65434   0.27937   0.00000  Uiso   1.00
Br403  Br    0.48880   0.65425   0.05407   0.00000  Uiso   1.00
Br404  Br    0.49360   0.84635   0.27888   0.00000  Uiso   1.00
Br405  Br    0.26172   0.59563   0.05391   0.00000  Uiso   1.00
Br406  Br    0.25513   0.90434   0.27937   0.00000  Uiso   1.00
Br407  Br    0.23880   0.90425   0.05407   0.00000  Uiso   1.00
Br408  Br    0.24360   0.59635   0.27888   0.00000  Uiso   1.00
C409   C     0.05929   0.68923   0.16675   0.00000  Uiso   1.00
C410   C     0.49976   0.71041   0.30963   0.00000  Uiso   1.00
C411   C     0.49739   0.71040   0.02369   0.00000  Uiso   1.00
C412   C     0.49950   0.78979   0.30958   0.00000  Uiso   1.00
C413   C     0.25214   0.53967   0.02373   0.00000  Uiso   1.00
C414   C     0.24976   0.96041   0.30963   0.00000  Uiso   1.00
C415   C     0.24739   0.96040   0.02369   0.00000  Uiso   1.00
C416   C     0.24950   0.53979   0.30958   0.00000  Uiso   1.00
C417   C     0.38534   0.64588   0.12586   0.00000  Uiso   1.00
C418   C     0.11738   0.85153   0.20547   0.00000  Uiso   1.00
C419   C     0.11145   0.85642   0.12527   0.00000  Uiso   1.00
C420   C     0.44111   0.81097   0.16701   0.00000  Uiso   1.00
C421   C     0.40460   0.62551   0.20085   0.00000  Uiso   1.00
C422   C     0.10862   0.64012   0.20862   0.00000  Uiso   1.00
C423   C     0.39914   0.86940   0.13006   0.00000  Uiso   1.00
C424   C     0.38687   0.85436   0.20825   0.00000  Uiso   1.00
C425   C     0.10973   0.63915   0.12778   0.00000  Uiso   1.00
C426   C     0.13534   0.89588   0.12586   0.00000  Uiso   1.00
C427   C     0.36738   0.60154   0.20547   0.00000  Uiso   1.00
C428   C     0.36145   0.60642   0.12527   0.00000  Uiso   1.00
C429   C     0.15460   0.87550   0.20085   0.00000  Uiso   1.00
C430   C     0.35861   0.89012   0.20862   0.00000  Uiso   1.00
C431   C     0.44079   0.68936   0.16626   0.00000  Uiso   1.00
C432   C     0.14914   0.61940   0.13006   0.00000  Uiso   1.00
C433   C     0.13687   0.60436   0.20825   0.00000  Uiso   1.00
C434   C     0.35973   0.88915   0.12778   0.00000  Uiso   1.00
C435   C     0.09630   0.83964   0.16617   0.00000  Uiso   1.00
C436   C     0.40917   0.65440   0.16462   0.00000  Uiso   1.00
C437   C     0.40903   0.84532   0.16849   0.00000  Uiso   1.00
C438   C     0.09222   0.65542   0.16760   0.00000  Uiso   1.00
C439   C     0.34630   0.58964   0.16617   0.00000  Uiso   1.00
C440   C     0.15918   0.90440   0.16462   0.00000  Uiso   1.00
C441   C     0.15903   0.59532   0.16849   0.00000  Uiso   1.00
C442   C     0.06082   0.80892   0.16667   0.00000  Uiso   1.00
C443   C     0.34222   0.90542   0.16760   0.00000  Uiso   1.00
C444   C     0.36947   0.71215   0.08971   0.00000  Uiso   1.00
C445   C     0.32429   0.70783   0.07316   0.00000  Uiso   1.00
C446   C     0.10304   0.86837   0.27805   0.00000  Uiso   1.00
C447   C     0.10688   0.84808   0.32366   0.00000  Uiso   1.00
C448   C     0.13150   0.79265   0.08652   0.00000  Uiso   1.00
C449   C     0.17861   0.80250   0.08094   0.00000  Uiso   1.00
C450   C     0.45919   0.57702   0.21331   0.00000  Uiso   1.00
C451   C     0.46464   0.54331   0.25115   0.00000  Uiso   1.00
C452   C     0.12777   0.69086   0.26208   0.00000  Uiso   1.00
C453   C     0.30929   0.93922   0.16675   0.00000  Uiso   1.00
C454   C     0.10816   0.72585   0.29321   0.00000  Uiso   1.00
C455   C     0.43850   0.91710   0.08644   0.00000  Uiso   1.00
C456   C     0.43190   0.92908   0.03781   0.00000  Uiso   1.00
C457   C     0.36666   0.79357   0.24943   0.00000  Uiso   1.00
C458   C     0.38136   0.76079   0.28526   0.00000  Uiso   1.00
C459   C     0.08259   0.60208   0.06735   0.00000  Uiso   1.00
C460   C     0.08585   0.60544   0.01715   0.00000  Uiso   1.00
C461   C     0.11947   0.96215   0.08971   0.00000  Uiso   1.00
C462   C     0.07428   0.95783   0.07317   0.00000  Uiso   1.00
C463   C     0.35304   0.61837   0.27806   0.00000  Uiso   1.00
C464   C     0.19111   0.56097   0.16701   0.00000  Uiso   1.00
C465   C     0.35688   0.59808   0.32366   0.00000  Uiso   1.00
C466   C     0.38151   0.54265   0.08652   0.00000  Uiso   1.00
C467   C     0.42861   0.55250   0.08094   0.00000  Uiso   1.00
C468   C     0.20919   0.82702   0.21331   0.00000  Uiso   1.00
C469   C     0.21464   0.79331   0.25115   0.00000  Uiso   1.00
C470   C     0.37777   0.94086   0.26208   0.00000  Uiso   1.00
C471   C     0.35816   0.97585   0.29321   0.00000  Uiso   1.00
C472   C     0.18850   0.66710   0.08644   0.00000  Uiso   1.00
C473   C     0.18190   0.67907   0.03781   0.00000  Uiso   1.00
C474   C     0.11666   0.54357   0.24943   0.00000  Uiso   1.00
C475   C     0.19079   0.93936   0.16626   0.00000  Uiso   1.00
C476   C     0.13136   0.51079   0.28526   0.00000  Uiso   1.00
C477   C     0.33259   0.85208   0.06735   0.00000  Uiso   1.00
C478   C     0.33585   0.85544   0.01715   0.00000  Uiso   1.00
C479   C     0.31082   0.55892   0.16667   0.00000  Uiso   1.00
C480   C     0.00214   0.78967   0.02373   0.00000  Uiso   1.00
H481   H     0.38623   0.73682   0.06801   0.00000  Uiso   1.00
H482   H     0.08330   0.82070   0.32829   0.00000  Uiso   1.00
H483   H     0.12135   0.77060   0.05844   0.00000  Uiso   1.00
H484   H     0.12637   0.77222   0.11718   0.00000  Uiso   1.00
H485   H     0.19029   0.82529   0.10763   0.00000  Uiso   1.00
H486   H     0.19661   0.77041   0.08301   0.00000  Uiso   1.00
H487   H     0.18508   0.81838   0.04830   0.00000  Uiso   1.00
H488   H     0.49077   0.58756   0.20108   0.00000  Uiso   1.00
H489   H     0.44337   0.55843   0.18545   0.00000  Uiso   1.00
H490   H     0.43334   0.53284   0.26380   0.00000  Uiso   1.00
H491   H     0.48157   0.51273   0.23893   0.00000  Uiso   1.00
H492   H     0.36954   0.72725   0.12384   0.00000  Uiso   1.00
H493   H     0.48289   0.55866   0.27883   0.00000  Uiso   1.00
H494   H     0.14172   0.70994   0.23348   0.00000  Uiso   1.00
H495   H     0.15344   0.67292   0.27977   0.00000  Uiso   1.00
H496   H     0.09067   0.70903   0.32051   0.00000  Uiso   1.00
H497   H     0.13305   0.74750   0.30813   0.00000  Uiso   1.00
H498   H     0.08618   0.74773   0.27444   0.00000  Uiso   1.00
H499   H     0.47238   0.92068   0.09459   0.00000  Uiso   1.00
H500   H     0.42201   0.94317   0.10718   0.00000  Uiso   1.00
H501   H     0.39783   0.93309   0.03161   0.00000  Uiso   1.00
H502   H     0.44821   0.96138   0.02959   0.00000  Uiso   1.00
H503   H     0.30652   0.68326   0.09399   0.00000  Uiso   1.00
H504   H     0.44424   0.90185   0.01584   0.00000  Uiso   1.00
H505   H     0.36545   0.77422   0.21741   0.00000  Uiso   1.00
H506   H     0.33439   0.80549   0.25778   0.00000  Uiso   1.00
H507   H     0.38565   0.77875   0.31746   0.00000  Uiso   1.00
H508   H     0.35773   0.73325   0.28966   0.00000  Uiso   1.00
H509   H     0.41177   0.74531   0.27535   0.00000  Uiso   1.00
H510   H     0.05041   0.59096   0.07685   0.00000  Uiso   1.00
H511   H     0.10413   0.57417   0.07762   0.00000  Uiso   1.00
H512   H     0.11936   0.60746   0.00686   0.00000  Uiso   1.00
H513   H     0.07092   0.57516   0.00163   0.00000  Uiso   1.00
H514   H     0.30854   0.74143   0.07526   0.00000  Uiso   1.00
H515   H     0.06967   0.63630   0.00566   0.00000  Uiso   1.00
H516   H     0.13622   0.98682   0.06801   0.00000  Uiso   1.00
H517   H     0.11954   0.97725   0.12384   0.00000  Uiso   1.00
H518   H     0.05652   0.93326   0.09399   0.00000  Uiso   1.00
H519   H     0.05854   0.99143   0.07527   0.00000  Uiso   1.00
H520   H     0.07393   0.94631   0.03797   0.00000  Uiso   1.00
H521   H     0.32229   0.63558   0.27460   0.00000  Uiso   1.00
H522   H     0.37777   0.64519   0.27597   0.00000  Uiso   1.00
H523   H     0.38876   0.58353   0.32725   0.00000  Uiso   1.00
H524   H     0.35219   0.62522   0.01542   0.00000  Uiso   1.00
H525   H     0.32393   0.69631   0.03797   0.00000  Uiso   1.00
H526   H     0.33330   0.57070   0.32829   0.00000  Uiso   1.00
H527   H     0.37135   0.52060   0.05845   0.00000  Uiso   1.00
H528   H     0.37637   0.52222   0.11718   0.00000  Uiso   1.00
H529   H     0.44029   0.57529   0.10763   0.00000  Uiso   1.00
H530   H     0.44661   0.52041   0.08302   0.00000  Uiso   1.00
H531   H     0.43508   0.56838   0.04830   0.00000  Uiso   1.00
H532   H     0.24077   0.83756   0.20108   0.00000  Uiso   1.00
H533   H     0.19337   0.80843   0.18544   0.00000  Uiso   1.00
H534   H     0.18334   0.78283   0.26379   0.00000  Uiso   1.00
H535   H     0.23157   0.76273   0.23893   0.00000  Uiso   1.00
H536   H     0.07229   0.88558   0.27459   0.00000  Uiso   1.00
H537   H     0.23289   0.80866   0.27883   0.00000  Uiso   1.00
H538   H     0.39172   0.95994   0.23348   0.00000  Uiso   1.00
H539   H     0.40344   0.92292   0.27977   0.00000  Uiso   1.00
H540   H     0.34067   0.95903   0.32051   0.00000  Uiso   1.00
H541   H     0.38305   0.99750   0.30813   0.00000  Uiso   1.00
H542   H     0.33618   0.99773   0.27444   0.00000  Uiso   1.00
H543   H     0.22238   0.67068   0.09459   0.00000  Uiso   1.00
H544   H     0.17201   0.69317   0.10718   0.00000  Uiso   1.00
H545   H     0.14782   0.68308   0.03161   0.00000  Uiso   1.00
H546   H     0.19821   0.71138   0.02958   0.00000  Uiso   1.00
H547   H     0.12777   0.89519   0.27597   0.00000  Uiso   1.00
H548   H     0.19425   0.65185   0.01583   0.00000  Uiso   1.00
H549   H     0.11545   0.52422   0.21741   0.00000  Uiso   1.00
H550   H     0.08439   0.55549   0.25778   0.00000  Uiso   1.00
H551   H     0.13565   0.52875   0.31746   0.00000  Uiso   1.00
H552   H     0.10773   0.98325   0.28966   0.00000  Uiso   1.00
H553   H     0.16177   0.99532   0.27535   0.00000  Uiso   1.00
H554   H     0.30041   0.84096   0.07685   0.00000  Uiso   1.00
H555   H     0.35413   0.82417   0.07762   0.00000  Uiso   1.00
H556   H     0.36937   0.85746   0.00686   0.00000  Uiso   1.00
H557   H     0.32092   0.82516   0.00163   0.00000  Uiso   1.00
H558   H     0.13876   0.83353   0.32726   0.00000  Uiso   1.00
H559   H     0.31967   0.88630   0.00566   0.00000  Uiso   1.00
H560   H     0.10218   0.87523   0.01542   0.00000  Uiso   1.00
N561   N     0.00000   0.75000   0.28573   0.00000  Uiso   1.00
N562   N     0.00000   0.75000   0.04760   0.00000  Uiso   1.00
N563   N     0.25000   0.50000   0.28573   0.00000  Uiso   1.00
N564   N     0.25000   0.50000   0.04760   0.00000  Uiso   1.00
O565   O     0.04581   0.70419   0.20487   0.00000  Uiso   1.00
O566   O     0.20420   0.54581   0.12846   0.00000  Uiso   1.00
O567   O     0.20420   0.54581   0.20487   0.00000  Uiso   1.00
O568   O     0.29581   0.95419   0.12846   0.00000  Uiso   1.00
O569   O     0.20420   0.95419   0.12846   0.00000  Uiso   1.00
O570   O     0.29581   0.54581   0.20487   0.00000  Uiso   1.00
O571   O     0.29581   0.54581   0.12846   0.00000  Uiso   1.00
O572   O     0.20420   0.95419   0.20487   0.00000  Uiso   1.00
O573   O     0.39075   0.66994   0.08669   0.00000  Uiso   1.00
O574   O     0.10680   0.83304   0.24614   0.00000  Uiso   1.00
O575   O     0.10682   0.83294   0.08564   0.00000  Uiso   1.00
O576   O     0.45420   0.79581   0.12846   0.00000  Uiso   1.00
O577   O     0.43751   0.61619   0.22900   0.00000  Uiso   1.00
O578   O     0.09674   0.65895   0.24888   0.00000  Uiso   1.00
O579   O     0.42589   0.87123   0.09382   0.00000  Uiso   1.00
O580   O     0.39458   0.83107   0.24729   0.00000  Uiso   1.00
O581   O     0.09102   0.64537   0.08678   0.00000  Uiso   1.00
O582   O     0.14075   0.91994   0.08669   0.00000  Uiso   1.00
O583   O     0.35680   0.58304   0.24614   0.00000  Uiso   1.00
O584   O     0.35682   0.58294   0.08564   0.00000  Uiso   1.00
O585   O     0.18752   0.86619   0.22900   0.00000  Uiso   1.00
O586   O     0.34674   0.90895   0.24888   0.00000  Uiso   1.00
O587   O     0.45420   0.79581   0.20487   0.00000  Uiso   1.00
O588   O     0.17589   0.62123   0.09382   0.00000  Uiso   1.00
O589   O     0.14458   0.58107   0.24729   0.00000  Uiso   1.00
O590   O     0.34102   0.89537   0.08678   0.00000  Uiso   1.00
O591   O     0.04581   0.70419   0.12846   0.00000  Uiso   1.00
O592   O     0.45420   0.70419   0.12846   0.00000  Uiso   1.00
O593   O     0.04581   0.79581   0.20487   0.00000  Uiso   1.00
O594   O     0.04581   0.79581   0.12846   0.00000  Uiso   1.00
O595   O     0.45420   0.70419   0.20487   0.00000  Uiso   1.00
O596   O     0.29581   0.95419   0.20487   0.00000  Uiso   1.00
Zn597  Zn    0.00000   0.75000   0.21771   0.00000  Uiso   1.00
Zn598  Zn    0.00000   0.75000   0.11563   0.00000  Uiso   1.00
Zn599  Zn    0.25000   0.50000   0.21771   0.00000  Uiso   1.00
Zn600  Zn    0.25000   0.50000   0.11563   0.00000  Uiso   1.00
Br601  Br    0.51172   0.84563   0.05391   0.00000  Uiso   1.00
Br602  Br    0.50513   0.65434   0.27937   0.00000  Uiso   1.00
Br603  Br    0.98880   0.65425   0.05407   0.00000  Uiso   1.00
Br604  Br    0.99360   0.84635   0.27888   0.00000  Uiso   1.00
Br605  Br    0.76172   0.59563   0.05391   0.00000  Uiso   1.00
Br606  Br    0.75513   0.90434   0.27937   0.00000  Uiso   1.00
Br607  Br    0.73880   0.90425   0.05407   0.00000  Uiso   1.00
Br608  Br    0.74360   0.59635   0.27888   0.00000  Uiso   1.00
C609   C     0.55929   0.68923   0.16675   0.00000  Uiso   1.00
C610   C     0.99976   0.71041   0.30963   0.00000  Uiso   1.00
C611   C     0.99739   0.71040   0.02369   0.00000  Uiso   1.00
C612   C     0.99950   0.78979   0.30958   0.00000  Uiso   1.00
C613   C     0.75214   0.53967   0.02373   0.00000  Uiso   1.00
C614   C     0.74976   0.96041   0.30963   0.00000  Uiso   1.00
C615   C     0.74739   0.96040   0.02369   0.00000  Uiso   1.00
C616   C     0.74950   0.53979   0.30958   0.00000  Uiso   1.00
C617   C     0.88534   0.64588   0.12586   0.00000  Uiso   1.00
C618   C     0.61738   0.85153   0.20547   0.00000  Uiso   1.00
C619   C     0.61145   0.85642   0.12527   0.00000  Uiso   1.00
C620   C     0.94111   0.81097   0.16701   0.00000  Uiso   1.00
C621   C     0.90460   0.62551   0.20085   0.00000  Uiso   1.00
C622   C     0.60862   0.64012   0.20862   0.00000  Uiso   1.00
C623   C     0.89914   0.86940   0.13006   0.00000  Uiso   1.00
C624   C     0.88687   0.85436   0.20825   0.00000  Uiso   1.00
C625   C     0.60973   0.63915   0.12778   0.00000  Uiso   1.00
C626   C     0.63534   0.89588   0.12586   0.00000  Uiso   1.00
C627   C     0.86738   0.60154   0.20547   0.00000  Uiso   1.00
C628   C     0.86145   0.60642   0.12527   0.00000  Uiso   1.00
C629   C     0.65460   0.87550   0.20085   0.00000  Uiso   1.00
C630   C     0.85861   0.89012   0.20862   0.00000  Uiso   1.00
C631   C     0.94079   0.68936   0.16626   0.00000  Uiso   1.00
C632   C     0.64914   0.61940   0.13006   0.00000  Uiso   1.00
C633   C     0.63687   0.60436   0.20825   0.00000  Uiso   1.00
C634   C     0.85973   0.88915   0.12778   0.00000  Uiso   1.00
C635   C     0.59630   0.83964   0.16617   0.00000  Uiso   1.00
C636   C     0.90917   0.65440   0.16462   0.00000  Uiso   1.00
C637   C     0.90903   0.84532   0.16849   0.00000  Uiso   1.00
C638   C     0.59222   0.65542   0.16760   0.00000  Uiso   1.00
C639   C     0.84630   0.58964   0.16617   0.00000  Uiso   1.00
C640   C     0.65918   0.90440   0.16462   0.00000  Uiso   1.00
C641   C     0.65903   0.59532   0.16849   0.00000  Uiso   1.00
C642   C     0.56082   0.80892   0.16667   0.00000  Uiso   1.00
C643   C     0.84222   0.90542   0.16760   0.00000  Uiso   1.00
C644   C     0.86947   0.71215   0.08971   0.00000  Uiso   1.00
C645   C     0.82429   0.70783   0.07316   0.00000  Uiso   1.00
C646   C     0.60304   0.86837   0.27805   0.00000  Uiso   1.00
C647   C     0.60688   0.84808   0.32366   0.00000  Uiso   1.00
C648   C     0.63150   0.79265   0.08652   0.00000  Uiso   1.00
C649   C     0.67861   0.80250   0.08094   0.00000  Uiso   1.00
C650   C     0.95919   0.57702   0.21331   0.00000  Uiso   1.00
C651   C     0.96464   0.54331   0.25115   0.00000  Uiso   1.00
C652   C     0.62777   0.69086   0.26208   0.00000  Uiso   1.00
C653   C     0.80929   0.93922   0.16675   0.00000  Uiso   1.00
C654   C     0.60816   0.72585   0.29321   0.00000  Uiso   1.00
C655   C     0.93850   0.91710   0.08644   0.00000  Uiso   1.00
C656   C     0.93190   0.92908   0.03781   0.00000  Uiso   1.00
C657   C     0.86666   0.79357   0.24943   0.00000  Uiso   1.00
C658   C     0.88136   0.76079   0.28526   0.00000  Uiso   1.00
C659   C     0.58259   0.60208   0.06735   0.00000  Uiso   1.00
C660   C     0.58585   0.60544   0.01715   0.00000  Uiso   1.00
C661   C     0.61947   0.96215   0.08971   0.00000  Uiso   1.00
C662   C     0.57428   0.95783   0.07317   0.00000  Uiso   1.00
C663   C     0.85304   0.61837   0.27806   0.00000  Uiso   1.00
C664   C     0.69111   0.56097   0.16701   0.00000  Uiso   1.00
C665   C     0.85688   0.59808   0.32366   0.00000  Uiso   1.00
C666   C     0.88151   0.54265   0.08652   0.00000  Uiso   1.00
C667   C     0.92861   0.55250   0.08094   0.00000  Uiso   1.00
C668   C     0.70919   0.82702   0.21331   0.00000  Uiso   1.00
C669   C     0.71464   0.79331   0.25115   0.00000  Uiso   1.00
C670   C     0.87777   0.94086   0.26208   0.00000  Uiso   1.00
C671   C     0.85816   0.97585   0.29321   0.00000  Uiso   1.00
C672   C     0.68850   0.66710   0.08644   0.00000  Uiso   1.00
C673   C     0.68190   0.67907   0.03781   0.00000  Uiso   1.00
C674   C     0.61666   0.54357   0.24943   0.00000  Uiso   1.00
C675   C     0.69079   0.93936   0.16626   0.00000  Uiso   1.00
C676   C     0.63136   0.51079   0.28526   0.00000  Uiso   1.00
C677   C     0.83259   0.85208   0.06735   0.00000  Uiso   1.00
C678   C     0.83585   0.85544   0.01715   0.00000  Uiso   1.00
C679   C     0.81082   0.55892   0.16667   0.00000  Uiso   1.00
C680   C     0.50214   0.78967   0.02373   0.00000  Uiso   1.00
H681   H     0.88623   0.73682   0.06801   0.00000  Uiso   1.00
H682   H     0.58330   0.82070   0.32829   0.00000  Uiso   1.00
H683   H     0.62135   0.77060   0.05844   0.00000  Uiso   1.00
H684   H     0.62637   0.77222   0.11718   0.00000  Uiso   1.00
H685   H     0.69029   0.82529   0.10763   0.00000  Uiso   1.00
H686   H     0.69661   0.77041   0.08301   0.00000  Uiso   1.00
H687   H     0.68508   0.81838   0.04830   0.00000  Uiso   1.00
H688   H     0.99077   0.58756   0.20108   0.00000  Uiso   1.00
H689   H     0.94337   0.55843   0.18545   0.00000  Uiso   1.00
H690   H     0.93334   0.53284   0.26380   0.00000  Uiso   1.00
H691   H     0.98157   0.51273   0.23893   0.00000  Uiso   1.00
H692   H     0.86954   0.72725   0.12384   0.00000  Uiso   1.00
H693   H     0.98289   0.55866   0.27883   0.00000  Uiso   1.00
H694   H     0.64172   0.70994   0.23348   0.00000  Uiso   1.00
H695   H     0.65344   0.67292   0.27977   0.00000  Uiso   1.00
H696   H     0.59067   0.70903   0.32051   0.00000  Uiso   1.00
H697   H     0.63305   0.74750   0.30813   0.00000  Uiso   1.00
H698   H     0.58618   0.74773   0.27444   0.00000  Uiso   1.00
H699   H     0.97238   0.92068   0.09459   0.00000  Uiso   1.00
H700   H     0.92201   0.94317   0.10718   0.00000  Uiso   1.00
H701   H     0.89783   0.93309   0.03161   0.00000  Uiso   1.00
H702   H     0.94821   0.96138   0.02959   0.00000  Uiso   1.00
H703   H     0.80652   0.68326   0.09399   0.00000  Uiso   1.00
H704   H     0.94424   0.90185   0.01584   0.00000  Uiso   1.00
H705   H     0.86545   0.77422   0.21741   0.00000  Uiso   1.00
H706   H     0.83439   0.80549   0.25778   0.00000  Uiso   1.00
H707   H     0.88565   0.77875   0.31746   0.00000  Uiso   1.00
H708   H     0.85773   0.73325   0.28966   0.00000  Uiso   1.00
H709   H     0.91177   0.74531   0.27535   0.00000  Uiso   1.00
H710   H     0.55041   0.59096   0.07685   0.00000  Uiso   1.00
H711   H     0.60413   0.57417   0.07762   0.00000  Uiso   1.00
H712   H     0.61936   0.60746   0.00686   0.00000  Uiso   1.00
H713   H     0.57092   0.57516   0.00163   0.00000  Uiso   1.00
H714   H     0.80854   0.74143   0.07526   0.00000  Uiso   1.00
H715   H     0.56967   0.63630   0.00566   0.00000  Uiso   1.00
H716   H     0.63622   0.98682   0.06801   0.00000  Uiso   1.00
H717   H     0.61954   0.97725   0.12384   0.00000  Uiso   1.00
H718   H     0.55652   0.93326   0.09399   0.00000  Uiso   1.00
H719   H     0.55854   0.99143   0.07527   0.00000  Uiso   1.00
H720   H     0.57393   0.94631   0.03797   0.00000  Uiso   1.00
H721   H     0.82229   0.63558   0.27460   0.00000  Uiso   1.00
H722   H     0.87777   0.64519   0.27597   0.00000  Uiso   1.00
H723   H     0.88876   0.58353   0.32725   0.00000  Uiso   1.00
H724   H     0.85219   0.62522   0.01542   0.00000  Uiso   1.00
H725   H     0.82393   0.69631   0.03797   0.00000  Uiso   1.00
H726   H     0.83330   0.57070   0.32829   0.00000  Uiso   1.00
H727   H     0.87135   0.52060   0.05845   0.00000  Uiso   1.00
H728   H     0.87637   0.52222   0.11718   0.00000  Uiso   1.00
H729   H     0.94029   0.57529   0.10763   0.00000  Uiso   1.00
H730   H     0.94661   0.52041   0.08302   0.00000  Uiso   1.00
H731   H     0.93508   0.56838   0.04830   0.00000  Uiso   1.00
H732   H     0.74077   0.83756   0.20108   0.00000  Uiso   1.00
H733   H     0.69337   0.80843   0.18544   0.00000  Uiso   1.00
H734   H     0.68334   0.78283   0.26379   0.00000  Uiso   1.00
H735   H     0.73157   0.76273   0.23893   0.00000  Uiso   1.00
H736   H     0.57229   0.88558   0.27459   0.00000  Uiso   1.00
H737   H     0.73289   0.80866   0.27883   0.00000  Uiso   1.00
H738   H     0.89172   0.95994   0.23348   0.00000  Uiso   1.00
H739   H     0.90344   0.92292   0.27977   0.00000  Uiso   1.00
H740   H     0.84067   0.95903   0.32051   0.00000  Uiso   1.00
H741   H     0.88305   0.99750   0.30813   0.00000  Uiso   1.00
H742   H     0.83618   0.99773   0.27444   0.00000  Uiso   1.00
H743   H     0.72238   0.67068   0.09459   0.00000  Uiso   1.00
H744   H     0.67201   0.69317   0.10718   0.00000  Uiso   1.00
H745   H     0.64782   0.68308   0.03161   0.00000  Uiso   1.00
H746   H     0.69821   0.71138   0.02958   0.00000  Uiso   1.00
H747   H     0.62777   0.89519   0.27597   0.00000  Uiso   1.00
H748   H     0.69425   0.65185   0.01583   0.00000  Uiso   1.00
H749   H     0.61545   0.52422   0.21741   0.00000  Uiso   1.00
H750   H     0.58439   0.55549   0.25778   0.00000  Uiso   1.00
H751   H     0.63565   0.52875   0.31746   0.00000  Uiso   1.00
H752   H     0.60773   0.98325   0.28966   0.00000  Uiso   1.00
H753   H     0.66177   0.99532   0.27535   0.00000  Uiso   1.00
H754   H     0.80041   0.84096   0.07685   0.00000  Uiso   1.00
H755   H     0.85413   0.82417   0.07762   0.00000  Uiso   1.00
H756   H     0.86937   0.85746   0.00686   0.00000  Uiso   1.00
H757   H     0.82092   0.82516   0.00163   0.00000  Uiso   1.00
H758   H     0.63876   0.83353   0.32726   0.00000  Uiso   1.00
H759   H     0.81967   0.88630   0.00566   0.00000  Uiso   1.00
H760   H     0.60218   0.87523   0.01542   0.00000  Uiso   1.00
N761   N     0.50000   0.75000   0.28573   0.00000  Uiso   1.00
N762   N     0.50000   0.75000   0.04760   0.00000  Uiso   1.00
N763   N     0.75000   0.50000   0.28573   0.00000  Uiso   1.00
N764   N     0.75000   0.50000   0.04760   0.00000  Uiso   1.00
O765   O     0.54581   0.70419   0.20487   0.00000  Uiso   1.00
O766   O     0.70420   0.54581   0.12846   0.00000  Uiso   1.00
O767   O     0.70420   0.54581   0.20487   0.00000  Uiso   1.00
O768   O     0.79581   0.95419   0.12846   0.00000  Uiso   1.00
O769   O     0.70420   0.95419   0.12846   0.00000  Uiso   1.00
O770   O     0.79581   0.54581   0.20487   0.00000  Uiso   1.00
O771   O     0.79581   0.54581   0.12846   0.00000  Uiso   1.00
O772   O     0.70420   0.95419   0.20487   0.00000  Uiso   1.00
O773   O     0.89075   0.66994   0.08669   0.00000  Uiso   1.00
O774   O     0.60680   0.83304   0.24614   0.00000  Uiso   1.00
O775   O     0.60682   0.83294   0.08564   0.00000  Uiso   1.00
O776   O     0.95420   0.79581   0.12846   0.00000  Uiso   1.00
O777   O     0.93751   0.61619   0.22900   0.00000  Uiso   1.00
O778   O     0.59674   0.65895   0.24888   0.00000  Uiso   1.00
O779   O     0.92589   0.87123   0.09382   0.00000  Uiso   1.00
O780   O     0.89458   0.83107   0.24729   0.00000  Uiso   1.00
O781   O     0.59102   0.64537   0.08678   0.00000  Uiso   1.00
O782   O     0.64075   0.91994   0.08669   0.00000  Uiso   1.00
O783   O     0.85680   0.58304   0.24614   0.00000  Uiso   1.00
O784   O     0.85682   0.58294   0.08564   0.00000  Uiso   1.00
O785   O     0.68752   0.86619   0.22900   0.00000  Uiso   1.00
O786   O     0.84674   0.90895   0.24888   0.00000  Uiso   1.00
O787   O     0.95420   0.79581   0.20487   0.00000  Uiso   1.00
O788   O     0.67589   0.62123   0.09382   0.00000  Uiso   1.00
O789   O     0.64458   0.58107   0.24729   0.00000  Uiso   1.00
O790   O     0.84102   0.89537   0.08678   0.00000  Uiso   1.00
O791   O     0.54581   0.70419   0.12846   0.00000  Uiso   1.00
O792   O     0.95420   0.70419   0.12846   0.00000  Uiso   1.00
O793   O     0.54581   0.79581   0.20487   0.00000  Uiso   1.00
O794   O     0.54581   0.79581   0.12846   0.00000  Uiso   1.00
O795   O     0.95420   0.70419   0.20487   0.00000  Uiso   1.00
O796   O     0.79581   0.95419   0.20487   0.00000  Uiso   1.00
Zn797  Zn    0.50000   0.75000   0.21771   0.00000  Uiso   1.00
Zn798  Zn    0.50000   0.75000   0.11563   0.00000  Uiso   1.00
Zn799  Zn    0.75000   0.50000   0.21771   0.00000  Uiso   1.00
Zn800  Zn    0.75000   0.50000   0.11563   0.00000  Uiso   1.00
Br801  Br    0.01172   0.34563   0.38724   0.00000  Uiso   1.00
Br802  Br    0.00513   0.15434   0.61270   0.00000  Uiso   1.00
Br803  Br    0.48880   0.15425   0.38741   0.00000  Uiso   1.00
Br804  Br    0.49360   0.34635   0.61221   0.00000  Uiso   1.00
Br805  Br    0.26172   0.09563   0.38724   0.00000  Uiso   1.00
Br806  Br    0.25513   0.40434   0.61270   0.00000  Uiso   1.00
Br807  Br    0.23880   0.40425   0.38741   0.00000  Uiso   1.00
Br808  Br    0.24360   0.09635   0.61221   0.00000  Uiso   1.00
C809   C     0.05929   0.18923   0.50008   0.00000  Uiso   1.00
C810   C     0.49976   0.21041   0.64296   0.00000  Uiso   1.00
C811   C     0.49739   0.21040   0.35703   0.00000  Uiso   1.00
C812   C     0.49950   0.28979   0.64291   0.00000  Uiso   1.00
C813   C     0.25214   0.03967   0.35706   0.00000  Uiso   1.00
C814   C     0.24976   0.46041   0.64296   0.00000  Uiso   1.00
C815   C     0.24739   0.46040   0.35703   0.00000  Uiso   1.00
C816   C     0.24950   0.03979   0.64291   0.00000  Uiso   1.00
C817   C     0.38534   0.14588   0.45919   0.00000  Uiso   1.00
C818   C     0.11738   0.35153   0.53880   0.00000  Uiso   1.00
C819   C     0.11145   0.35642   0.45860   0.00000  Uiso   1.00
C820   C     0.44111   0.31097   0.50034   0.00000  Uiso   1.00
C821   C     0.40460   0.12551   0.53418   0.00000  Uiso   1.00
C822   C     0.10862   0.14012   0.54196   0.00000  Uiso   1.00
C823   C     0.39914   0.36940   0.46339   0.00000  Uiso   1.00
C824   C     0.38687   0.35436   0.54158   0.00000  Uiso   1.00
C825   C     0.10973   0.13915   0.46111   0.00000  Uiso   1.00
C826   C     0.13534   0.39588   0.45919   0.00000  Uiso   1.00
C827   C     0.36738   0.10154   0.53880   0.00000  Uiso   1.00
C828   C     0.36145   0.10642   0.45860   0.00000  Uiso   1.00
C829   C     0.15460   0.37550   0.53418   0.00000  Uiso   1.00
C830   C     0.35861   0.39012   0.54196   0.00000  Uiso   1.00
C831   C     0.44079   0.18936   0.49960   0.00000  Uiso   1.00
C832   C     0.14914   0.11940   0.46339   0.00000  Uiso   1.00
C833   C     0.13687   0.10436   0.54158   0.00000  Uiso   1.00
C834   C     0.35973   0.38915   0.46111   0.00000  Uiso   1.00
C835   C     0.09630   0.33964   0.49951   0.00000  Uiso   1.00
C836   C     0.40917   0.15440   0.49795   0.00000  Uiso   1.00
C837   C     0.40903   0.34532   0.50183   0.00000  Uiso   1.00
C838   C     0.09222   0.15542   0.50094   0.00000  Uiso   1.00
C839   C     0.34630   0.08964   0.49951   0.00000  Uiso   1.00
C840   C     0.15918   0.40440   0.49795   0.00000  Uiso   1.00
C841   C     0.15903   0.09532   0.50183   0.00000  Uiso   1.00
C842   C     0.06082   0.30892   0.50000   0.00000  Uiso   1.00
C843   C     0.34222   0.40542   0.50094   0.00000  Uiso   1.00
C844   C     0.36947   0.21215   0.42304   0.00000  Uiso   1.00
C845   C     0.32429   0.20783   0.40650   0.00000  Uiso   1.00
C846   C     0.10304   0.36837   0.61139   0.00000  Uiso   1.00
C847   C     0.10688   0.34808   0.65699   0.00000  Uiso   1.00
C848   C     0.13150   0.29265   0.41985   0.00000  Uiso   1.00
C849   C     0.17861   0.30250   0.41427   0.00000  Uiso   1.00
C850   C     0.45919   0.07702   0.54664   0.00000  Uiso   1.00
C851   C     0.46464   0.04331   0.58449   0.00000  Uiso   1.00
C852   C     0.12777   0.19086   0.59541   0.00000  Uiso   1.00
C853   C     0.30929   0.43922   0.50008   0.00000  Uiso   1.00
C854   C     0.10816   0.22585   0.62654   0.00000  Uiso   1.00
C855   C     0.43850   0.41710   0.41977   0.00000  Uiso   1.00
C856   C     0.43190   0.42908   0.37114   0.00000  Uiso   1.00
C857   C     0.36666   0.29357   0.58276   0.00000  Uiso   1.00
C858   C     0.38136   0.26079   0.61860   0.00000  Uiso   1.00
C859   C     0.08259   0.10208   0.40069   0.00000  Uiso   1.00
C860   C     0.08585   0.10544   0.35049   0.00000  Uiso   1.00
C861   C     0.11947   0.46215   0.42305   0.00000  Uiso   1.00
C862   C     0.07428   0.45783   0.40650   0.00000  Uiso   1.00
C863   C     0.35304   0.11837   0.61139   0.00000  Uiso   1.00
C864   C     0.19111   0.06097   0.50034   0.00000  Uiso   1.00
C865   C     0.35688   0.09808   0.65699   0.00000  Uiso   1.00
C866   C     0.38151   0.04265   0.41985   0.00000  Uiso   1.00
C867   C     0.42861   0.05250   0.41427   0.00000  Uiso   1.00
C868   C     0.20919   0.32702   0.54664   0.00000  Uiso   1.00
C869   C     0.21464   0.29331   0.58449   0.00000  Uiso   1.00
C870   C     0.37777   0.44086   0.59541   0.00000  Uiso   1.00
C871   C     0.35816   0.47585   0.62654   0.00000  Uiso   1.00
C872   C     0.18850   0.16710   0.41977   0.00000  Uiso   1.00
C873   C     0.18190   0.17907   0.37114   0.00000  Uiso   1.00
C874   C     0.11666   0.04357   0.58276   0.00000  Uiso   1.00
C875   C     0.19079   0.43936   0.49960   0.00000  Uiso   1.00
C876   C     0.13136   0.01079   0.61860   0.00000  Uiso   1.00
C877   C     0.33259   0.35208   0.40069   0.00000  Uiso   1.00
C878   C     0.33585   0.35544   0.35049   0.00000  Uiso   1.00
C879   C     0.31082   0.05892   0.50000   0.00000  Uiso   1.00
C880   C     0.00214   0.28967   0.35706   0.00000  Uiso   1.00
H881   H     0.38623   0.23682   0.40134   0.00000  Uiso   1.00
H882   H     0.08330   0.32070   0.66162   0.00000  Uiso   1.00
H883   H     0.12135   0.27060   0.39178   0.00000  Uiso   1.00
H884   H     0.12637   0.27222   0.45051   0.00000  Uiso   1.00
H885   H     0.19029   0.32529   0.44096   0.00000  Uiso   1.00
H886   H     0.19661   0.27041   0.41635   0.00000  Uiso   1.00
H887   H     0.18508   0.31838   0.38164   0.00000  Uiso   1.00
H888   H     0.49077   0.08756   0.53441   0.00000  Uiso   1.00
H889   H     0.44337   0.05843   0.51878   0.00000  Uiso   1.00
H890   H     0.43334   0.03284   0.59713   0.00000  Uiso   1.00
H891   H     0.48157   0.01273   0.57226   0.00000  Uiso   1.00
H892   H     0.36954   0.22725   0.45717   0.00000  Uiso   1.00
H893   H     0.48289   0.05866   0.61216   0.00000  Uiso   1.00
H894   H     0.14172   0.20994   0.56681   0.00000  Uiso   1.00
H895   H     0.15344   0.17292   0.61310   0.00000  Uiso   1.00
H896   H     0.09067   0.20903   0.65385   0.00000  Uiso   1.00
H897   H     0.13305   0.24750   0.64146   0.00000  Uiso   1.00
H898   H     0.08618   0.24773   0.60777   0.00000  Uiso   1.00
H899   H     0.47238   0.42068   0.42793   0.00000  Uiso   1.00
H900   H     0.42201   0.44317   0.44052   0.00000  Uiso   1.00
H901   H     0.39783   0.43309   0.36495   0.00000  Uiso   1.00
H902   H     0.44821   0.46138   0.36292   0.00000  Uiso   1.00
H903   H     0.30652   0.18326   0.42732   0.00000  Uiso   1.00
H904   H     0.44424   0.40185   0.34917   0.00000  Uiso   1.00
H905   H     0.36545   0.27422   0.55074   0.00000  Uiso   1.00
H906   H     0.33439   0.30549   0.59112   0.00000  Uiso   1.00
H907   H     0.38565   0.27875   0.65079   0.00000  Uiso   1.00
H908   H     0.35773   0.23325   0.62299   0.00000  Uiso   1.00
H909   H     0.41177   0.24531   0.60868   0.00000  Uiso   1.00
H910   H     0.05041   0.09096   0.41018   0.00000  Uiso   1.00
H911   H     0.10413   0.07417   0.41095   0.00000  Uiso   1.00
H912   H     0.11936   0.10746   0.34019   0.00000  Uiso   1.00
H913   H     0.07092   0.07516   0.33496   0.00000  Uiso   1.00
H914   H     0.30854   0.24143   0.40860   0.00000  Uiso   1.00
H915   H     0.06967   0.13630   0.33899   0.00000  Uiso   1.00
H916   H     0.13622   0.48682   0.40134   0.00000  Uiso   1.00
H917   H     0.11954   0.47725   0.45717   0.00000  Uiso   1.00
H918   H     0.05652   0.43326   0.42733   0.00000  Uiso   1.00
H919   H     0.05854   0.49143   0.40860   0.00000  Uiso   1.00
H920   H     0.07393   0.44631   0.37131   0.00000  Uiso   1.00
H921   H     0.32229   0.13558   0.60793   0.00000  Uiso   1.00
H922   H     0.37777   0.14519   0.60930   0.00000  Uiso   1.00
H923   H     0.38876   0.08353   0.66059   0.00000  Uiso   1.00
H924   H     0.35219   0.12522   0.34875   0.00000  Uiso   1.00
H925   H     0.32393   0.19631   0.37130   0.00000  Uiso   1.00
H926   H     0.33330   0.07070   0.66162   0.00000  Uiso   1.00
H927   H     0.37135   0.02060   0.39178   0.00000  Uiso   1.00
H928   H     0.37637   0.02222   0.45051   0.00000  Uiso   1.00
H929   H     0.44029   0.07529   0.44096   0.00000  Uiso   1.00
H930   H     0.44661   0.02041   0.41635   0.00000  Uiso   1.00
H931   H     0.43508   0.06838   0.38164   0.00000  Uiso   1.00
H932   H     0.24077   0.33756   0.53441   0.00000  Uiso   1.00
H933   H     0.19337   0.30843   0.51878   0.00000  Uiso   1.00
H934   H     0.18334   0.28283   0.59712   0.00000  Uiso   1.00
H935   H     0.23157   0.26273   0.57226   0.00000  Uiso   1.00
H936   H     0.07229   0.38558   0.60793   0.00000  Uiso   1.00
H937   H     0.23289   0.30866   0.61216   0.00000  Uiso   1.00
H938   H     0.39172   0.45994   0.56682   0.00000  Uiso   1.00
H939   H     0.40344   0.42292   0.61311   0.00000  Uiso   1.00
H940   H     0.34067   0.45903   0.65385   0.00000  Uiso   1.00
H941   H     0.38305   0.49750   0.64146   0.00000  Uiso   1.00
H942   H     0.33618   0.49773   0.60777   0.00000  Uiso   1.00
H943   H     0.22238   0.17068   0.42792   0.00000  Uiso   1.00
H944   H     0.17201   0.19317   0.44051   0.00000  Uiso   1.00
H945   H     0.14782   0.18308   0.36494   0.00000  Uiso   1.00
H946   H     0.19821   0.21138   0.36292   0.00000  Uiso   1.00
H947   H     0.12777   0.39519   0.60930   0.00000  Uiso   1.00
H948   H     0.19425   0.15185   0.34917   0.00000  Uiso   1.00
H949   H     0.11545   0.02422   0.55074   0.00000  Uiso   1.00
H950   H     0.08439   0.05549   0.59112   0.00000  Uiso   1.00
H951   H     0.13565   0.02875   0.65079   0.00000  Uiso   1.00
H952   H     0.10773   0.48325   0.62299   0.00000  Uiso   1.00
H953   H     0.16177   0.49532   0.60868   0.00000  Uiso   1.00
H954   H     0.30041   0.34096   0.41018   0.00000  Uiso   1.00
H955   H     0.35413   0.32417   0.41095   0.00000  Uiso   1.00
H956   H     0.36937   0.35746   0.34019   0.00000  Uiso   1.00
H957   H     0.32092   0.32516   0.33496   0.00000  Uiso   1.00
H958   H     0.13876   0.33353   0.66059   0.00000  Uiso   1.00
H959   H     0.31967   0.38630   0.33899   0.00000  Uiso   1.00
H960   H     0.10218   0.37523   0.34875   0.00000  Uiso   1.00
N961   N     0.00000   0.25000   0.61907   0.00000  Uiso   1.00
N962   N     0.00000   0.25000   0.38093   0.00000  Uiso   1.00
N963   N     0.25000  -0.00000   0.61907   0.00000  Uiso   1.00
N964   N     0.25000  -0.00000   0.38093   0.00000  Uiso   1.00
O965   O     0.04581   0.20419   0.53821   0.00000  Uiso   1.00
O966   O     0.20420   0.04581   0.46179   0.00000  Uiso   1.00
O967   O     0.20420   0.04581   0.53821   0.00000  Uiso   1.00
O968   O     0.29581   0.45419   0.46179   0.00000  Uiso   1.00
O969   O     0.20420   0.45419   0.46179   0.00000  Uiso   1.00
O970   O     0.29581   0.04581   0.53821   0.00000  Uiso   1.00
O971   O     0.29581   0.04581   0.46179   0.00000  Uiso   1.00
O972   O     0.20420   0.45419   0.53821   0.00000  Uiso   1.00
O973   O     0.39075   0.16994   0.42003   0.00000  Uiso   1.00
O974   O     0.10680   0.33304   0.57947   0.00000  Uiso   1.00
O975   O     0.10682   0.33294   0.41897   0.00000  Uiso   1.00
O976   O     0.45420   0.29581   0.46179   0.00000  Uiso   1.00
O977   O     0.43751   0.11619   0.56234   0.00000  Uiso   1.00
O978   O     0.09674   0.15895   0.58222   0.00000  Uiso   1.00
O979   O     0.42589   0.37123   0.42716   0.00000  Uiso   1.00
O980   O     0.39458   0.33107   0.58063   0.00000  Uiso   1.00
O981   O     0.09102   0.14537   0.42011   0.00000  Uiso   1.00
O982   O     0.14075   0.41994   0.42003   0.00000  Uiso   1.00
O983   O     0.35680   0.08304   0.57947   0.00000  Uiso   1.00
O984   O     0.35682   0.08294   0.41897   0.00000  Uiso   1.00
O985   O     0.18752   0.36619   0.56234   0.00000  Uiso   1.00
O986   O     0.34674   0.40895   0.58222   0.00000  Uiso   1.00
O987   O     0.45420   0.29581   0.53821   0.00000  Uiso   1.00
O988   O     0.17589   0.12123   0.42716   0.00000  Uiso   1.00
O989   O     0.14458   0.08107   0.58063   0.00000  Uiso   1.00
O990   O     0.34102   0.39537   0.42011   0.00000  Uiso   1.00
O991   O     0.04581   0.20419   0.46179   0.00000  Uiso   1.00
O992   O     0.45420   0.20419   0.46179   0.00000  Uiso   1.00
O993   O     0.04581   0.29581   0.53821   0.00000  Uiso   1.00
O994   O     0.04581   0.29581   0.46179   0.00000  Uiso   1.00
O995   O     0.45420   0.20419   0.53821   0.00000  Uiso   1.00
O996   O     0.29581   0.45419   0.53821   0.00000  Uiso   1.00
Zn997  Zn    0.00000   0.25000   0.55104   0.00000  Uiso   1.00
Zn998  Zn    0.00000   0.25000   0.44896   0.00000  Uiso   1.00
Zn999  Zn    0.25000  -0.00000   0.55104   0.00000  Uiso   1.00
Zn1000 Zn    0.25000  -0.00000   0.44896   0.00000  Uiso   1.00
Br1001 Br    0.51172   0.34563   0.38724   0.00000  Uiso   1.00
Br1002 Br    0.50513   0.15434   0.61270   0.00000  Uiso   1.00
Br1003 Br    0.98880   0.15425   0.38741   0.00000  Uiso   1.00
Br1004 Br    0.99360   0.34635   0.61221   0.00000  Uiso   1.00
Br1005 Br    0.76172   0.09563   0.38724   0.00000  Uiso   1.00
Br1006 Br    0.75513   0.40434   0.61270   0.00000  Uiso   1.00
Br1007 Br    0.73880   0.40425   0.38741   0.00000  Uiso   1.00
Br1008 Br    0.74360   0.09635   0.61221   0.00000  Uiso   1.00
C1009  C     0.55929   0.18923   0.50008   0.00000  Uiso   1.00
C1010  C     0.99976   0.21041   0.64296   0.00000  Uiso   1.00
C1011  C     0.99739   0.21040   0.35703   0.00000  Uiso   1.00
C1012  C     0.99950   0.28979   0.64291   0.00000  Uiso   1.00
C1013  C     0.75214   0.03967   0.35706   0.00000  Uiso   1.00
C1014  C     0.74976   0.46041   0.64296   0.00000  Uiso   1.00
C1015  C     0.74739   0.46040   0.35703   0.00000  Uiso   1.00
C1016  C     0.74950   0.03979   0.64291   0.00000  Uiso   1.00
C1017  C     0.88534   0.14588   0.45919   0.00000  Uiso   1.00
C1018  C     0.61738   0.35153   0.53880   0.00000  Uiso   1.00
C1019  C     0.61145   0.35642   0.45860   0.00000  Uiso   1.00
C1020  C     0.94111   0.31097   0.50034   0.00000  Uiso   1.00
C1021  C     0.90460   0.12551   0.53418   0.00000  Uiso   1.00
C1022  C     0.60862   0.14012   0.54196   0.00000  Uiso   1.00
C1023  C     0.89914   0.36940   0.46339   0.00000  Uiso   1.00
C1024  C     0.88687   0.35436   0.54158   0.00000  Uiso   1.00
C1025  C     0.60973   0.13915   0.46111   0.00000  Uiso   1.00
C1026  C     0.63534   0.39588   0.45919   0.00000  Uiso   1.00
C1027  C     0.86738   0.10154   0.53880   0.00000  Uiso   1.00
C1028  C     0.86145   0.10642   0.45860   0.00000  Uiso   1.00
C1029  C     0.65460   0.37550   0.53418   0.00000  Uiso   1.00
C1030  C     0.85861   0.39012   0.54196   0.00000  Uiso   1.00
C1031  C     0.94079   0.18936   0.49960   0.00000  Uiso   1.00
C1032  C     0.64914   0.11940   0.46339   0.00000  Uiso   1.00
C1033  C     0.63687   0.10436   0.54158   0.00000  Uiso   1.00
C1034  C     0.85973   0.38915   0.46111   0.00000  Uiso   1.00
C1035  C     0.59630   0.33964   0.49951   0.00000  Uiso   1.00
C1036  C     0.90917   0.15440   0.49795   0.00000  Uiso   1.00
C1037  C     0.90903   0.34532   0.50183   0.00000  Uiso   1.00
C1038  C     0.59222   0.15542   0.50094   0.00000  Uiso   1.00
C1039  C     0.84630   0.08964   0.49951   0.00000  Uiso   1.00
C1040  C     0.65918   0.40440   0.49795   0.00000  Uiso   1.00
C1041  C     0.65903   0.09532   0.50183   0.00000  Uiso   1.00
C1042  C     0.56082   0.30892   0.50000   0.00000  Uiso   1.00
C1043  C     0.84222   0.40542   0.50094   0.00000  Uiso   1.00
C1044  C     0.86947   0.21215   0.42304   0.00000  Uiso   1.00
C1045  C     0.82429   0.20783   0.40650   0.00000  Uiso   1.00
C1046  C     0.60304   0.36837   0.61139   0.00000  Uiso   1.00
C1047  C     0.60688   0.34808   0.65699   0.00000  Uiso   1.00
C1048  C     0.63150   0.29265   0.41985   0.00000  Uiso   1.00
C1049  C     0.67861   0.30250   0.41427   0.00000  Uiso   1.00
C1050  C     0.95919   0.07702   0.54664   0.00000  Uiso   1.00
C1051  C     0.96464   0.04331   0.58449   0.00000  Uiso   1.00
C1052  C     0.62777   0.19086   0.59541   0.00000  Uiso   1.00
C1053  C     0.80929   0.43922   0.50008   0.00000  Uiso   1.00
C1054  C     0.60816   0.22585   0.62654   0.00000  Uiso   1.00
C1055  C     0.93850   0.41710   0.41977   0.00000  Uiso   1.00
C1056  C     0.93190   0.42908   0.37114   0.00000  Uiso   1.00
C1057  C     0.86666   0.29357   0.58276   0.00000  Uiso   1.00
C1058  C     0.88136   0.26079   0.61860   0.00000  Uiso   1.00
C1059  C     0.58259   0.10208   0.40069   0.00000  Uiso   1.00
C1060  C     0.58585   0.10544   0.35049   0.00000  Uiso   1.00
C1061  C     0.61947   0.46215   0.42305   0.00000  Uiso   1.00
C1062  C     0.57428   0.45783   0.40650   0.00000  Uiso   1.00
C1063  C     0.85304   0.11837   0.61139   0.00000  Uiso   1.00
C1064  C     0.69111   0.06097   0.50034   0.00000  Uiso   1.00
C1065  C     0.85688   0.09808   0.65699   0.00000  Uiso   1.00
C1066  C     0.88151   0.04265   0.41985   0.00000  Uiso   1.00
C1067  C     0.92861   0.05250   0.41427   0.00000  Uiso   1.00
C1068  C     0.70919   0.32702   0.54664   0.00000  Uiso   1.00
C1069  C     0.71464   0.29331   0.58449   0.00000  Uiso   1.00
C1070  C     0.87777   0.44086   0.59541   0.00000  Uiso   1.00
C1071  C     0.85816   0.47585   0.62654   0.00000  Uiso   1.00
C1072  C     0.68850   0.16710   0.41977   0.00000  Uiso   1.00
C1073  C     0.68190   0.17907   0.37114   0.00000  Uiso   1.00
C1074  C     0.61666   0.04357   0.58276   0.00000  Uiso   1.00
C1075  C     0.69079   0.43936   0.49960   0.00000  Uiso   1.00
C1076  C     0.63136   0.01079   0.61860   0.00000  Uiso   1.00
C1077  C     0.83259   0.35208   0.40069   0.00000  Uiso   1.00
C1078  C     0.83585   0.35544   0.35049   0.00000  Uiso   1.00
C1079  C     0.81082   0.05892   0.50000   0.00000  Uiso   1.00
C1080  C     0.50214   0.28967   0.35706   0.00000  Uiso   1.00
H1081  H     0.88623   0.23682   0.40134   0.00000  Uiso   1.00
H1082  H     0.58330   0.32070   0.66162   0.00000  Uiso   1.00
H1083  H     0.62135   0.27060   0.39178   0.00000  Uiso   1.00
H1084  H     0.62637   0.27222   0.45051   0.00000  Uiso   1.00
H1085  H     0.69029   0.32529   0.44096   0.00000  Uiso   1.00
H1086  H     0.69661   0.27041   0.41635   0.00000  Uiso   1.00
H1087  H     0.68508   0.31838   0.38164   0.00000  Uiso   1.00
H1088  H     0.99077   0.08756   0.53441   0.00000  Uiso   1.00
H1089  H     0.94337   0.05843   0.51878   0.00000  Uiso   1.00
H1090  H     0.93334   0.03284   0.59713   0.00000  Uiso   1.00
H1091  H     0.98157   0.01273   0.57226   0.00000  Uiso   1.00
H1092  H     0.86954   0.22725   0.45717   0.00000  Uiso   1.00
H1093  H     0.98289   0.05866   0.61216   0.00000  Uiso   1.00
H1094  H     0.64172   0.20994   0.56681   0.00000  Uiso   1.00
H1095  H     0.65344   0.17292   0.61310   0.00000  Uiso   1.00
H1096  H     0.59067   0.20903   0.65385   0.00000  Uiso   1.00
H1097  H     0.63305   0.24750   0.64146   0.00000  Uiso   1.00
H1098  H     0.58618   0.24773   0.60777   0.00000  Uiso   1.00
H1099  H     0.97238   0.42068   0.42793   0.00000  Uiso   1.00
H1100  H     0.92201   0.44317   0.44052   0.00000  Uiso   1.00
H1101  H     0.89783   0.43309   0.36495   0.00000  Uiso   1.00
H1102  H     0.94821   0.46138   0.36292   0.00000  Uiso   1.00
H1103  H     0.80652   0.18326   0.42732   0.00000  Uiso   1.00
H1104  H     0.94424   0.40185   0.34917   0.00000  Uiso   1.00
H1105  H     0.86545   0.27422   0.55074   0.00000  Uiso   1.00
H1106  H     0.83439   0.30549   0.59112   0.00000  Uiso   1.00
H1107  H     0.88565   0.27875   0.65079   0.00000  Uiso   1.00
H1108  H     0.85773   0.23325   0.62299   0.00000  Uiso   1.00
H1109  H     0.91177   0.24531   0.60868   0.00000  Uiso   1.00
H1110  H     0.55041   0.09096   0.41018   0.00000  Uiso   1.00
H1111  H     0.60413   0.07417   0.41095   0.00000  Uiso   1.00
H1112  H     0.61936   0.10746   0.34019   0.00000  Uiso   1.00
H1113  H     0.57092   0.07516   0.33496   0.00000  Uiso   1.00
H1114  H     0.80854   0.24143   0.40860   0.00000  Uiso   1.00
H1115  H     0.56967   0.13630   0.33899   0.00000  Uiso   1.00
H1116  H     0.63622   0.48682   0.40134   0.00000  Uiso   1.00
H1117  H     0.61954   0.47725   0.45717   0.00000  Uiso   1.00
H1118  H     0.55652   0.43326   0.42733   0.00000  Uiso   1.00
H1119  H     0.55854   0.49143   0.40860   0.00000  Uiso   1.00
H1120  H     0.57393   0.44631   0.37131   0.00000  Uiso   1.00
H1121  H     0.82229   0.13558   0.60793   0.00000  Uiso   1.00
H1122  H     0.87777   0.14519   0.60930   0.00000  Uiso   1.00
H1123  H     0.88876   0.08353   0.66059   0.00000  Uiso   1.00
H1124  H     0.85219   0.12522   0.34875   0.00000  Uiso   1.00
H1125  H     0.82393   0.19631   0.37130   0.00000  Uiso   1.00
H1126  H     0.83330   0.07070   0.66162   0.00000  Uiso   1.00
H1127  H     0.87135   0.02060   0.39178   0.00000  Uiso   1.00
H1128  H     0.87637   0.02222   0.45051   0.00000  Uiso   1.00
H1129  H     0.94029   0.07529   0.44096   0.00000  Uiso   1.00
H1130  H     0.94661   0.02041   0.41635   0.00000  Uiso   1.00
H1131  H     0.93508   0.06838   0.38164   0.00000  Uiso   1.00
H1132  H     0.74077   0.33756   0.53441   0.00000  Uiso   1.00
H1133  H     0.69337   0.30843   0.51878   0.00000  Uiso   1.00
H1134  H     0.68334   0.28283   0.59712   0.00000  Uiso   1.00
H1135  H     0.73157   0.26273   0.57226   0.00000  Uiso   1.00
H1136  H     0.57229   0.38558   0.60793   0.00000  Uiso   1.00
H1137  H     0.73289   0.30866   0.61216   0.00000  Uiso   1.00
H1138  H     0.89172   0.45994   0.56682   0.00000  Uiso   1.00
H1139  H     0.90344   0.42292   0.61311   0.00000  Uiso   1.00
H1140  H     0.84067   0.45903   0.65385   0.00000  Uiso   1.00
H1141  H     0.88305   0.49750   0.64146   0.00000  Uiso   1.00
H1142  H     0.83618   0.49773   0.60777   0.00000  Uiso   1.00
H1143  H     0.72238   0.17068   0.42792   0.00000  Uiso   1.00
H1144  H     0.67201   0.19317   0.44051   0.00000  Uiso   1.00
H1145  H     0.64782   0.18308   0.36494   0.00000  Uiso   1.00
H1146  H     0.69821   0.21138   0.36292   0.00000  Uiso   1.00
H1147  H     0.62777   0.39519   0.60930   0.00000  Uiso   1.00
H1148  H     0.69425   0.15185   0.34917   0.00000  Uiso   1.00
H1149  H     0.61545   0.02422   0.55074   0.00000  Uiso   1.00
H1150  H     0.58439   0.05549   0.59112   0.00000  Uiso   1.00
H1151  H     0.63565   0.02875   0.65079   0.00000  Uiso   1.00
H1152  H     0.60773   0.48325   0.62299   0.00000  Uiso   1.00
H1153  H     0.66177   0.49532   0.60868   0.00000  Uiso   1.00
H1154  H     0.80041   0.34096   0.41018   0.00000  Uiso   1.00
H1155  H     0.85413   0.32417   0.41095   0.00000  Uiso   1.00
H1156  H     0.86937   0.35746   0.34019   0.00000  Uiso   1.00
H1157  H     0.82092   0.32516   0.33496   0.00000  Uiso   1.00
H1158  H     0.63876   0.33353   0.66059   0.00000  Uiso   1.00
H1159  H     0.81967   0.38630   0.33899   0.00000  Uiso   1.00
H1160  H     0.60218   0.37523   0.34875   0.00000  Uiso   1.00
N1161  N     0.50000   0.25000   0.61907   0.00000  Uiso   1.00
N1162  N     0.50000   0.25000   0.38093   0.00000  Uiso   1.00
N1163  N     0.75000  -0.00000   0.61907   0.00000  Uiso   1.00
N1164  N     0.75000  -0.00000   0.38093   0.00000  Uiso   1.00
O1165  O     0.54581   0.20419   0.53821   0.00000  Uiso   1.00
O1166  O     0.70420   0.04581   0.46179   0.00000  Uiso   1.00
O1167  O     0.70420   0.04581   0.53821   0.00000  Uiso   1.00
O1168  O     0.79581   0.45419   0.46179   0.00000  Uiso   1.00
O1169  O     0.70420   0.45419   0.46179   0.00000  Uiso   1.00
O1170  O     0.79581   0.04581   0.53821   0.00000  Uiso   1.00
O1171  O     0.79581   0.04581   0.46179   0.00000  Uiso   1.00
O1172  O     0.70420   0.45419   0.53821   0.00000  Uiso   1.00
O1173  O     0.89075   0.16994   0.42003   0.00000  Uiso   1.00
O1174  O     0.60680   0.33304   0.57947   0.00000  Uiso   1.00
O1175  O     0.60682   0.33294   0.41897   0.00000  Uiso   1.00
O1176  O     0.95420   0.29581   0.46179   0.00000  Uiso   1.00
O1177  O     0.93751   0.11619   0.56234   0.00000  Uiso   1.00
O1178  O     0.59674   0.15895   0.58222   0.00000  Uiso   1.00
O1179  O     0.92589   0.37123   0.42716   0.00000  Uiso   1.00
O1180  O     0.89458   0.33107   0.58063   0.00000  Uiso   1.00
O1181  O     0.59102   0.14537   0.42011   0.00000  Uiso   1.00
O1182  O     0.64075   0.41994   0.42003   0.00000  Uiso   1.00
O1183  O     0.85680   0.08304   0.57947   0.00000  Uiso   1.00
O1184  O     0.85682   0.08294   0.41897   0.00000  Uiso   1.00
O1185  O     0.68752   0.36619   0.56234   0.00000  Uiso   1.00
O1186  O     0.84674   0.40895   0.58222   0.00000  Uiso   1.00
O1187  O     0.95420   0.29581   0.53821   0.00000  Uiso   1.00
O1188  O     0.67589   0.12123   0.42716   0.00000  Uiso   1.00
O1189  O     0.64458   0.08107   0.58063   0.00000  Uiso   1.00
O1190  O     0.84102   0.39537   0.42011   0.00000  Uiso   1.00
O1191  O     0.54581   0.20419   0.46179   0.00000  Uiso   1.00
O1192  O     0.95420   0.20419   0.46179   0.00000  Uiso   1.00
O1193  O     0.54581   0.29581   0.53821   0.00000  Uiso   1.00
O1194  O     0.54581   0.29581   0.46179   0.00000  Uiso   1.00
O1195  O     0.95420   0.20419   0.53821   0.00000  Uiso   1.00
O1196  O     0.79581   0.45419   0.53821   0.00000  Uiso   1.00
Zn1197 Zn    0.50000   0.25000   0.55104   0.00000  Uiso   1.00
Zn1198 Zn    0.50000   0.25000   0.44896   0.00000  Uiso   1.00
Zn1199 Zn    0.75000  -0.00000   0.55104   0.00000  Uiso   1.00
Zn1200 Zn    0.75000  -0.00000   0.44896   0.00000  Uiso   1.00
Br1201 Br    0.01172   0.84563   0.38724   0.00000  Uiso   1.00
Br1202 Br    0.00513   0.65434   0.61270   0.00000  Uiso   1.00
Br1203 Br    0.48880   0.65425   0.38741   0.00000  Uiso   1.00
Br1204 Br    0.49360   0.84635   0.61221   0.00000  Uiso   1.00
Br1205 Br    0.26172   0.59563   0.38724   0.00000  Uiso   1.00
Br1206 Br    0.25513   0.90434   0.61270   0.00000  Uiso   1.00
Br1207 Br    0.23880   0.90425   0.38741   0.00000  Uiso   1.00
Br1208 Br    0.24360   0.59635   0.61221   0.00000  Uiso   1.00
C1209  C     0.05929   0.68923   0.50008   0.00000  Uiso   1.00
C1210  C     0.49976   0.71041   0.64296   0.00000  Uiso   1.00
C1211  C     0.49739   0.71040   0.35703   0.00000  Uiso   1.00
C1212  C     0.49950   0.78979   0.64291   0.00000  Uiso   1.00
C1213  C     0.25214   0.53967   0.35706   0.00000  Uiso   1.00
C1214  C     0.24976   0.96041   0.64296   0.00000  Uiso   1.00
C1215  C     0.24739   0.96040   0.35703   0.00000  Uiso   1.00
C1216  C     0.24950   0.53979   0.64291   0.00000  Uiso   1.00
C1217  C     0.38534   0.64588   0.45919   0.00000  Uiso   1.00
C1218  C     0.11738   0.85153   0.53880   0.00000  Uiso   1.00
C1219  C     0.11145   0.85642   0.45860   0.00000  Uiso   1.00
C1220  C     0.44111   0.81097   0.50034   0.00000  Uiso   1.00
C1221  C     0.40460   0.62551   0.53418   0.00000  Uiso   1.00
C1222  C     0.10862   0.64012   0.54196   0.00000  Uiso   1.00
C1223  C     0.39914   0.86940   0.46339   0.00000  Uiso   1.00
C1224  C     0.38687   0.85436   0.54158   0.00000  Uiso   1.00
C1225  C     0.10973   0.63915   0.46111   0.00000  Uiso   1.00
C1226  C     0.13534   0.89588   0.45919   0.00000  Uiso   1.00
C1227  C     0.36738   0.60154   0.53880   0.00000  Uiso   1.00
C1228  C     0.36145   0.60642   0.45860   0.00000  Uiso   1.00
C1229  C     0.15460   0.87550   0.53418   0.00000  Uiso   1.00
C1230  C     0.35861   0.89012   0.54196   0.00000  Uiso   1.00
C1231  C     0.44079   0.68936   0.49960   0.00000  Uiso   1.00
C1232  C     0.14914   0.61940   0.46339   0.00000  Uiso   1.00
C1233  C     0.13687   0.60436   0.54158   0.00000  Uiso   1.00
C1234  C     0.35973   0.88915   0.46111   0.00000  Uiso   1.00
C1235  C     0.09630   0.83964   0.49951   0.00000  Uiso   1.00
C1236  C     0.40917   0.65440   0.49795   0.00000  Uiso   1.00
C1237  C     0.40903   0.84532   0.50183   0.00000  Uiso   1.00
C1238  C     0.09222   0.65542   0.50094   0.00000  Uiso   1.00
C1239  C     0.34630   0.58964   0.49951   0.00000  Uiso   1.00
C1240  C     0.15918   0.90440   0.49795   0.00000  Uiso   1.00
C1241  C     0.15903   0.59532   0.50183   0.00000  Uiso   1.00
C1242  C     0.06082   0.80892   0.50000   0.00000  Uiso   1.00
C1243  C     0.34222   0.90542   0.50094   0.00000  Uiso   1.00
C1244  C     0.36947   0.71215   0.42304   0.00000  Uiso   1.00
C1245  C     0.32429   0.70783   0.40650   0.00000  Uiso   1.00
C1246  C     0.10304   0.86837   0.61139   0.00000  Uiso   1.00
C1247  C     0.10688   0.84808   0.65699   0.00000  Uiso   1.00
C1248  C     0.13150   0.79265   0.41985   0.00000  Uiso   1.00
C1249  C     0.17861   0.80250   0.41427   0.00000  Uiso   1.00
C1250  C     0.45919   0.57702   0.54664   0.00000  Uiso   1.00
C1251  C     0.46464   0.54331   0.58449   0.00000  Uiso   1.00
C1252  C     0.12777   0.69086   0.59541   0.00000  Uiso   1.00
C1253  C     0.30929   0.93922   0.50008   0.00000  Uiso   1.00
C1254  C     0.10816   0.72585   0.62654   0.00000  Uiso   1.00
C1255  C     0.43850   0.91710   0.41977   0.00000  Uiso   1.00
C1256  C     0.43190   0.92908   0.37114   0.00000  Uiso   1.00
C1257  C     0.36666   0.79357   0.58276   0.00000  Uiso   1.00
C1258  C     0.38136   0.76079   0.61860   0.00000  Uiso   1.00
C1259  C     0.08259   0.60208   0.40069   0.00000  Uiso   1.00
C1260  C     0.08585   0.60544   0.35049   0.00000  Uiso   1.00
C1261  C     0.11947   0.96215   0.42305   0.00000  Uiso   1.00
C1262  C     0.07428   0.95783   0.40650   0.00000  Uiso   1.00
C1263  C     0.35304   0.61837   0.61139   0.00000  Uiso   1.00
C1264  C     0.19111   0.56097   0.50034   0.00000  Uiso   1.00
C1265  C     0.35688   0.59808   0.65699   0.00000  Uiso   1.00
C1266  C     0.38151   0.54265   0.41985   0.00000  Uiso   1.00
C1267  C     0.42861   0.55250   0.41427   0.00000  Uiso   1.00
C1268  C     0.20919   0.82702   0.54664   0.00000  Uiso   1.00
C1269  C     0.21464   0.79331   0.58449   0.00000  Uiso   1.00
C1270  C     0.37777   0.94086   0.59541   0.00000  Uiso   1.00
C1271  C     0.35816   0.97585   0.62654   0.00000  Uiso   1.00
C1272  C     0.18850   0.66710   0.41977   0.00000  Uiso   1.00
C1273  C     0.18190   0.67907   0.37114   0.00000  Uiso   1.00
C1274  C     0.11666   0.54357   0.58276   0.00000  Uiso   1.00
C1275  C     0.19079   0.93936   0.49960   0.00000  Uiso   1.00
C1276  C     0.13136   0.51079   0.61860   0.00000  Uiso   1.00
C1277  C     0.33259   0.85208   0.40069   0.00000  Uiso   1.00
C1278  C     0.33585   0.85544   0.35049   0.00000  Uiso   1.00
C1279  C     0.31082   0.55892   0.50000   0.00000  Uiso   1.00
C1280  C     0.00214   0.78967   0.35706   0.00000  Uiso   1.00
H1281  H     0.38623   0.73682   0.40134   0.00000  Uiso   1.00
H1282  H     0.08330   0.82070   0.66162   0.00000  Uiso   1.00
H1283  H     0.12135   0.77060   0.39178   0.00000  Uiso   1.00
H1284  H     0.12637   0.77222   0.45051   0.00000  Uiso   1.00
H1285  H     0.19029   0.82529   0.44096   0.00000  Uiso   1.00
H1286  H     0.19661   0.77041   0.41635   0.00000  Uiso   1.00
H1287  H     0.18508   0.81838   0.38164   0.00000  Uiso   1.00
H1288  H     0.49077   0.58756   0.53441   0.00000  Uiso   1.00
H1289  H     0.44337   0.55843   0.51878   0.00000  Uiso   1.00
H1290  H     0.43334   0.53284   0.59713   0.00000  Uiso   1.00
H1291  H     0.48157   0.51273   0.57226   0.00000  Uiso   1.00
H1292  H     0.36954   0.72725   0.45717   0.00000  Uiso   1.00
H1293  H     0.48289   0.55866   0.61216   0.00000  Uiso   1.00
H1294  H     0.14172   0.70994   0.56681   0.00000  Uiso   1.00
H1295  H     0.15344   0.67292   0.61310   0.00000  Uiso   1.00
H1296  H     0.09067   0.70903   0.65385   0.00000  Uiso   1.00
H1297  H     0.13305   0.74750   0.64146   0.00000  Uiso   1.00
H1298  H     0.08618   0.74773   0.60777   0.00000  Uiso   1.00
H1299  H     0.47238   0.92068   0.42793   0.00000  Uiso   1.00
H1300  H     0.42201   0.94317   0.44052   0.00000  Uiso   1.00
H1301  H     0.39783   0.93309   0.36495   0.00000  Uiso   1.00
H1302  H     0.44821   0.96138   0.36292   0.00000  Uiso   1.00
H1303  H     0.30652   0.68326   0.42732   0.00000  Uiso   1.00
H1304  H     0.44424   0.90185   0.34917   0.00000  Uiso   1.00
H1305  H     0.36545   0.77422   0.55074   0.00000  Uiso   1.00
H1306  H     0.33439   0.80549   0.59112   0.00000  Uiso   1.00
H1307  H     0.38565   0.77875   0.65079   0.00000  Uiso   1.00
H1308  H     0.35773   0.73325   0.62299   0.00000  Uiso   1.00
H1309  H     0.41177   0.74531   0.60868   0.00000  Uiso   1.00
H1310  H     0.05041   0.59096   0.41018   0.00000  Uiso   1.00
H1311  H     0.10413   0.57417   0.41095   0.00000  Uiso   1.00
H1312  H     0.11936   0.60746   0.34019   0.00000  Uiso   1.00
H1313  H     0.07092   0.57516   0.33496   0.00000  Uiso   1.00
H1314  H     0.30854   0.74143   0.40860   0.00000  Uiso   1.00
H1315  H     0.06967   0.63630   0.33899   0.00000  Uiso   1.00
H1316  H     0.13622   0.98682   0.40134   0.00000  Uiso   1.00
H1317  H     0.11954   0.97725   0.45717   0.00000  Uiso   1.00
H1318  H     0.05652   0.93326   0.42733   0.00000  Uiso   1.00
H1319  H     0.05854   0.99143   0.40860   0.00000  Uiso   1.00
H1320  H     0.07393   0.94631   0.37131   0.00000  Uiso   1.00
H1321  H     0.32229   0.63558   0.60793   0.00000  Uiso   1.00
H1322  H     0.37777   0.64519   0.60930   0.00000  Uiso   1.00
H1323  H     0.38876   0.58353   0.66059   0.00000  Uiso   1.00
H1324  H     0.35219   0.62522   0.34875   0.00000  Uiso   1.00
H1325  H     0.32393   0.69631   0.37130   0.00000  Uiso   1.00
H1326  H     0.33330   0.57070   0.66162   0.00000  Uiso   1.00
H1327  H     0.37135   0.52060   0.39178   0.00000  Uiso   1.00
H1328  H     0.37637   0.52222   0.45051   0.00000  Uiso   1.00
H1329  H     0.44029   0.57529   0.44096   0.00000  Uiso   1.00
H1330  H     0.44661   0.52041   0.41635   0.00000  Uiso   1.00
H1331  H     0.43508   0.56838   0.38164   0.00000  Uiso   1.00
H1332  H     0.24077   0.83756   0.53441   0.00000  Uiso   1.00
H1333  H     0.19337   0.80843   0.51878   0.00000  Uiso   1.00
H1334  H     0.18334   0.78283   0.59712   0.00000  Uiso   1.00
H1335  H     0.23157   0.76273   0.57226   0.00000  Uiso   1.00
H1336  H     0.07229   0.88558   0.60793   0.00000  Uiso   1.00
H1337  H     0.23289   0.80866   0.61216   0.00000  Uiso   1.00
H1338  H     0.39172   0.95994   0.56682   0.00000  Uiso   1.00
H1339  H     0.40344   0.92292   0.61311   0.00000  Uiso   1.00
H1340  H     0.34067   0.95903   0.65385   0.00000  Uiso   1.00
H1341  H     0.38305   0.99750   0.64146   0.00000  Uiso   1.00
H1342  H     0.33618   0.99773   0.60777   0.00000  Uiso   1.00
H1343  H     0.22238   0.67068   0.42792   0.00000  Uiso   1.00
H1344  H     0.17201   0.69317   0.44051   0.00000  Uiso   1.00
H1345  H     0.14782   0.68308   0.36494   0.00000  Uiso   1.00
H1346  H     0.19821   0.71138   0.36292   0.00000  Uiso   1.00
H1347  H     0.12777   0.89519   0.60930   0.00000  Uiso   1.00
H1348  H     0.19425   0.65185   0.34917   0.00000  Uiso   1.00
H1349  H     0.11545   0.52422   0.55074   0.00000  Uiso   1.00
H1350  H     0.08439   0.55549   0.59112   0.00000  Uiso   1.00
H1351  H     0.13565   0.52875   0.65079   0.00000  Uiso   1.00
H1352  H     0.10773   0.98325   0.62299   0.00000  Uiso   1.00
H1353  H     0.16177   0.99532   0.60868   0.00000  Uiso   1.00
H1354  H     0.30041   0.84096   0.41018   0.00000  Uiso   1.00
H1355  H     0.35413   0.82417   0.41095   0.00000  Uiso   1.00
H1356  H     0.36937   0.85746   0.34019   0.00000  Uiso   1.00
H1357  H     0.32092   0.82516   0.33496   0.00000  Uiso   1.00
H1358  H     0.13876   0.83353   0.66059   0.00000  Uiso   1.00
H1359  H     0.31967   0.88630   0.33899   0.00000  Uiso   1.00
H1360  H     0.10218   0.87523   0.34875   0.00000  Uiso   1.00
N1361  N     0.00000   0.75000   0.61907   0.00000  Uiso   1.00
N1362  N     0.00000   0.75000   0.38093   0.00000  Uiso   1.00
N1363  N     0.25000   0.50000   0.61907   0.00000  Uiso   1.00
N1364  N     0.25000   0.50000   0.38093   0.00000  Uiso   1.00
O1365  O     0.04581   0.70419   0.53821   0.00000  Uiso   1.00
O1366  O     0.20420   0.54581   0.46179   0.00000  Uiso   1.00
O1367  O     0.20420   0.54581   0.53821   0.00000  Uiso   1.00
O1368  O     0.29581   0.95419   0.46179   0.00000  Uiso   1.00
O1369  O     0.20420   0.95419   0.46179   0.00000  Uiso   1.00
O1370  O     0.29581   0.54581   0.53821   0.00000  Uiso   1.00
O1371  O     0.29581   0.54581   0.46179   0.00000  Uiso   1.00
O1372  O     0.20420   0.95419   0.53821   0.00000  Uiso   1.00
O1373  O     0.39075   0.66994   0.42003   0.00000  Uiso   1.00
O1374  O     0.10680   0.83304   0.57947   0.00000  Uiso   1.00
O1375  O     0.10682   0.83294   0.41897   0.00000  Uiso   1.00
O1376  O     0.45420   0.79581   0.46179   0.00000  Uiso   1.00
O1377  O     0.43751   0.61619   0.56234   0.00000  Uiso   1.00
O1378  O     0.09674   0.65895   0.58222   0.00000  Uiso   1.00
O1379  O     0.42589   0.87123   0.42716   0.00000  Uiso   1.00
O1380  O     0.39458   0.83107   0.58063   0.00000  Uiso   1.00
O1381  O     0.09102   0.64537   0.42011   0.00000  Uiso   1.00
O1382  O     0.14075   0.91994   0.42003   0.00000  Uiso   1.00
O1383  O     0.35680   0.58304   0.57947   0.00000  Uiso   1.00
O1384  O     0.35682   0.58294   0.41897   0.00000  Uiso   1.00
O1385  O     0.18752   0.86619   0.56234   0.00000  Uiso   1.00
O1386  O     0.34674   0.90895   0.58222   0.00000  Uiso   1.00
O1387  O     0.45420   0.79581   0.53821   0.00000  Uiso   1.00
O1388  O     0.17589   0.62123   0.42716   0.00000  Uiso   1.00
O1389  O     0.14458   0.58107   0.58063   0.00000  Uiso   1.00
O1390  O     0.34102   0.89537   0.42011   0.00000  Uiso   1.00
O1391  O     0.04581   0.70419   0.46179   0.00000  Uiso   1.00
O1392  O     0.45420   0.70419   0.46179   0.00000  Uiso   1.00
O1393  O     0.04581   0.79581   0.53821   0.00000  Uiso   1.00
O1394  O     0.04581   0.79581   0.46179   0.00000  Uiso   1.00
O1395  O     0.45420   0.70419   0.53821   0.00000  Uiso   1.00
O1396  O     0.29581   0.95419   0.53821   0.00000  Uiso   1.00
Zn1397 Zn    0.00000   0.75000   0.55104   0.00000  Uiso   1.00
Zn1398 Zn    0.00000   0.75000   0.44896   0.00000  Uiso   1.00
Zn1399 Zn    0.25000   0.50000   0.55104   0.00000  Uiso   1.00
Zn1400 Zn    0.25000   0.50000   0.44896   0.00000  Uiso   1.00
Br1401 Br    0.51172   0.84563   0.38724   0.00000  Uiso   1.00
Br1402 Br    0.50513   0.65434   0.61270   0.00000  Uiso   1.00
Br1403 Br    0.98880   0.65425   0.38741   0.00000  Uiso   1.00
Br1404 Br    0.99360   0.84635   0.61221   0.00000  Uiso   1.00
Br1405 Br    0.76172   0.59563   0.38724   0.00000  Uiso   1.00
Br1406 Br    0.75513   0.90434   0.61270   0.00000  Uiso   1.00
Br1407 Br    0.73880   0.90425   0.38741   0.00000  Uiso   1.00
Br1408 Br    0.74360   0.59635   0.61221   0.00000  Uiso   1.00
C1409  C     0.55929   0.68923   0.50008   0.00000  Uiso   1.00
C1410  C     0.99976   0.71041   0.64296   0.00000  Uiso   1.00
C1411  C     0.99739   0.71040   0.35703   0.00000  Uiso   1.00
C1412  C     0.99950   0.78979   0.64291   0.00000  Uiso   1.00
C1413  C     0.75214   0.53967   0.35706   0.00000  Uiso   1.00
C1414  C     0.74976   0.96041   0.64296   0.00000  Uiso   1.00
C1415  C     0.74739   0.96040   0.35703   0.00000  Uiso   1.00
C1416  C     0.74950   0.53979   0.64291   0.00000  Uiso   1.00
C1417  C     0.88534   0.64588   0.45919   0.00000  Uiso   1.00
C1418  C     0.61738   0.85153   0.53880   0.00000  Uiso   1.00
C1419  C     0.61145   0.85642   0.45860   0.00000  Uiso   1.00
C1420  C     0.94111   0.81097   0.50034   0.00000  Uiso   1.00
C1421  C     0.90460   0.62551   0.53418   0.00000  Uiso   1.00
C1422  C     0.60862   0.64012   0.54196   0.00000  Uiso   1.00
C1423  C     0.89914   0.86940   0.46339   0.00000  Uiso   1.00
C1424  C     0.88687   0.85436   0.54158   0.00000  Uiso   1.00
C1425  C     0.60973   0.63915   0.46111   0.00000  Uiso   1.00
C1426  C     0.63534   0.89588   0.45919   0.00000  Uiso   1.00
C1427  C     0.86738   0.60154   0.53880   0.00000  Uiso   1.00
C1428  C     0.86145   0.60642   0.45860   0.00000  Uiso   1.00
C1429  C     0.65460   0.87550   0.53418   0.00000  Uiso   1.00
C1430  C     0.85861   0.89012   0.54196   0.00000  Uiso   1.00
C1431  C     0.94079   0.68936   0.49960   0.00000  Uiso   1.00
C1432  C     0.64914   0.61940   0.46339   0.00000  Uiso   1.00
C1433  C     0.63687   0.60436   0.54158   0.00000  Uiso   1.00
C1434  C     0.85973   0.88915   0.46111   0.00000  Uiso   1.00
C1435  C     0.59630   0.83964   0.49951   0.00000  Uiso   1.00
C1436  C     0.90917   0.65440   0.49795   0.00000  Uiso   1.00
C1437  C     0.90903   0.84532   0.50183   0.00000  Uiso   1.00
C1438  C     0.59222   0.65542   0.50094   0.00000  Uiso   1.00
C1439  C     0.84630   0.58964   0.49951   0.00000  Uiso   1.00
C1440  C     0.65918   0.90440   0.49795   0.00000  Uiso   1.00
C1441  C     0.65903   0.59532   0.50183   0.00000  Uiso   1.00
C1442  C     0.56082   0.80892   0.50000   0.00000  Uiso   1.00
C1443  C     0.84222   0.90542   0.50094   0.00000  Uiso   1.00
C1444  C     0.86947   0.71215   0.42304   0.00000  Uiso   1.00
C1445  C     0.82429   0.70783   0.40650   0.00000  Uiso   1.00
C1446  C     0.60304   0.86837   0.61139   0.00000  Uiso   1.00
C1447  C     0.60688   0.84808   0.65699   0.00000  Uiso   1.00
C1448  C     0.63150   0.79265   0.41985   0.00000  Uiso   1.00
C1449  C     0.67861   0.80250   0.41427   0.00000  Uiso   1.00
C1450  C     0.95919   0.57702   0.54664   0.00000  Uiso   1.00
C1451  C     0.96464   0.54331   0.58449   0.00000  Uiso   1.00
C1452  C     0.62777   0.69086   0.59541   0.00000  Uiso   1.00
C1453  C     0.80929   0.93922   0.50008   0.00000  Uiso   1.00
C1454  C     0.60816   0.72585   0.62654   0.00000  Uiso   1.00
C1455  C     0.93850   0.91710   0.41977   0.00000  Uiso   1.00
C1456  C     0.93190   0.92908   0.37114   0.00000  Uiso   1.00
C1457  C     0.86666   0.79357   0.58276   0.00000  Uiso   1.00
C1458  C     0.88136   0.76079   0.61860   0.00000  Uiso   1.00
C1459  C     0.58259   0.60208   0.40069   0.00000  Uiso   1.00
C1460  C     0.58585   0.60544   0.35049   0.00000  Uiso   1.00
C1461  C     0.61947   0.96215   0.42305   0.00000  Uiso   1.00
C1462  C     0.57428   0.95783   0.40650   0.00000  Uiso   1.00
C1463  C     0.85304   0.61837   0.61139   0.00000  Uiso   1.00
C1464  C     0.69111   0.56097   0.50034   0.00000  Uiso   1.00
C1465  C     0.85688   0.59808   0.65699   0.00000  Uiso   1.00
C1466  C     0.88151   0.54265   0.41985   0.00000  Uiso   1.00
C1467  C     0.92861   0.55250   0.41427   0.00000  Uiso   1.00
C1468  C     0.70919   0.82702   0.54664   0.00000  Uiso   1.00
C1469  C     0.71464   0.79331   0.58449   0.00000  Uiso   1.00
C1470  C     0.87777   0.94086   0.59541   0.00000  Uiso   1.00
C1471  C     0.85816   0.97585   0.62654   0.00000  Uiso   1.00
C1472  C     0.68850   0.66710   0.41977   0.00000  Uiso   1.00
C1473  C     0.68190   0.67907   0.37114   0.00000  Uiso   1.00
C1474  C     0.61666   0.54357   0.58276   0.00000  Uiso   1.00
C1475  C     0.69079   0.93936   0.49960   0.00000  Uiso   1.00
C1476  C     0.63136   0.51079   0.61860   0.00000  Uiso   1.00
C1477  C     0.83259   0.85208   0.40069   0.00000  Uiso   1.00
C1478  C     0.83585   0.85544   0.35049   0.00000  Uiso   1.00
C1479  C     0.81082   0.55892   0.50000   0.00000  Uiso   1.00
C1480  C     0.50214   0.78967   0.35706   0.00000  Uiso   1.00
H1481  H     0.88623   0.73682   0.40134   0.00000  Uiso   1.00
H1482  H     0.58330   0.82070   0.66162   0.00000  Uiso   1.00
H1483  H     0.62135   0.77060   0.39178   0.00000  Uiso   1.00
H1484  H     0.62637   0.77222   0.45051   0.00000  Uiso   1.00
H1485  H     0.69029   0.82529   0.44096   0.00000  Uiso   1.00
H1486  H     0.69661   0.77041   0.41635   0.00000  Uiso   1.00
H1487  H     0.68508   0.81838   0.38164   0.00000  Uiso   1.00
H1488  H     0.99077   0.58756   0.53441   0.00000  Uiso   1.00
H1489  H     0.94337   0.55843   0.51878   0.00000  Uiso   1.00
H1490  H     0.93334   0.53284   0.59713   0.00000  Uiso   1.00
H1491  H     0.98157   0.51273   0.57226   0.00000  Uiso   1.00
H1492  H     0.86954   0.72725   0.45717   0.00000  Uiso   1.00
H1493  H     0.98289   0.55866   0.61216   0.00000  Uiso   1.00
H1494  H     0.64172   0.70994   0.56681   0.00000  Uiso   1.00
H1495  H     0.65344   0.67292   0.61310   0.00000  Uiso   1.00
H1496  H     0.59067   0.70903   0.65385   0.00000  Uiso   1.00
H1497  H     0.63305   0.74750   0.64146   0.00000  Uiso   1.00
H1498  H     0.58618   0.74773   0.60777   0.00000  Uiso   1.00
H1499  H     0.97238   0.92068   0.42793   0.00000  Uiso   1.00
H1500  H     0.92201   0.94317   0.44052   0.00000  Uiso   1.00
H1501  H     0.89783   0.93309   0.36495   0.00000  Uiso   1.00
H1502  H     0.94821   0.96138   0.36292   0.00000  Uiso   1.00
H1503  H     0.80652   0.68326   0.42732   0.00000  Uiso   1.00
H1504  H     0.94424   0.90185   0.34917   0.00000  Uiso   1.00
H1505  H     0.86545   0.77422   0.55074   0.00000  Uiso   1.00
H1506  H     0.83439   0.80549   0.59112   0.00000  Uiso   1.00
H1507  H     0.88565   0.77875   0.65079   0.00000  Uiso   1.00
H1508  H     0.85773   0.73325   0.62299   0.00000  Uiso   1.00
H1509  H     0.91177   0.74531   0.60868   0.00000  Uiso   1.00
H1510  H     0.55041   0.59096   0.41018   0.00000  Uiso   1.00
H1511  H     0.60413   0.57417   0.41095   0.00000  Uiso   1.00
H1512  H     0.61936   0.60746   0.34019   0.00000  Uiso   1.00
H1513  H     0.57092   0.57516   0.33496   0.00000  Uiso   1.00
H1514  H     0.80854   0.74143   0.40860   0.00000  Uiso   1.00
H1515  H     0.56967   0.63630   0.33899   0.00000  Uiso   1.00
H1516  H     0.63622   0.98682   0.40134   0.00000  Uiso   1.00
H1517  H     0.61954   0.97725   0.45717   0.00000  Uiso   1.00
H1518  H     0.55652   0.93326   0.42733   0.00000  Uiso   1.00
H1519  H     0.55854   0.99143   0.40860   0.00000  Uiso   1.00
H1520  H     0.57393   0.94631   0.37131   0.00000  Uiso   1.00
H1521  H     0.82229   0.63558   0.60793   0.00000  Uiso   1.00
H1522  H     0.87777   0.64519   0.60930   0.00000  Uiso   1.00
H1523  H     0.88876   0.58353   0.66059   0.00000  Uiso   1.00
H1524  H     0.85219   0.62522   0.34875   0.00000  Uiso   1.00
H1525  H     0.82393   0.69631   0.37130   0.00000  Uiso   1.00
H1526  H     0.83330   0.57070   0.66162   0.00000  Uiso   1.00
H1527  H     0.87135   0.52060   0.39178   0.00000  Uiso   1.00
H1528  H     0.87637   0.52222   0.45051   0.00000  Uiso   1.00
H1529  H     0.94029   0.57529   0.44096   0.00000  Uiso   1.00
H1530  H     0.94661   0.52041   0.41635   0.00000  Uiso   1.00
H1531  H     0.93508   0.56838   0.38164   0.00000  Uiso   1.00
H1532  H     0.74077   0.83756   0.53441   0.00000  Uiso   1.00
H1533  H     0.69337   0.80843   0.51878   0.00000  Uiso   1.00
H1534  H     0.68334   0.78283   0.59712   0.00000  Uiso   1.00
H1535  H     0.73157   0.76273   0.57226   0.00000  Uiso   1.00
H1536  H     0.57229   0.88558   0.60793   0.00000  Uiso   1.00
H1537  H     0.73289   0.80866   0.61216   0.00000  Uiso   1.00
H1538  H     0.89172   0.95994   0.56682   0.00000  Uiso   1.00
H1539  H     0.90344   0.92292   0.61311   0.00000  Uiso   1.00
H1540  H     0.84067   0.95903   0.65385   0.00000  Uiso   1.00
H1541  H     0.88305   0.99750   0.64146   0.00000  Uiso   1.00
H1542  H     0.83618   0.99773   0.60777   0.00000  Uiso   1.00
H1543  H     0.72238   0.67068   0.42792   0.00000  Uiso   1.00
H1544  H     0.67201   0.69317   0.44051   0.00000  Uiso   1.00
H1545  H     0.64782   0.68308   0.36494   0.00000  Uiso   1.00
H1546  H     0.69821   0.71138   0.36292   0.00000  Uiso   1.00
H1547  H     0.62777   0.89519   0.60930   0.00000  Uiso   1.00
H1548  H     0.69425   0.65185   0.34917   0.00000  Uiso   1.00
H1549  H     0.61545   0.52422   0.55074   0.00000  Uiso   1.00
H1550  H     0.58439   0.55549   0.59112   0.00000  Uiso   1.00
H1551  H     0.63565   0.52875   0.65079   0.00000  Uiso   1.00
H1552  H     0.60773   0.98325   0.62299   0.00000  Uiso   1.00
H1553  H     0.66177   0.99532   0.60868   0.00000  Uiso   1.00
H1554  H     0.80041   0.84096   0.41018   0.00000  Uiso   1.00
H1555  H     0.85413   0.82417   0.41095   0.00000  Uiso   1.00
H1556  H     0.86937   0.85746   0.34019   0.00000  Uiso   1.00
H1557  H     0.82092   0.82516   0.33496   0.00000  Uiso   1.00
H1558  H     0.63876   0.83353   0.66059   0.00000  Uiso   1.00
H1559  H     0.81967   0.88630   0.33899   0.00000  Uiso   1.00
H1560  H     0.60218   0.87523   0.34875   0.00000  Uiso   1.00
N1561  N     0.50000   0.75000   0.61907   0.00000  Uiso   1.00
N1562  N     0.50000   0.75000   0.38093   0.00000  Uiso   1.00
N1563  N     0.75000   0.50000   0.61907   0.00000  Uiso   1.00
N1564  N     0.75000   0.50000   0.38093   0.00000  Uiso   1.00
O1565  O     0.54581   0.70419   0.53821   0.00000  Uiso   1.00
O1566  O     0.70420   0.54581   0.46179   0.00000  Uiso   1.00
O1567  O     0.70420   0.54581   0.53821   0.00000  Uiso   1.00
O1568  O     0.79581   0.95419   0.46179   0.00000  Uiso   1.00
O1569  O     0.70420   0.95419   0.46179   0.00000  Uiso   1.00
O1570  O     0.79581   0.54581   0.53821   0.00000  Uiso   1.00
O1571  O     0.79581   0.54581   0.46179   0.00000  Uiso   1.00
O1572  O     0.70420   0.95419   0.53821   0.00000  Uiso   1.00
O1573  O     0.89075   0.66994   0.42003   0.00000  Uiso   1.00
O1574  O     0.60680   0.83304   0.57947   0.00000  Uiso   1.00
O1575  O     0.60682   0.83294   0.41897   0.00000  Uiso   1.00
O1576  O     0.95420   0.79581   0.46179   0.00000  Uiso   1.00
O1577  O     0.93751   0.61619   0.56234   0.00000  Uiso   1.00
O1578  O     0.59674   0.65895   0.58222   0.00000  Uiso   1.00
O1579  O     0.92589   0.87123   0.42716   0.00000  Uiso   1.00
O1580  O     0.89458   0.83107   0.58063   0.00000  Uiso   1.00
O1581  O     0.59102   0.64537   0.42011   0.00000  Uiso   1.00
O1582  O     0.64075   0.91994   0.42003   0.00000  Uiso   1.00
O1583  O     0.85680   0.58304   0.57947   0.00000  Uiso   1.00
O1584  O     0.85682   0.58294   0.41897   0.00000  Uiso   1.00
O1585  O     0.68752   0.86619   0.56234   0.00000  Uiso   1.00
O1586  O     0.84674   0.90895   0.58222   0.00000  Uiso   1.00
O1587  O     0.95420   0.79581   0.53821   0.00000  Uiso   1.00
O1588  O     0.67589   0.62123   0.42716   0.00000  Uiso   1.00
O1589  O     0.64458   0.58107   0.58063   0.00000  Uiso   1.00
O1590  O     0.84102   0.89537   0.42011   0.00000  Uiso   1.00
O1591  O     0.54581   0.70419   0.46179   0.00000  Uiso   1.00
O1592  O     0.95420   0.70419   0.46179   0.00000  Uiso   1.00
O1593  O     0.54581   0.79581   0.53821   0.00000  Uiso   1.00
O1594  O     0.54581   0.79581   0.46179   0.00000  Uiso   1.00
O1595  O     0.95420   0.70419   0.53821   0.00000  Uiso   1.00
O1596  O     0.79581   0.95419   0.53821   0.00000  Uiso   1.00
Zn1597 Zn    0.50000   0.75000   0.55104   0.00000  Uiso   1.00
Zn1598 Zn    0.50000   0.75000   0.44896   0.00000  Uiso   1.00
Zn1599 Zn    0.75000   0.50000   0.55104   0.00000  Uiso   1.00
Zn1600 Zn    0.75000   0.50000   0.44896   0.00000  Uiso   1.00
Br1601 Br    0.01172   0.34563   0.72058   0.00000  Uiso   1.00
Br1602 Br    0.00513   0.15434   0.94604   0.00000  Uiso   1.00
Br1603 Br    0.48880   0.15425   0.72074   0.00000  Uiso   1.00
Br1604 Br    0.49360   0.34635   0.94554   0.00000  Uiso   1.00
Br1605 Br    0.26172   0.09563   0.72058   0.00000  Uiso   1.00
Br1606 Br    0.25513   0.40434   0.94604   0.00000  Uiso   1.00
Br1607 Br    0.23880   0.40425   0.72074   0.00000  Uiso   1.00
Br1608 Br    0.24360   0.09635   0.94554   0.00000  Uiso   1.00
C1609  C     0.05929   0.18923   0.83341   0.00000  Uiso   1.00
C1610  C     0.49976   0.21041   0.97629   0.00000  Uiso   1.00
C1611  C     0.49739   0.21040   0.69036   0.00000  Uiso   1.00
C1612  C     0.49950   0.28979   0.97625   0.00000  Uiso   1.00
C1613  C     0.25214   0.03967   0.69039   0.00000  Uiso   1.00
C1614  C     0.24976   0.46041   0.97629   0.00000  Uiso   1.00
C1615  C     0.24739   0.46040   0.69036   0.00000  Uiso   1.00
C1616  C     0.24950   0.03979   0.97625   0.00000  Uiso   1.00
C1617  C     0.38534   0.14588   0.79252   0.00000  Uiso   1.00
C1618  C     0.11738   0.35153   0.87213   0.00000  Uiso   1.00
C1619  C     0.11145   0.35642   0.79193   0.00000  Uiso   1.00
C1620  C     0.44111   0.31097   0.83368   0.00000  Uiso   1.00
C1621  C     0.40460   0.12551   0.86751   0.00000  Uiso   1.00
C1622  C     0.10862   0.14012   0.87529   0.00000  Uiso   1.00
C1623  C     0.39914   0.36940   0.79672   0.00000  Uiso   1.00
C1624  C     0.38687   0.35436   0.87491   0.00000  Uiso   1.00
C1625  C     0.10973   0.13915   0.79444   0.00000  Uiso   1.00
C1626  C     0.13534   0.39588   0.79252   0.00000  Uiso   1.00
C1627  C     0.36738   0.10154   0.87213   0.00000  Uiso   1.00
C1628  C     0.36145   0.10642   0.79193   0.00000  Uiso   1.00
C1629  C     0.15460   0.37550   0.86751   0.00000  Uiso   1.00
C1630  C     0.35861   0.39012   0.87529   0.00000  Uiso   1.00
C1631  C     0.44079   0.18936   0.83293   0.00000  Uiso   1.00
C1632  C     0.14914   0.11940   0.79672   0.00000  Uiso   1.00
C1633  C     0.13687   0.10436   0.87491   0.00000  Uiso   1.00
C1634  C     0.35973   0.38915   0.79444   0.00000  Uiso   1.00
C1635  C     0.09630   0.33964   0.83284   0.00000  Uiso   1.00
C1636  C     0.40917   0.15440   0.83128   0.00000  Uiso   1.00
C1637  C     0.40903   0.34532   0.83516   0.00000  Uiso   1.00
C1638  C     0.09222   0.15542   0.83427   0.00000  Uiso   1.00
C1639  C     0.34630   0.08964   0.83284   0.00000  Uiso   1.00
C1640  C     0.15918   0.40440   0.83128   0.00000  Uiso   1.00
C1641  C     0.15903   0.09532   0.83516   0.00000  Uiso   1.00
C1642  C     0.06082   0.30892   0.83333   0.00000  Uiso   1.00
C1643  C     0.34222   0.40542   0.83427   0.00000  Uiso   1.00
C1644  C     0.36947   0.21215   0.75638   0.00000  Uiso   1.00
C1645  C     0.32429   0.20783   0.73983   0.00000  Uiso   1.00
C1646  C     0.10304   0.36837   0.94472   0.00000  Uiso   1.00
C1647  C     0.10688   0.34808   0.99032   0.00000  Uiso   1.00
C1648  C     0.13150   0.29265   0.75318   0.00000  Uiso   1.00
C1649  C     0.17861   0.30250   0.74760   0.00000  Uiso   1.00
C1650  C     0.45919   0.07702   0.87997   0.00000  Uiso   1.00
C1651  C     0.46464   0.04331   0.91782   0.00000  Uiso   1.00
C1652  C     0.12777   0.19086   0.92874   0.00000  Uiso   1.00
C1653  C     0.30929   0.43922   0.83341   0.00000  Uiso   1.00
C1654  C     0.10816   0.22585   0.95988   0.00000  Uiso   1.00
C1655  C     0.43850   0.41710   0.75311   0.00000  Uiso   1.00
C1656  C     0.43190   0.42908   0.70448   0.00000  Uiso   1.00
C1657  C     0.36666   0.29357   0.91609   0.00000  Uiso   1.00
C1658  C     0.38136   0.26079   0.95193   0.00000  Uiso   1.00
C1659  C     0.08259   0.10208   0.73402   0.00000  Uiso   1.00
C1660  C     0.08585   0.10544   0.68382   0.00000  Uiso   1.00
C1661  C     0.11947   0.46215   0.75638   0.00000  Uiso   1.00
C1662  C     0.07428   0.45783   0.73983   0.00000  Uiso   1.00
C1663  C     0.35304   0.11837   0.94472   0.00000  Uiso   1.00
C1664  C     0.19111   0.06097   0.83368   0.00000  Uiso   1.00
C1665  C     0.35688   0.09808   0.99032   0.00000  Uiso   1.00
C1666  C     0.38151   0.04265   0.75319   0.00000  Uiso   1.00
C1667  C     0.42861   0.05250   0.74761   0.00000  Uiso   1.00
C1668  C     0.20919   0.32702   0.87997   0.00000  Uiso   1.00
C1669  C     0.21464   0.29331   0.91782   0.00000  Uiso   1.00
C1670  C     0.37777   0.44086   0.92875   0.00000  Uiso   1.00
C1671  C     0.35816   0.47585   0.95988   0.00000  Uiso   1.00
C1672  C     0.18850   0.16710   0.75310   0.00000  Uiso   1.00
C1673  C     0.18190   0.17907   0.70448   0.00000  Uiso   1.00
C1674  C     0.11666   0.04357   0.91609   0.00000  Uiso   1.00
C1675  C     0.19079   0.43936   0.83293   0.00000  Uiso   1.00
C1676  C     0.13136   0.01079   0.95193   0.00000  Uiso   1.00
C1677  C     0.33259   0.35208   0.73402   0.00000  Uiso   1.00
C1678  C     0.33585   0.35544   0.68382   0.00000  Uiso   1.00
C1679  C     0.31082   0.05892   0.83333   0.00000  Uiso   1.00
C1680  C     0.00214   0.28967   0.69039   0.00000  Uiso   1.00
H1681  H     0.38623   0.23682   0.73468   0.00000  Uiso   1.00
H1682  H     0.08330   0.32070   0.99495   0.00000  Uiso   1.00
H1683  H     0.12135   0.27060   0.72511   0.00000  Uiso   1.00
H1684  H     0.12637   0.27222   0.78384   0.00000  Uiso   1.00
H1685  H     0.19029   0.32529   0.77430   0.00000  Uiso   1.00
H1686  H     0.19661   0.27041   0.74968   0.00000  Uiso   1.00
H1687  H     0.18508   0.31838   0.71497   0.00000  Uiso   1.00
H1688  H     0.49077   0.08756   0.86774   0.00000  Uiso   1.00
H1689  H     0.44337   0.05843   0.85211   0.00000  Uiso   1.00
H1690  H     0.43334   0.03284   0.93046   0.00000  Uiso   1.00
H1691  H     0.48157   0.01273   0.90559   0.00000  Uiso   1.00
H1692  H     0.36954   0.22725   0.79050   0.00000  Uiso   1.00
H1693  H     0.48289   0.05866   0.94549   0.00000  Uiso   1.00
H1694  H     0.14172   0.20994   0.90015   0.00000  Uiso   1.00
H1695  H     0.15344   0.17292   0.94644   0.00000  Uiso   1.00
H1696  H     0.09067   0.20903   0.98718   0.00000  Uiso   1.00
H1697  H     0.13305   0.24750   0.97480   0.00000  Uiso   1.00
H1698  H     0.08618   0.24773   0.94110   0.00000  Uiso   1.00
H1699  H     0.47238   0.42068   0.76126   0.00000  Uiso   1.00
H1700  H     0.42201   0.44317   0.77385   0.00000  Uiso   1.00
H1701  H     0.39783   0.43309   0.69828   0.00000  Uiso   1.00
H1702  H     0.44821   0.46138   0.69625   0.00000  Uiso   1.00
H1703  H     0.30652   0.18326   0.76065   0.00000  Uiso   1.00
H1704  H     0.44424   0.40185   0.68250   0.00000  Uiso   1.00
H1705  H     0.36545   0.27422   0.88408   0.00000  Uiso   1.00
H1706  H     0.33439   0.30549   0.92445   0.00000  Uiso   1.00
H1707  H     0.38565   0.27875   0.98412   0.00000  Uiso   1.00
H1708  H     0.35773   0.23325   0.95632   0.00000  Uiso   1.00
H1709  H     0.41177   0.24531   0.94202   0.00000  Uiso   1.00
H1710  H     0.05041   0.09096   0.74351   0.00000  Uiso   1.00
H1711  H     0.10413   0.07417   0.74429   0.00000  Uiso   1.00
H1712  H     0.11936   0.10746   0.67352   0.00000  Uiso   1.00
H1713  H     0.07092   0.07516   0.66829   0.00000  Uiso   1.00
H1714  H     0.30854   0.24143   0.74193   0.00000  Uiso   1.00
H1715  H     0.06967   0.13630   0.67232   0.00000  Uiso   1.00
H1716  H     0.13622   0.48682   0.73468   0.00000  Uiso   1.00
H1717  H     0.11954   0.47725   0.79051   0.00000  Uiso   1.00
H1718  H     0.05652   0.43326   0.76066   0.00000  Uiso   1.00
H1719  H     0.05854   0.49143   0.74194   0.00000  Uiso   1.00
H1720  H     0.07393   0.44631   0.70464   0.00000  Uiso   1.00
H1721  H     0.32229   0.13558   0.94126   0.00000  Uiso   1.00
H1722  H     0.37777   0.14519   0.94264   0.00000  Uiso   1.00
H1723  H     0.38876   0.08353   0.99392   0.00000  Uiso   1.00
H1724  H     0.35219   0.12522   0.68208   0.00000  Uiso   1.00
H1725  H     0.32393   0.19631   0.70464   0.00000  Uiso   1.00
H1726  H     0.33330   0.07070   0.99495   0.00000  Uiso   1.00
H1727  H     0.37135   0.02060   0.72511   0.00000  Uiso   1.00
H1728  H     0.37637   0.02222   0.78385   0.00000  Uiso   1.00
H1729  H     0.44029   0.07529   0.77429   0.00000  Uiso   1.00
H1730  H     0.44661   0.02041   0.74969   0.00000  Uiso   1.00
H1731  H     0.43508   0.06838   0.71497   0.00000  Uiso   1.00
H1732  H     0.24077   0.33756   0.86774   0.00000  Uiso   1.00
H1733  H     0.19337   0.30843   0.85211   0.00000  Uiso   1.00
H1734  H     0.18334   0.28283   0.93046   0.00000  Uiso   1.00
H1735  H     0.23157   0.26273   0.90559   0.00000  Uiso   1.00
H1736  H     0.07229   0.38558   0.94126   0.00000  Uiso   1.00
H1737  H     0.23289   0.30866   0.94550   0.00000  Uiso   1.00
H1738  H     0.39172   0.45994   0.90015   0.00000  Uiso   1.00
H1739  H     0.40344   0.42292   0.94644   0.00000  Uiso   1.00
H1740  H     0.34067   0.45903   0.98718   0.00000  Uiso   1.00
H1741  H     0.38305   0.49750   0.97480   0.00000  Uiso   1.00
H1742  H     0.33618   0.49773   0.94110   0.00000  Uiso   1.00
H1743  H     0.22238   0.17068   0.76126   0.00000  Uiso   1.00
H1744  H     0.17201   0.19317   0.77385   0.00000  Uiso   1.00
H1745  H     0.14782   0.18308   0.69828   0.00000  Uiso   1.00
H1746  H     0.19821   0.21138   0.69625   0.00000  Uiso   1.00
H1747  H     0.12777   0.39519   0.94264   0.00000  Uiso   1.00
H1748  H     0.19425   0.15185   0.68250   0.00000  Uiso   1.00
H1749  H     0.11545   0.02422   0.88408   0.00000  Uiso   1.00
H1750  H     0.08439   0.05549   0.92445   0.00000  Uiso   1.00
H1751  H     0.13565   0.02875   0.98412   0.00000  Uiso   1.00
H1752  H     0.10773   0.48325   0.95632   0.00000  Uiso   1.00
H1753  H     0.16177   0.49532   0.94202   0.00000  Uiso   1.00
H1754  H     0.30041   0.34096   0.74351   0.00000  Uiso   1.00
H1755  H     0.35413   0.32417   0.74429   0.00000  Uiso   1.00
H1756  H     0.36937   0.35746   0.67352   0.00000  Uiso   1.00
H1757  H     0.32092   0.32516   0.66829   0.00000  Uiso   1.00
H1758  H     0.13876   0.33353   0.99392   0.00000  Uiso   1.00
H1759  H     0.31967   0.38630   0.67232   0.00000  Uiso   1.00
H1760  H     0.10218   0.37523   0.68208   0.00000  Uiso   1.00
N1761  N     0.00000   0.25000   0.95240   0.00000  Uiso   1.00
N1762  N     0.00000   0.25000   0.71427   0.00000  Uiso   1.00
N1763  N     0.25000  -0.00000   0.95240   0.00000  Uiso   1.00
N1764  N     0.25000  -0.00000   0.71427   0.00000  Uiso   1.00
O1765  O     0.04581   0.20419   0.87154   0.00000  Uiso   1.00
O1766  O     0.20420   0.04581   0.79513   0.00000  Uiso   1.00
O1767  O     0.20420   0.04581   0.87154   0.00000  Uiso   1.00
O1768  O     0.29581   0.45419   0.79513   0.00000  Uiso   1.00
O1769  O     0.20420   0.45419   0.79513   0.00000  Uiso   1.00
O1770  O     0.29581   0.04581   0.87154   0.00000  Uiso   1.00
O1771  O     0.29581   0.04581   0.79513   0.00000  Uiso   1.00
O1772  O     0.20420   0.45419   0.87154   0.00000  Uiso   1.00
O1773  O     0.39075   0.16994   0.75336   0.00000  Uiso   1.00
O1774  O     0.10680   0.33304   0.91281   0.00000  Uiso   1.00
O1775  O     0.10682   0.33294   0.75230   0.00000  Uiso   1.00
O1776  O     0.45420   0.29581   0.79513   0.00000  Uiso   1.00
O1777  O     0.43751   0.11619   0.89567   0.00000  Uiso   1.00
O1778  O     0.09674   0.15895   0.91555   0.00000  Uiso   1.00
O1779  O     0.42589   0.37123   0.76049   0.00000  Uiso   1.00
O1780  O     0.39458   0.33107   0.91396   0.00000  Uiso   1.00
O1781  O     0.09102   0.14537   0.75345   0.00000  Uiso   1.00
O1782  O     0.14075   0.41994   0.75336   0.00000  Uiso   1.00
O1783  O     0.35680   0.08304   0.91281   0.00000  Uiso   1.00
O1784  O     0.35682   0.08294   0.75230   0.00000  Uiso   1.00
O1785  O     0.18752   0.36619   0.89567   0.00000  Uiso   1.00
O1786  O     0.34674   0.40895   0.91555   0.00000  Uiso   1.00
O1787  O     0.45420   0.29581   0.87154   0.00000  Uiso   1.00
O1788  O     0.17589   0.12123   0.76049   0.00000  Uiso   1.00
O1789  O     0.14458   0.08107   0.91396   0.00000  Uiso   1.00
O1790  O     0.34102   0.39537   0.75345   0.00000  Uiso   1.00
O1791  O     0.04581   0.20419   0.79513   0.00000  Uiso   1.00
O1792  O     0.45420   0.20419   0.79513   0.00000  Uiso   1.00
O1793  O     0.04581   0.29581   0.87154   0.00000  Uiso   1.00
O1794  O     0.04581   0.29581   0.79513   0.00000  Uiso   1.00
O1795  O     0.45420   0.20419   0.87154   0.00000  Uiso   1.00
O1796  O     0.29581   0.45419   0.87154   0.00000  Uiso   1.00
Zn1797 Zn    0.00000   0.25000   0.88437   0.00000  Uiso   1.00
Zn1798 Zn    0.00000   0.25000   0.78229   0.00000  Uiso   1.00
Zn1799 Zn    0.25000  -0.00000   0.88437   0.00000  Uiso   1.00
Zn1800 Zn    0.25000  -0.00000   0.78229   0.00000  Uiso   1.00
Br1801 Br    0.51172   0.34563   0.72058   0.00000  Uiso   1.00
Br1802 Br    0.50513   0.15434   0.94604   0.00000  Uiso   1.00
Br1803 Br    0.98880   0.15425   0.72074   0.00000  Uiso   1.00
Br1804 Br    0.99360   0.34635   0.94554   0.00000  Uiso   1.00
Br1805 Br    0.76172   0.09563   0.72058   0.00000  Uiso   1.00
Br1806 Br    0.75513   0.40434   0.94604   0.00000  Uiso   1.00
Br1807 Br    0.73880   0.40425   0.72074   0.00000  Uiso   1.00
Br1808 Br    0.74360   0.09635   0.94554   0.00000  Uiso   1.00
C1809  C     0.55929   0.18923   0.83341   0.00000  Uiso   1.00
C1810  C     0.99976   0.21041   0.97629   0.00000  Uiso   1.00
C1811  C     0.99739   0.21040   0.69036   0.00000  Uiso   1.00
C1812  C     0.99950   0.28979   0.97625   0.00000  Uiso   1.00
C1813  C     0.75214   0.03967   0.69039   0.00000  Uiso   1.00
C1814  C     0.74976   0.46041   0.97629   0.00000  Uiso   1.00
C1815  C     0.74739   0.46040   0.69036   0.00000  Uiso   1.00
C1816  C     0.74950   0.03979   0.97625   0.00000  Uiso   1.00
C1817  C     0.88534   0.14588   0.79252   0.00000  Uiso   1.00
C1818  C     0.61738   0.35153   0.87213   0.00000  Uiso   1.00
C1819  C     0.61145   0.35642   0.79193   0.00000  Uiso   1.00
C1820  C     0.94111   0.31097   0.83368   0.00000  Uiso   1.00
C1821  C     0.90460   0.12551   0.86751   0.00000  Uiso   1.00
C1822  C     0.60862   0.14012   0.87529   0.00000  Uiso   1.00
C1823  C     0.89914   0.36940   0.79672   0.00000  Uiso   1.00
C1824  C     0.88687   0.35436   0.87491   0.00000  Uiso   1.00
C1825  C     0.60973   0.13915   0.79444   0.00000  Uiso   1.00
C1826  C     0.63534   0.39588   0.79252   0.00000  Uiso   1.00
C1827  C     0.86738   0.10154   0.87213   0.00000  Uiso   1.00
C1828  C     0.86145   0.10642   0.79193   0.00000  Uiso   1.00
C1829  C     0.65460   0.37550   0.86751   0.00000  Uiso   1.00
C1830  C     0.85861   0.39012   0.87529   0.00000  Uiso   1.00
C1831  C     0.94079   0.18936   0.83293   0.00000  Uiso   1.00
C1832  C     0.64914   0.11940   0.79672   0.00000  Uiso   1.00
C1833  C     0.63687   0.10436   0.87491   0.00000  Uiso   1.00
C1834  C     0.85973   0.38915   0.79444   0.00000  Uiso   1.00
C1835  C     0.59630   0.33964   0.83284   0.00000  Uiso   1.00
C1836  C     0.90917   0.15440   0.83128   0.00000  Uiso   1.00
C1837  C     0.90903   0.34532   0.83516   0.00000  Uiso   1.00
C1838  C     0.59222   0.15542   0.83427   0.00000  Uiso   1.00
C1839  C     0.84630   0.08964   0.83284   0.00000  Uiso   1.00
C1840  C     0.65918   0.40440   0.83128   0.00000  Uiso   1.00
C1841  C     0.65903   0.09532   0.83516   0.00000  Uiso   1.00
C1842  C     0.56082   0.30892   0.83333   0.00000  Uiso   1.00
C1843  C     0.84222   0.40542   0.83427   0.00000  Uiso   1.00
C1844  C     0.86947   0.21215   0.75638   0.00000  Uiso   1.00
C1845  C     0.82429   0.20783   0.73983   0.00000  Uiso   1.00
C1846  C     0.60304   0.36837   0.94472   0.00000  Uiso   1.00
C1847  C     0.60688   0.34808   0.99032   0.00000  Uiso   1.00
C1848  C     0.63150   0.29265   0.75318   0.00000  Uiso   1.00
C1849  C     0.67861   0.30250   0.74760   0.00000  Uiso   1.00
C1850  C     0.95919   0.07702   0.87997   0.00000  Uiso   1.00
C1851  C     0.96464   0.04331   0.91782   0.00000  Uiso   1.00
C1852  C     0.62777   0.19086   0.92874   0.00000  Uiso   1.00
C1853  C     0.80929   0.43922   0.83341   0.00000  Uiso   1.00
C1854  C     0.60816   0.22585   0.95988   0.00000  Uiso   1.00
C1855  C     0.93850   0.41710   0.75311   0.00000  Uiso   1.00
C1856  C     0.93190   0.42908   0.70448   0.00000  Uiso   1.00
C1857  C     0.86666   0.29357   0.91609   0.00000  Uiso   1.00
C1858  C     0.88136   0.26079   0.95193   0.00000  Uiso   1.00
C1859  C     0.58259   0.10208   0.73402   0.00000  Uiso   1.00
C1860  C     0.58585   0.10544   0.68382   0.00000  Uiso   1.00
C1861  C     0.61947   0.46215   0.75638   0.00000  Uiso   1.00
C1862  C     0.57428   0.45783   0.73983   0.00000  Uiso   1.00
C1863  C     0.85304   0.11837   0.94472   0.00000  Uiso   1.00
C1864  C     0.69111   0.06097   0.83368   0.00000  Uiso   1.00
C1865  C     0.85688   0.09808   0.99032   0.00000  Uiso   1.00
C1866  C     0.88151   0.04265   0.75319   0.00000  Uiso   1.00
C1867  C     0.92861   0.05250   0.74761   0.00000  Uiso   1.00
C1868  C     0.70919   0.32702   0.87997   0.00000  Uiso   1.00
C1869  C     0.71464   0.29331   0.91782   0.00000  Uiso   1.00
C1870  C     0.87777   0.44086   0.92875   0.00000  Uiso   1.00
C1871  C     0.85816   0.47585   0.95988   0.00000  Uiso   1.00
C1872  C     0.68850   0.16710   0.75310   0.00000  Uiso   1.00
C1873  C     0.68190   0.17907   0.70448   0.00000  Uiso   1.00
C1874  C     0.61666   0.04357   0.91609   0.00000  Uiso   1.00
C1875  C     0.69079   0.43936   0.83293   0.00000  Uiso   1.00
C1876  C     0.63136   0.01079   0.95193   0.00000  Uiso   1.00
C1877  C     0.83259   0.35208   0.73402   0.00000  Uiso   1.00
C1878  C     0.83585   0.35544   0.68382   0.00000  Uiso   1.00
C1879  C     0.81082   0.05892   0.83333   0.00000  Uiso   1.00
C1880  C     0.50214   0.28967   0.69039   0.00000  Uiso   1.00
H1881  H     0.88623   0.23682   0.73468   0.00000  Uiso   1.00
H1882  H     0.58330   0.32070   0.99495   0.00000  Uiso   1.00
H1883  H     0.62135   0.27060   0.72511   0.00000  Uiso   1.00
H1884  H     0.62637   0.27222   0.78384   0.00000  Uiso   1.00
H1885  H     0.69029   0.32529   0.77430   0.00000  Uiso   1.00
H1886  H     0.69661   0.27041   0.74968   0.00000  Uiso   1.00
H1887  H     0.68508   0.31838   0.71497   0.00000  Uiso   1.00
H1888  H     0.99077   0.08756   0.86774   0.00000  Uiso   1.00
H1889  H     0.94337   0.05843   0.85211   0.00000  Uiso   1.00
H1890  H     0.93334   0.03284   0.93046   0.00000  Uiso   1.00
H1891  H     0.98157   0.01273   0.90559   0.00000  Uiso   1.00
H1892  H     0.86954   0.22725   0.79050   0.00000  Uiso   1.00
H1893  H     0.98289   0.05866   0.94549   0.00000  Uiso   1.00
H1894  H     0.64172   0.20994   0.90015   0.00000  Uiso   1.00
H1895  H     0.65344   0.17292   0.94644   0.00000  Uiso   1.00
H1896  H     0.59067   0.20903   0.98718   0.00000  Uiso   1.00
H1897  H     0.63305   0.24750   0.97480   0.00000  Uiso   1.00
H1898  H     0.58618   0.24773   0.94110   0.00000  Uiso   1.00
H1899  H     0.97238   0.42068   0.76126   0.00000  Uiso   1.00
H1900  H     0.92201   0.44317   0.77385   0.00000  Uiso   1.00
H1901  H     0.89783   0.43309   0.69828   0.00000  Uiso   1.00
H1902  H     0.94821   0.46138   0.69625   0.00000  Uiso   1.00
H1903  H     0.80652   0.18326   0.76065   0.00000  Uiso   1.00
H1904  H     0.94424   0.40185   0.68250   0.00000  Uiso   1.00
H1905  H     0.86545   0.27422   0.88408   0.00000  Uiso   1.00
H1906  H     0.83439   0.30549   0.92445   0.00000  Uiso   1.00
H1907  H     0.88565   0.27875   0.98412   0.00000  Uiso   1.00
H1908  H     0.85773   0.23325   0.95632   0.00000  Uiso   1.00
H1909  H     0.91177   0.24531   0.94202   0.00000  Uiso   1.00
H1910  H     0.55041   0.09096   0.74351   0.00000  Uiso   1.00
H1911  H     0.60413   0.07417   0.74429   0.00000  Uiso   1.00
H1912  H     0.61936   0.10746   0.67352   0.00000  Uiso   1.00
H1913  H     0.57092   0.07516   0.66829   0.00000  Uiso   1.00
H1914  H     0.80854   0.24143   0.74193   0.00000  Uiso   1.00
H1915  H     0.56967   0.13630   0.67232   0.00000  Uiso   1.00
H1916  H     0.63622   0.48682   0.73468   0.00000  Uiso   1.00
H1917  H     0.61954   0.47725   0.79051   0.00000  Uiso   1.00
H1918  H     0.55652   0.43326   0.76066   0.00000  Uiso   1.00
H1919  H     0.55854   0.49143   0.74194   0.00000  Uiso   1.00
H1920  H     0.57393   0.44631   0.70464   0.00000  Uiso   1.00
H1921  H     0.82229   0.13558   0.94126   0.00000  Uiso   1.00
H1922  H     0.87777   0.14519   0.94264   0.00000  Uiso   1.00
H1923  H     0.88876   0.08353   0.99392   0.00000  Uiso   1.00
H1924  H     0.85219   0.12522   0.68208   0.00000  Uiso   1.00
H1925  H     0.82393   0.19631   0.70464   0.00000  Uiso   1.00
H1926  H     0.83330   0.07070   0.99495   0.00000  Uiso   1.00
H1927  H     0.87135   0.02060   0.72511   0.00000  Uiso   1.00
H1928  H     0.87637   0.02222   0.78385   0.00000  Uiso   1.00
H1929  H     0.94029   0.07529   0.77429   0.00000  Uiso   1.00
H1930  H     0.94661   0.02041   0.74969   0.00000  Uiso   1.00
H1931  H     0.93508   0.06838   0.71497   0.00000  Uiso   1.00
H1932  H     0.74077   0.33756   0.86774   0.00000  Uiso   1.00
H1933  H     0.69337   0.30843   0.85211   0.00000  Uiso   1.00
H1934  H     0.68334   0.28283   0.93046   0.00000  Uiso   1.00
H1935  H     0.73157   0.26273   0.90559   0.00000  Uiso   1.00
H1936  H     0.57229   0.38558   0.94126   0.00000  Uiso   1.00
H1937  H     0.73289   0.30866   0.94550   0.00000  Uiso   1.00
H1938  H     0.89172   0.45994   0.90015   0.00000  Uiso   1.00
H1939  H     0.90344   0.42292   0.94644   0.00000  Uiso   1.00
H1940  H     0.84067   0.45903   0.98718   0.00000  Uiso   1.00
H1941  H     0.88305   0.49750   0.97480   0.00000  Uiso   1.00
H1942  H     0.83618   0.49773   0.94110   0.00000  Uiso   1.00
H1943  H     0.72238   0.17068   0.76126   0.00000  Uiso   1.00
H1944  H     0.67201   0.19317   0.77385   0.00000  Uiso   1.00
H1945  H     0.64782   0.18308   0.69828   0.00000  Uiso   1.00
H1946  H     0.69821   0.21138   0.69625   0.00000  Uiso   1.00
H1947  H     0.62777   0.39519   0.94264   0.00000  Uiso   1.00
H1948  H     0.69425   0.15185   0.68250   0.00000  Uiso   1.00
H1949  H     0.61545   0.02422   0.88408   0.00000  Uiso   1.00
H1950  H     0.58439   0.05549   0.92445   0.00000  Uiso   1.00
H1951  H     0.63565   0.02875   0.98412   0.00000  Uiso   1.00
H1952  H     0.60773   0.48325   0.95632   0.00000  Uiso   1.00
H1953  H     0.66177   0.49532   0.94202   0.00000  Uiso   1.00
H1954  H     0.80041   0.34096   0.74351   0.00000  Uiso   1.00
H1955  H     0.85413   0.32417   0.74429   0.00000  Uiso   1.00
H1956  H     0.86937   0.35746   0.67352   0.00000  Uiso   1.00
H1957  H     0.82092   0.32516   0.66829   0.00000  Uiso   1.00
H1958  H     0.63876   0.33353   0.99392   0.00000  Uiso   1.00
H1959  H     0.81967   0.38630   0.67232   0.00000  Uiso   1.00
H1960  H     0.60218   0.37523   0.68208   0.00000  Uiso   1.00
N1961  N     0.50000   0.25000   0.95240   0.00000  Uiso   1.00
N1962  N     0.50000   0.25000   0.71427   0.00000  Uiso   1.00
N1963  N     0.75000  -0.00000   0.95240   0.00000  Uiso   1.00
N1964  N     0.75000  -0.00000   0.71427   0.00000  Uiso   1.00
O1965  O     0.54581   0.20419   0.87154   0.00000  Uiso   1.00
O1966  O     0.70420   0.04581   0.79513   0.00000  Uiso   1.00
O1967  O     0.70420   0.04581   0.87154   0.00000  Uiso   1.00
O1968  O     0.79581   0.45419   0.79513   0.00000  Uiso   1.00
O1969  O     0.70420   0.45419   0.79513   0.00000  Uiso   1.00
O1970  O     0.79581   0.04581   0.87154   0.00000  Uiso   1.00
O1971  O     0.79581   0.04581   0.79513   0.00000  Uiso   1.00
O1972  O     0.70420   0.45419   0.87154   0.00000  Uiso   1.00
O1973  O     0.89075   0.16994   0.75336   0.00000  Uiso   1.00
O1974  O     0.60680   0.33304   0.91281   0.00000  Uiso   1.00
O1975  O     0.60682   0.33294   0.75230   0.00000  Uiso   1.00
O1976  O     0.95420   0.29581   0.79513   0.00000  Uiso   1.00
O1977  O     0.93751   0.11619   0.89567   0.00000  Uiso   1.00
O1978  O     0.59674   0.15895   0.91555   0.00000  Uiso   1.00
O1979  O     0.92589   0.37123   0.76049   0.00000  Uiso   1.00
O1980  O     0.89458   0.33107   0.91396   0.00000  Uiso   1.00
O1981  O     0.59102   0.14537   0.75345   0.00000  Uiso   1.00
O1982  O     0.64075   0.41994   0.75336   0.00000  Uiso   1.00
O1983  O     0.85680   0.08304   0.91281   0.00000  Uiso   1.00
O1984  O     0.85682   0.08294   0.75230   0.00000  Uiso   1.00
O1985  O     0.68752   0.36619   0.89567   0.00000  Uiso   1.00
O1986  O     0.84674   0.40895   0.91555   0.00000  Uiso   1.00
O1987  O     0.95420   0.29581   0.87154   0.00000  Uiso   1.00
O1988  O     0.67589   0.12123   0.76049   0.00000  Uiso   1.00
O1989  O     0.64458   0.08107   0.91396   0.00000  Uiso   1.00
O1990  O     0.84102   0.39537   0.75345   0.00000  Uiso   1.00
O1991  O     0.54581   0.20419   0.79513   0.00000  Uiso   1.00
O1992  O     0.95420   0.20419   0.79513   0.00000  Uiso   1.00
O1993  O     0.54581   0.29581   0.87154   0.00000  Uiso   1.00
O1994  O     0.54581   0.29581   0.79513   0.00000  Uiso   1.00
O1995  O     0.95420   0.20419   0.87154   0.00000  Uiso   1.00
O1996  O     0.79581   0.45419   0.87154   0.00000  Uiso   1.00
Zn1997 Zn    0.50000   0.25000   0.88437   0.00000  Uiso   1.00
Zn1998 Zn    0.50000   0.25000   0.78229   0.00000  Uiso   1.00
Zn1999 Zn    0.75000  -0.00000   0.88437   0.00000  Uiso   1.00
Zn2000 Zn    0.75000  -0.00000   0.78229   0.00000  Uiso   1.00
Br2001 Br    0.01172   0.84563   0.72058   0.00000  Uiso   1.00
Br2002 Br    0.00513   0.65434   0.94604   0.00000  Uiso   1.00
Br2003 Br    0.48880   0.65425   0.72074   0.00000  Uiso   1.00
Br2004 Br    0.49360   0.84635   0.94554   0.00000  Uiso   1.00
Br2005 Br    0.26172   0.59563   0.72058   0.00000  Uiso   1.00
Br2006 Br    0.25513   0.90434   0.94604   0.00000  Uiso   1.00
Br2007 Br    0.23880   0.90425   0.72074   0.00000  Uiso   1.00
Br2008 Br    0.24360   0.59635   0.94554   0.00000  Uiso   1.00
C2009  C     0.05929   0.68923   0.83341   0.00000  Uiso   1.00
C2010  C     0.49976   0.71041   0.97629   0.00000  Uiso   1.00
C2011  C     0.49739   0.71040   0.69036   0.00000  Uiso   1.00
C2012  C     0.49950   0.78979   0.97625   0.00000  Uiso   1.00
C2013  C     0.25214   0.53967   0.69039   0.00000  Uiso   1.00
C2014  C     0.24976   0.96041   0.97629   0.00000  Uiso   1.00
C2015  C     0.24739   0.96040   0.69036   0.00000  Uiso   1.00
C2016  C     0.24950   0.53979   0.97625   0.00000  Uiso   1.00
C2017  C     0.38534   0.64588   0.79252   0.00000  Uiso   1.00
C2018  C     0.11738   0.85153   0.87213   0.00000  Uiso   1.00
C2019  C     0.11145   0.85642   0.79193   0.00000  Uiso   1.00
C2020  C     0.44111   0.81097   0.83368   0.00000  Uiso   1.00
C2021  C     0.40460   0.62551   0.86751   0.00000  Uiso   1.00
C2022  C     0.10862   0.64012   0.87529   0.00000  Uiso   1.00
C2023  C     0.39914   0.86940   0.79672   0.00000  Uiso   1.00
C2024  C     0.38687   0.85436   0.87491   0.00000  Uiso   1.00
C2025  C     0.10973   0.63915   0.79444   0.00000  Uiso   1.00
C2026  C     0.13534   0.89588   0.79252   0.00000  Uiso   1.00
C2027  C     0.36738   0.60154   0.87213   0.00000  Uiso   1.00
C2028  C     0.36145   0.60642   0.79193   0.00000  Uiso   1.00
C2029  C     0.15460   0.87550   0.86751   0.00000  Uiso   1.00
C2030  C     0.35861   0.89012   0.87529   0.00000  Uiso   1.00
C2031  C     0.44079   0.68936   0.83293   0.00000  Uiso   1.00
C2032  C     0.14914   0.61940   0.79672   0.00000  Uiso   1.00
C2033  C     0.13687   0.60436   0.87491   0.00000  Uiso   1.00
C2034  C     0.35973   0.88915   0.79444   0.00000  Uiso   1.00
C2035  C     0.09630   0.83964   0.83284   0.00000  Uiso   1.00
C2036  C     0.40917   0.65440   0.83128   0.00000  Uiso   1.00
C2037  C     0.40903   0.84532   0.83516   0.00000  Uiso   1.00
C2038  C     0.09222   0.65542   0.83427   0.00000  Uiso   1.00
C2039  C     0.34630   0.58964   0.83284   0.00000  Uiso   1.00
C2040  C     0.15918   0.90440   0.83128   0.00000  Uiso   1.00
C2041  C     0.15903   0.59532   0.83516   0.00000  Uiso   1.00
C2042  C     0.06082   0.80892   0.83333   0.00000  Uiso   1.00
C2043  C     0.34222   0.90542   0.83427   0.00000  Uiso   1.00
C2044  C     0.36947   0.71215   0.75638   0.00000  Uiso   1.00
C2045  C     0.32429   0.70783   0.73983   0.00000  Uiso   1.00
C2046  C     0.10304   0.86837   0.94472   0.00000  Uiso   1.00
C2047  C     0.10688   0.84808   0.99032   0.00000  Uiso   1.00
C2048  C     0.13150   0.79265   0.75318   0.00000  Uiso   1.00
C2049  C     0.17861   0.80250   0.74760   0.00000  Uiso   1.00
C2050  C     0.45919   0.57702   0.87997   0.00000  Uiso   1.00
C2051  C     0.46464   0.54331   0.91782   0.00000  Uiso   1.00
C2052  C     0.12777   0.69086   0.92874   0.00000  Uiso   1.00
C2053  C     0.30929   0.93922   0.83341   0.00000  Uiso   1.00
C2054  C     0.10816   0.72585   0.95988   0.00000  Uiso   1.00
C2055  C     0.43850   0.91710   0.75311   0.00000  Uiso   1.00
C2056  C     0.43190   0.92908   0.70448   0.00000  Uiso   1.00
C2057  C     0.36666   0.79357   0.91609   0.00000  Uiso   1.00
C2058  C     0.38136   0.76079   0.95193   0.00000  Uiso   1.00
C2059  C     0.08259   0.60208   0.73402   0.00000  Uiso   1.00
C2060  C     0.08585   0.60544   0.68382   0.00000  Uiso   1.00
C2061  C     0.11947   0.96215   0.75638   0.00000  Uiso   1.00
C2062  C     0.07428   0.95783   0.73983   0.00000  Uiso   1.00
C2063  C     0.35304   0.61837   0.94472   0.00000  Uiso   1.00
C2064  C     0.19111   0.56097   0.83368   0.00000  Uiso   1.00
C2065  C     0.35688   0.59808   0.99032   0.00000  Uiso   1.00
C2066  C     0.38151   0.54265   0.75319   0.00000  Uiso   1.00
C2067  C     0.42861   0.55250   0.74761   0.00000  Uiso   1.00
C2068  C     0.20919   0.82702   0.87997   0.00000  Uiso   1.00
C2069  C     0.21464   0.79331   0.91782   0.00000  Uiso   1.00
C2070  C     0.37777   0.94086   0.92875   0.00000  Uiso   1.00
C2071  C     0.35816   0.97585   0.95988   0.00000  Uiso   1.00
C2072  C     0.18850   0.66710   0.75310   0.00000  Uiso   1.00
C2073  C     0.18190   0.67907   0.70448   0.00000  Uiso   1.00
C2074  C     0.11666   0.54357   0.91609   0.00000  Uiso   1.00
C2075  C     0.19079   0.93936   0.83293   0.00000  Uiso   1.00
C2076  C     0.13136   0.51079   0.95193   0.00000  Uiso   1.00
C2077  C     0.33259   0.85208   0.73402   0.00000  Uiso   1.00
C2078  C     0.33585   0.85544   0.68382   0.00000  Uiso   1.00
C2079  C     0.31082   0.55892   0.83333   0.00000  Uiso   1.00
C2080  C     0.00214   0.78967   0.69039   0.00000  Uiso   1.00
H2081  H     0.38623   0.73682   0.73468   0.00000  Uiso   1.00
H2082  H     0.08330   0.82070   0.99495   0.00000  Uiso   1.00
H2083  H     0.12135   0.77060   0.72511   0.00000  Uiso   1.00
H2084  H     0.12637   0.77222   0.78384   0.00000  Uiso   1.00
H2085  H     0.19029   0.82529   0.77430   0.00000  Uiso   1.00
H2086  H     0.19661   0.77041   0.74968   0.00000  Uiso   1.00
H2087  H     0.18508   0.81838   0.71497   0.00000  Uiso   1.00
H2088  H     0.49077   0.58756   0.86774   0.00000  Uiso   1.00
H2089  H     0.44337   0.55843   0.85211   0.00000  Uiso   1.00
H2090  H     0.43334   0.53284   0.93046   0.00000  Uiso   1.00
H2091  H     0.48157   0.51273   0.90559   0.00000  Uiso   1.00
H2092  H     0.36954   0.72725   0.79050   0.00000  Uiso   1.00
H2093  H     0.48289   0.55866   0.94549   0.00000  Uiso   1.00
H2094  H     0.14172   0.70994   0.90015   0.00000  Uiso   1.00
H2095  H     0.15344   0.67292   0.94644   0.00000  Uiso   1.00
H2096  H     0.09067   0.70903   0.98718   0.00000  Uiso   1.00
H2097  H     0.13305   0.74750   0.97480   0.00000  Uiso   1.00
H2098  H     0.08618   0.74773   0.94110   0.00000  Uiso   1.00
H2099  H     0.47238   0.92068   0.76126   0.00000  Uiso   1.00
H2100  H     0.42201   0.94317   0.77385   0.00000  Uiso   1.00
H2101  H     0.39783   0.93309   0.69828   0.00000  Uiso   1.00
H2102  H     0.44821   0.96138   0.69625   0.00000  Uiso   1.00
H2103  H     0.30652   0.68326   0.76065   0.00000  Uiso   1.00
H2104  H     0.44424   0.90185   0.68250   0.00000  Uiso   1.00
H2105  H     0.36545   0.77422   0.88408   0.00000  Uiso   1.00
H2106  H     0.33439   0.80549   0.92445   0.00000  Uiso   1.00
H2107  H     0.38565   0.77875   0.98412   0.00000  Uiso   1.00
H2108  H     0.35773   0.73325   0.95632   0.00000  Uiso   1.00
H2109  H     0.41177   0.74531   0.94202   0.00000  Uiso   1.00
H2110  H     0.05041   0.59096   0.74351   0.00000  Uiso   1.00
H2111  H     0.10413   0.57417   0.74429   0.00000  Uiso   1.00
H2112  H     0.11936   0.60746   0.67352   0.00000  Uiso   1.00
H2113  H     0.07092   0.57516   0.66829   0.00000  Uiso   1.00
H2114  H     0.30854   0.74143   0.74193   0.00000  Uiso   1.00
H2115  H     0.06967   0.63630   0.67232   0.00000  Uiso   1.00
H2116  H     0.13622   0.98682   0.73468   0.00000  Uiso   1.00
H2117  H     0.11954   0.97725   0.79051   0.00000  Uiso   1.00
H2118  H     0.05652   0.93326   0.76066   0.00000  Uiso   1.00
H2119  H     0.05854   0.99143   0.74194   0.00000  Uiso   1.00
H2120  H     0.07393   0.94631   0.70464   0.00000  Uiso   1.00
H2121  H     0.32229   0.63558   0.94126   0.00000  Uiso   1.00
H2122  H     0.37777   0.64519   0.94264   0.00000  Uiso   1.00
H2123  H     0.38876   0.58353   0.99392   0.00000  Uiso   1.00
H2124  H     0.35219   0.62522   0.68208   0.00000  Uiso   1.00
H2125  H     0.32393   0.69631   0.70464   0.00000  Uiso   1.00
H2126  H     0.33330   0.57070   0.99495   0.00000  Uiso   1.00
H2127  H     0.37135   0.52060   0.72511   0.00000  Uiso   1.00
H2128  H     0.37637   0.52222   0.78385   0.00000  Uiso   1.00
H2129  H     0.44029   0.57529   0.77429   0.00000  Uiso   1.00
H2130  H     0.44661   0.52041   0.74969   0.00000  Uiso   1.00
H2131  H     0.43508   0.56838   0.71497   0.00000  Uiso   1.00
H2132  H     0.24077   0.83756   0.86774   0.00000  Uiso   1.00
H2133  H     0.19337   0.80843   0.85211   0.00000  Uiso   1.00
H2134  H     0.18334   0.78283   0.93046   0.00000  Uiso   1.00
H2135  H     0.23157   0.76273   0.90559   0.00000  Uiso   1.00
H2136  H     0.07229   0.88558   0.94126   0.00000  Uiso   1.00
H2137  H     0.23289   0.80866   0.94550   0.00000  Uiso   1.00
H2138  H     0.39172   0.95994   0.90015   0.00000  Uiso   1.00
H2139  H     0.40344   0.92292   0.94644   0.00000  Uiso   1.00
H2140  H     0.34067   0.95903   0.98718   0.00000  Uiso   1.00
H2141  H     0.38305   0.99750   0.97480   0.00000  Uiso   1.00
H2142  H     0.33618   0.99773   0.94110   0.00000  Uiso   1.00
H2143  H     0.22238   0.67068   0.76126   0.00000  Uiso   1.00
H2144  H     0.17201   0.69317   0.77385   0.00000  Uiso   1.00
H2145  H     0.14782   0.68308   0.69828   0.00000  Uiso   1.00
H2146  H     0.19821   0.71138   0.69625   0.00000  Uiso   1.00
H2147  H     0.12777   0.89519   0.94264   0.00000  Uiso   1.00
H2148  H     0.19425   0.65185   0.68250   0.00000  Uiso   1.00
H2149  H     0.11545   0.52422   0.88408   0.00000  Uiso   1.00
H2150  H     0.08439   0.55549   0.92445   0.00000  Uiso   1.00
H2151  H     0.13565   0.52875   0.98412   0.00000  Uiso   1.00
H2152  H     0.10773   0.98325   0.95632   0.00000  Uiso   1.00
H2153  H     0.16177   0.99532   0.94202   0.00000  Uiso   1.00
H2154  H     0.30041   0.84096   0.74351   0.00000  Uiso   1.00
H2155  H     0.35413   0.82417   0.74429   0.00000  Uiso   1.00
H2156  H     0.36937   0.85746   0.67352   0.00000  Uiso   1.00
H2157  H     0.32092   0.82516   0.66829   0.00000  Uiso   1.00
H2158  H     0.13876   0.83353   0.99392   0.00000  Uiso   1.00
H2159  H     0.31967   0.88630   0.67232   0.00000  Uiso   1.00
H2160  H     0.10218   0.87523   0.68208   0.00000  Uiso   1.00
N2161  N     0.00000   0.75000   0.95240   0.00000  Uiso   1.00
N2162  N     0.00000   0.75000   0.71427   0.00000  Uiso   1.00
N2163  N     0.25000   0.50000   0.95240   0.00000  Uiso   1.00
N2164  N     0.25000   0.50000   0.71427   0.00000  Uiso   1.00
O2165  O     0.04581   0.70419   0.87154   0.00000  Uiso   1.00
O2166  O     0.20420   0.54581   0.79513   0.00000  Uiso   1.00
O2167  O     0.20420   0.54581   0.87154   0.00000  Uiso   1.00
O2168  O     0.29581   0.95419   0.79513   0.00000  Uiso   1.00
O2169  O     0.20420   0.95419   0.79513   0.00000  Uiso   1.00
O2170  O     0.29581   0.54581   0.87154   0.00000  Uiso   1.00
O2171  O     0.29581   0.54581   0.79513   0.00000  Uiso   1.00
O2172  O     0.20420   0.95419   0.87154   0.00000  Uiso   1.00
O2173  O     0.39075   0.66994   0.75336   0.00000  Uiso   1.00
O2174  O     0.10680   0.83304   0.91281   0.00000  Uiso   1.00
O2175  O     0.10682   0.83294   0.75230   0.00000  Uiso   1.00
O2176  O     0.45420   0.79581   0.79513   0.00000  Uiso   1.00
O2177  O     0.43751   0.61619   0.89567   0.00000  Uiso   1.00
O2178  O     0.09674   0.65895   0.91555   0.00000  Uiso   1.00
O2179  O     0.42589   0.87123   0.76049   0.00000  Uiso   1.00
O2180  O     0.39458   0.83107   0.91396   0.00000  Uiso   1.00
O2181  O     0.09102   0.64537   0.75345   0.00000  Uiso   1.00
O2182  O     0.14075   0.91994   0.75336   0.00000  Uiso   1.00
O2183  O     0.35680   0.58304   0.91281   0.00000  Uiso   1.00
O2184  O     0.35682   0.58294   0.75230   0.00000  Uiso   1.00
O2185  O     0.18752   0.86619   0.89567   0.00000  Uiso   1.00
O2186  O     0.34674   0.90895   0.91555   0.00000  Uiso   1.00
O2187  O     0.45420   0.79581   0.87154   0.00000  Uiso   1.00
O2188  O     0.17589   0.62123   0.76049   0.00000  Uiso   1.00
O2189  O     0.14458   0.58107   0.91396   0.00000  Uiso   1.00
O2190  O     0.34102   0.89537   0.75345   0.00000  Uiso   1.00
O2191  O     0.04581   0.70419   0.79513   0.00000  Uiso   1.00
O2192  O     0.45420   0.70419   0.79513   0.00000  Uiso   1.00
O2193  O     0.04581   0.79581   0.87154   0.00000  Uiso   1.00
O2194  O     0.04581   0.79581   0.79513   0.00000  Uiso   1.00
O2195  O     0.45420   0.70419   0.87154   0.00000  Uiso   1.00
O2196  O     0.29581   0.95419   0.87154   0.00000  Uiso   1.00
Zn2197 Zn    0.00000   0.75000   0.88437   0.00000  Uiso   1.00
Zn2198 Zn    0.00000   0.75000   0.78229   0.00000  Uiso   1.00
Zn2199 Zn    0.25000   0.50000   0.88437   0.00000  Uiso   1.00
Zn2200 Zn    0.25000   0.50000   0.78229   0.00000  Uiso   1.00
Br2201 Br    0.51172   0.84563   0.72058   0.00000  Uiso   1.00
Br2202 Br    0.50513   0.65434   0.94604   0.00000  Uiso   1.00
Br2203 Br    0.98880   0.65425   0.72074   0.00000  Uiso   1.00
Br2204 Br    0.99360   0.84635   0.94554   0.00000  Uiso   1.00
Br2205 Br    0.76172   0.59563   0.72058   0.00000  Uiso   1.00
Br2206 Br    0.75513   0.90434   0.94604   0.00000  Uiso   1.00
Br2207 Br    0.73880   0.90425   0.72074   0.00000  Uiso   1.00
Br2208 Br    0.74360   0.59635   0.94554   0.00000  Uiso   1.00
C2209  C     0.55929   0.68923   0.83341   0.00000  Uiso   1.00
C2210  C     0.99976   0.71041   0.97629   0.00000  Uiso   1.00
C2211  C     0.99739   0.71040   0.69036   0.00000  Uiso   1.00
C2212  C     0.99950   0.78979   0.97625   0.00000  Uiso   1.00
C2213  C     0.75214   0.53967   0.69039   0.00000  Uiso   1.00
C2214  C     0.74976   0.96041   0.97629   0.00000  Uiso   1.00
C2215  C     0.74739   0.96040   0.69036   0.00000  Uiso   1.00
C2216  C     0.74950   0.53979   0.97625   0.00000  Uiso   1.00
C2217  C     0.88534   0.64588   0.79252   0.00000  Uiso   1.00
C2218  C     0.61738   0.85153   0.87213   0.00000  Uiso   1.00
C2219  C     0.61145   0.85642   0.79193   0.00000  Uiso   1.00
C2220  C     0.94111   0.81097   0.83368   0.00000  Uiso   1.00
C2221  C     0.90460   0.62551   0.86751   0.00000  Uiso   1.00
C2222  C     0.60862   0.64012   0.87529   0.00000  Uiso   1.00
C2223  C     0.89914   0.86940   0.79672   0.00000  Uiso   1.00
C2224  C     0.88687   0.85436   0.87491   0.00000  Uiso   1.00
C2225  C     0.60973   0.63915   0.79444   0.00000  Uiso   1.00
C2226  C     0.63534   0.89588   0.79252   0.00000  Uiso   1.00
C2227  C     0.86738   0.60154   0.87213   0.00000  Uiso   1.00
C2228  C     0.86145   0.60642   0.79193   0.00000  Uiso   1.00
C2229  C     0.65460   0.87550   0.86751   0.00000  Uiso   1.00
C2230  C     0.85861   0.89012   0.87529   0.00000  Uiso   1.00
C2231  C     0.94079   0.68936   0.83293   0.00000  Uiso   1.00
C2232  C     0.64914   0.61940   0.79672   0.00000  Uiso   1.00
C2233  C     0.63687   0.60436   0.87491   0.00000  Uiso   1.00
C2234  C     0.85973   0.88915   0.79444   0.00000  Uiso   1.00
C2235  C     0.59630   0.83964   0.83284   0.00000  Uiso   1.00
C2236  C     0.90917   0.65440   0.83128   0.00000  Uiso   1.00
C2237  C     0.90903   0.84532   0.83516   0.00000  Uiso   1.00
C2238  C     0.59222   0.65542   0.83427   0.00000  Uiso   1.00
C2239  C     0.84630   0.58964   0.83284   0.00000  Uiso   1.00
C2240  C     0.65918   0.90440   0.83128   0.00000  Uiso   1.00
C2241  C     0.65903   0.59532   0.83516   0.00000  Uiso   1.00
C2242  C     0.56082   0.80892   0.83333   0.00000  Uiso   1.00
C2243  C     0.84222   0.90542   0.83427   0.00000  Uiso   1.00
C2244  C     0.86947   0.71215   0.75638   0.00000  Uiso   1.00
C2245  C     0.82429   0.70783   0.73983   0.00000  Uiso   1.00
C2246  C     0.60304   0.86837   0.94472   0.00000  Uiso   1.00
C2247  C     0.60688   0.84808   0.99032   0.00000  Uiso   1.00
C2248  C     0.63150   0.79265   0.75318   0.00000  Uiso   1.00
C2249  C     0.67861   0.80250   0.74760   0.00000  Uiso   1.00
C2250  C     0.95919   0.57702   0.87997   0.00000  Uiso   1.00
C2251  C     0.96464   0.54331   0.91782   0.00000  Uiso   1.00
C2252  C     0.62777   0.69086   0.92874   0.00000  Uiso   1.00
C2253  C     0.80929   0.93922   0.83341   0.00000  Uiso   1.00
C2254  C     0.60816   0.72585   0.95988   0.00000  Uiso   1.00
C2255  C     0.93850   0.91710   0.75311   0.00000  Uiso   1.00
C2256  C     0.93190   0.92908   0.70448   0.00000  Uiso   1.00
C2257  C     0.86666   0.79357   0.91609   0.00000  Uiso   1.00
C2258  C     0.88136   0.76079   0.95193   0.00000  Uiso   1.00
C2259  C     0.58259   0.60208   0.73402   0.00000  Uiso   1.00
C2260  C     0.58585   0.60544   0.68382   0.00000  Uiso   1.00
C2261  C     0.61947   0.96215   0.75638   0.00000  Uiso   1.00
C2262  C     0.57428   0.95783   0.73983   0.00000  Uiso   1.00
C2263  C     0.85304   0.61837   0.94472   0.00000  Uiso   1.00
C2264  C     0.69111   0.56097   0.83368   0.00000  Uiso   1.00
C2265  C     0.85688   0.59808   0.99032   0.00000  Uiso   1.00
C2266  C     0.88151   0.54265   0.75319   0.00000  Uiso   1.00
C2267  C     0.92861   0.55250   0.74761   0.00000  Uiso   1.00
C2268  C     0.70919   0.82702   0.87997   0.00000  Uiso   1.00
C2269  C     0.71464   0.79331   0.91782   0.00000  Uiso   1.00
C2270  C     0.87777   0.94086   0.92875   0.00000  Uiso   1.00
C2271  C     0.85816   0.97585   0.95988   0.00000  Uiso   1.00
C2272  C     0.68850   0.66710   0.75310   0.00000  Uiso   1.00
C2273  C     0.68190   0.67907   0.70448   0.00000  Uiso   1.00
C2274  C     0.61666   0.54357   0.91609   0.00000  Uiso   1.00
C2275  C     0.69079   0.93936   0.83293   0.00000  Uiso   1.00
C2276  C     0.63136   0.51079   0.95193   0.00000  Uiso   1.00
C2277  C     0.83259   0.85208   0.73402   0.00000  Uiso   1.00
C2278  C     0.83585   0.85544   0.68382   0.00000  Uiso   1.00
C2279  C     0.81082   0.55892   0.83333   0.00000  Uiso   1.00
C2280  C     0.50214   0.78967   0.69039   0.00000  Uiso   1.00
H2281  H     0.88623   0.73682   0.73468   0.00000  Uiso   1.00
H2282  H     0.58330   0.82070   0.99495   0.00000  Uiso   1.00
H2283  H     0.62135   0.77060   0.72511   0.00000  Uiso   1.00
H2284  H     0.62637   0.77222   0.78384   0.00000  Uiso   1.00
H2285  H     0.69029   0.82529   0.77430   0.00000  Uiso   1.00
H2286  H     0.69661   0.77041   0.74968   0.00000  Uiso   1.00
H2287  H     0.68508   0.81838   0.71497   0.00000  Uiso   1.00
H2288  H     0.99077   0.58756   0.86774   0.00000  Uiso   1.00
H2289  H     0.94337   0.55843   0.85211   0.00000  Uiso   1.00
H2290  H     0.93334   0.53284   0.93046   0.00000  Uiso   1.00
H2291  H     0.98157   0.51273   0.90559   0.00000  Uiso   1.00
H2292  H     0.86954   0.72725   0.79050   0.00000  Uiso   1.00
H2293  H     0.98289   0.55866   0.94549   0.00000  Uiso   1.00
H2294  H     0.64172   0.70994   0.90015   0.00000  Uiso   1.00
H2295  H     0.65344   0.67292   0.94644   0.00000  Uiso   1.00
H2296  H     0.59067   0.70903   0.98718   0.00000  Uiso   1.00
H2297  H     0.63305   0.74750   0.97480   0.00000  Uiso   1.00
H2298  H     0.58618   0.74773   0.94110   0.00000  Uiso   1.00
H2299  H     0.97238   0.92068   0.76126   0.00000  Uiso   1.00
H2300  H     0.92201   0.94317   0.77385   0.00000  Uiso   1.00
H2301  H     0.89783   0.93309   0.69828   0.00000  Uiso   1.00
H2302  H     0.94821   0.96138   0.69625   0.00000  Uiso   1.00
H2303  H     0.80652   0.68326   0.76065   0.00000  Uiso   1.00
H2304  H     0.94424   0.90185   0.68250   0.00000  Uiso   1.00
H2305  H     0.86545   0.77422   0.88408   0.00000  Uiso   1.00
H2306  H     0.83439   0.80549   0.92445   0.00000  Uiso   1.00
H2307  H     0.88565   0.77875   0.98412   0.00000  Uiso   1.00
H2308  H     0.85773   0.73325   0.95632   0.00000  Uiso   1.00
H2309  H     0.91177   0.74531   0.94202   0.00000  Uiso   1.00
H2310  H     0.55041   0.59096   0.74351   0.00000  Uiso   1.00
H2311  H     0.60413   0.57417   0.74429   0.00000  Uiso   1.00
H2312  H     0.61936   0.60746   0.67352   0.00000  Uiso   1.00
H2313  H     0.57092   0.57516   0.66829   0.00000  Uiso   1.00
H2314  H     0.80854   0.74143   0.74193   0.00000  Uiso   1.00
H2315  H     0.56967   0.63630   0.67232   0.00000  Uiso   1.00
H2316  H     0.63622   0.98682   0.73468   0.00000  Uiso   1.00
H2317  H     0.61954   0.97725   0.79051   0.00000  Uiso   1.00
H2318  H     0.55652   0.93326   0.76066   0.00000  Uiso   1.00
H2319  H     0.55854   0.99143   0.74194   0.00000  Uiso   1.00
H2320  H     0.57393   0.94631   0.70464   0.00000  Uiso   1.00
H2321  H     0.82229   0.63558   0.94126   0.00000  Uiso   1.00
H2322  H     0.87777   0.64519   0.94264   0.00000  Uiso   1.00
H2323  H     0.88876   0.58353   0.99392   0.00000  Uiso   1.00
H2324  H     0.85219   0.62522   0.68208   0.00000  Uiso   1.00
H2325  H     0.82393   0.69631   0.70464   0.00000  Uiso   1.00
H2326  H     0.83330   0.57070   0.99495   0.00000  Uiso   1.00
H2327  H     0.87135   0.52060   0.72511   0.00000  Uiso   1.00
H2328  H     0.87637   0.52222   0.78385   0.00000  Uiso   1.00
H2329  H     0.94029   0.57529   0.77429   0.00000  Uiso   1.00
H2330  H     0.94661   0.52041   0.74969   0.00000  Uiso   1.00
H2331  H     0.93508   0.56838   0.71497   0.00000  Uiso   1.00
H2332  H     0.74077   0.83756   0.86774   0.00000  Uiso   1.00
H2333  H     0.69337   0.80843   0.85211   0.00000  Uiso   1.00
H2334  H     0.68334   0.78283   0.93046   0.00000  Uiso   1.00
H2335  H     0.73157   0.76273   0.90559   0.00000  Uiso   1.00
H2336  H     0.57229   0.88558   0.94126   0.00000  Uiso   1.00
H2337  H     0.73289   0.80866   0.94550   0.00000  Uiso   1.00
H2338  H     0.89172   0.95994   0.90015   0.00000  Uiso   1.00
H2339  H     0.90344   0.92292   0.94644   0.00000  Uiso   1.00
H2340  H     0.84067   0.95903   0.98718   0.00000  Uiso   1.00
H2341  H     0.88305   0.99750   0.97480   0.00000  Uiso   1.00
H2342  H     0.83618   0.99773   0.94110   0.00000  Uiso   1.00
H2343  H     0.72238   0.67068   0.76126   0.00000  Uiso   1.00
H2344  H     0.67201   0.69317   0.77385   0.00000  Uiso   1.00
H2345  H     0.64782   0.68308   0.69828   0.00000  Uiso   1.00
H2346  H     0.69821   0.71138   0.69625   0.00000  Uiso   1.00
H2347  H     0.62777   0.89519   0.94264   0.00000  Uiso   1.00
H2348  H     0.69425   0.65185   0.68250   0.00000  Uiso   1.00
H2349  H     0.61545   0.52422   0.88408   0.00000  Uiso   1.00
H2350  H     0.58439   0.55549   0.92445   0.00000  Uiso   1.00
H2351  H     0.63565   0.52875   0.98412   0.00000  Uiso   1.00
H2352  H     0.60773   0.98325   0.95632   0.00000  Uiso   1.00
H2353  H     0.66177   0.99532   0.94202   0.00000  Uiso   1.00
H2354  H     0.80041   0.84096   0.74351   0.00000  Uiso   1.00
H2355  H     0.85413   0.82417   0.74429   0.00000  Uiso   1.00
H2356  H     0.86937   0.85746   0.67352   0.00000  Uiso   1.00
H2357  H     0.82092   0.82516   0.66829   0.00000  Uiso   1.00
H2358  H     0.63876   0.83353   0.99392   0.00000  Uiso   1.00
H2359  H     0.81967   0.88630   0.67232   0.00000  Uiso   1.00
H2360  H     0.60218   0.87523   0.68208   0.00000  Uiso   1.00
N2361  N     0.50000   0.75000   0.95240   0.00000  Uiso   1.00
N2362  N     0.50000   0.75000   0.71427   0.00000  Uiso   1.00
N2363  N     0.75000   0.50000   0.95240   0.00000  Uiso   1.00
N2364  N     0.75000   0.50000   0.71427   0.00000  Uiso   1.00
O2365  O     0.54581   0.70419   0.87154   0.00000  Uiso   1.00
O2366  O     0.70420   0.54581   0.79513   0.00000  Uiso   1.00
O2367  O     0.70420   0.54581   0.87154   0.00000  Uiso   1.00
O2368  O     0.79581   0.95419   0.79513   0.00000  Uiso   1.00
O2369  O     0.70420   0.95419   0.79513   0.00000  Uiso   1.00
O2370  O     0.79581   0.54581   0.87154   0.00000  Uiso   1.00
O2371  O     0.79581   0.54581   0.79513   0.00000  Uiso   1.00
O2372  O     0.70420   0.95419   0.87154   0.00000  Uiso   1.00
O2373  O     0.89075   0.66994   0.75336   0.00000  Uiso   1.00
O2374  O     0.60680   0.83304   0.91281   0.00000  Uiso   1.00
O2375  O     0.60682   0.83294   0.75230   0.00000  Uiso   1.00
O2376  O     0.95420   0.79581   0.79513   0.00000  Uiso   1.00
O2377  O     0.93751   0.61619   0.89567   0.00000  Uiso   1.00
O2378  O     0.59674   0.65895   0.91555   0.00000  Uiso   1.00
O2379  O     0.92589   0.87123   0.76049   0.00000  Uiso   1.00
O2380  O     0.89458   0.83107   0.91396   0.00000  Uiso   1.00
O2381  O     0.59102   0.64537   0.75345   0.00000  Uiso   1.00
O2382  O     0.64075   0.91994   0.75336   0.00000  Uiso   1.00
O2383  O     0.85680   0.58304   0.91281   0.00000  Uiso   1.00
O2384  O     0.85682   0.58294   0.75230   0.00000  Uiso   1.00
O2385  O     0.68752   0.86619   0.89567   0.00000  Uiso   1.00
O2386  O     0.84674   0.90895   0.91555   0.00000  Uiso   1.00
O2387  O     0.95420   0.79581   0.87154   0.00000  Uiso   1.00
O2388  O     0.67589   0.62123   0.76049   0.00000  Uiso   1.00
O2389  O     0.64458   0.58107   0.91396   0.00000  Uiso   1.00
O2390  O     0.84102   0.89537   0.75345   0.00000  Uiso   1.00
O2391  O     0.54581   0.70419   0.79513   0.00000  Uiso   1.00
O2392  O     0.95420   0.70419   0.79513   0.00000  Uiso   1.00
O2393  O     0.54581   0.79581   0.87154   0.00000  Uiso   1.00
O2394  O     0.54581   0.79581   0.79513   0.00000  Uiso   1.00
O2395  O     0.95420   0.70419   0.87154   0.00000  Uiso   1.00
O2396  O     0.79581   0.95419   0.87154   0.00000  Uiso   1.00
Zn2397 Zn    0.50000   0.75000   0.88437   0.00000  Uiso   1.00
Zn2398 Zn    0.50000   0.75000   0.78229   0.00000  Uiso   1.00
Zn2399 Zn    0.75000   0.50000   0.88437   0.00000  Uiso   1.00
Zn2400 Zn    0.75000   0.50000   0.78229   0.00000  Uiso   1.00
loop_
_geom_bond_atom_site_label_1
_geom_bond_atom_site_label_2
_geom_bond_distance
_geom_bond_site_symmetry_2
_ccdc_geom_bond_type
Br1    C80     1.900   .     S
Br2    C210    1.888   1_455 S
Br3    C11     1.908   .     S
Br4    C12     1.915   .     S
Br5    C13     1.900   .     S
Br6    C14     1.888   .     S
Br7    C15     1.908   .     S
Br8    C16     1.915   .     S
C9     O165    1.298   .     A
C9     C38     1.446   .     S
C9     O191    1.307   .     A
C10    Br202   1.888   .     S
C10    C811    1.426   .     S
C10    N361    1.370   .     S
C11    N362    1.369   .     A
C11    C1610   1.426   1_554 S
C12    C1080   1.430   .     S
C12    N361    1.370   .     S
C13    C1616   1.430   1_554 S
C13    N164    1.373   .     S
C14    C815    1.426   .     S
C14    N563    1.370   .     S
C15    N564    1.369   .     A
C15    C1614   1.426   1_554 S
C16    N163    1.370   .     A
C16    C813    1.430   .     S
C17    O173    1.386   .     S
C17    C36     1.412   .     A
C17    C28     1.384   .     A
C18    C35     1.402   .     A
C18    C29     1.382   .     A
C18    O174    1.380   .     S
C19    C26     1.384   .     A
C19    O175    1.383   .     S
C19    C35     1.410   .     A
C20    C37     1.438   .     S
C20    O187    1.294   .     A
C20    O176    1.307   .     A
C21    C36     1.391   .     A
C21    C27     1.382   .     A
C21    O177    1.376   .     S
C22    O178    1.381   .     S
C22    C38     1.415   .     A
C22    C33     1.385   .     A
C23    C37     1.394   .     A
C23    O179    1.381   .     S
C23    C34     1.384   .     A
C24    O180    1.384   .     S
C24    C37     1.410   .     A
C24    C30     1.385   .     A
C25    O181    1.382   .     S
C25    C38     1.402   .     A
C25    C32     1.384   .     A
C26    C40     1.412   .     A
C26    O182    1.386   .     S
C27    O183    1.380   .     S
C27    C39     1.402   .     A
C28    C39     1.410   .     A
C28    O184    1.383   .     S
C29    C40     1.391   .     A
C29    O185    1.376   .     S
C30    O186    1.381   .     S
C30    C43     1.415   .     A
C31    O192    1.289   .     A
C31    O195    1.310   .     A
C31    C36     1.435   .     S
C32    C41     1.394   .     A
C32    O188    1.381   .     S
C33    O189    1.384   .     S
C33    C41     1.410   .     A
C34    O190    1.382   .     S
C34    C43     1.402   .     A
C35    C42     1.442   .     S
C39    C79     1.442   .     S
C40    C75     1.435   .     S
C41    C64     1.438   .     S
C42    O194    1.301   .     A
C42    O193    1.302   .     A
C43    C53     1.446   .     S
C44    H92     1.116   .     S
C44    O173    1.418   .     S
C44    H81     1.111   .     S
C44    C45     1.525   .     S
C45    H103    1.110   .     S
C45    H114    1.111   .     S
C45    H125    1.109   .     S
C46    O174    1.417   .     S
C46    H147    1.113   .     S
C46    C47     1.502   .     S
C46    H136    1.107   .     S
C47    H82     1.107   .     S
C47    H158    1.107   .     S
C47    H960    1.106   .     S
C48    O175    1.424   .     S
C48    H84     1.113   .     S
C48    C49     1.532   .     S
C48    H83     1.110   .     S
C49    H87     1.106   .     S
C49    H85     1.107   .     S
C49    H86     1.107   .     S
C50    H88     1.111   .     S
C50    O177    1.423   .     S
C50    H89     1.118   .     S
C50    C51     1.522   .     S
C51    H90     1.107   .     S
C51    H91     1.111   .     S
C51    H93     1.109   .     S
C52    H95     1.111   .     S
C52    H94     1.118   .     S
C52    C54     1.522   .     S
C52    O178    1.415   .     S
C53    O168    1.307   .     A
C53    O196    1.298   .     A
C54    H97     1.108   .     S
C54    H98     1.108   .     S
C54    H96     1.107   .     S
C55    C56     1.520   .     S
C55    H100    1.118   .     S
C55    H99     1.109   .     S
C55    O179    1.424   .     S
C56    H101    1.106   .     S
C56    H104    1.108   .     S
C56    H102    1.109   .     S
C57    H105    1.117   .     S
C57    O180    1.414   .     S
C57    C58     1.524   .     S
C57    H106    1.113   .     S
C58    H109    1.109   .     S
C58    H107    1.109   .     S
C58    H108    1.110   .     S
C59    H110    1.109   .     S
C59    H111    1.115   .     S
C59    C60     1.516   .     S
C59    O181    1.423   .     S
C60    H113    1.109   .     S
C60    H112    1.110   .     S
C60    H115    1.102   .     S
C61    O182    1.418   .     S
C61    H117    1.116   .     S
C61    H116    1.111   .     S
C61    C62     1.525   .     S
C62    H119    1.111   .     S
C62    H120    1.110   .     S
C62    H118    1.110   .     S
C63    C65     1.502   .     S
C63    H121    1.107   .     S
C63    O183    1.417   .     S
C63    H122    1.113   .     S
C64    O167    1.294   .     A
C64    O166    1.307   .     A
C65    H126    1.107   .     S
C65    H123    1.107   .     S
C65    H924    1.106   .     S
C66    H127    1.110   .     S
C66    C67     1.532   .     S
C66    O184    1.424   .     S
C66    H128    1.113   .     S
C67    H129    1.107   .     S
C67    H130    1.107   .     S
C67    H131    1.106   .     S
C68    H133    1.118   .     S
C68    C69     1.522   .     S
C68    H132    1.111   .     S
C68    O185    1.423   .     S
C69    H134    1.107   .     S
C69    H137    1.109   .     S
C69    H135    1.111   .     S
C70    C71     1.522   .     S
C70    H138    1.118   .     S
C70    O186    1.415   .     S
C70    H139    1.111   .     S
C71    H141    1.108   .     S
C71    H142    1.108   .     S
C71    H140    1.107   .     S
C72    H143    1.109   .     S
C72    O188    1.424   .     S
C72    H144    1.118   .     S
C72    C73     1.520   .     S
C73    H148    1.108   .     S
C73    H145    1.106   .     S
C73    H146    1.109   .     S
C74    C76     1.524   .     S
C74    O189    1.414   .     S
C74    H149    1.117   .     S
C74    H150    1.113   .     S
C75    O169    1.289   .     A
C75    O172    1.310   .     A
C76    H151    1.109   .     S
C76    H552    1.110   1_545 S
C76    H553    1.109   1_545 S
C77    C78     1.516   .     S
C77    O190    1.423   .     S
C77    H154    1.109   .     S
C77    H155    1.115   .     S
C78    H157    1.109   .     S
C78    H156    1.110   .     S
C78    H159    1.102   .     S
C79    O170    1.302   .     A
C79    O171    1.301   .     A
C80    C1812   1.430   1_454 S
C80    N162    1.373   .     S
H124   C1665   1.106   1_554 S
H152   C476    1.110   .     S
H153   C476    1.109   .     S
H160   C1647   1.106   1_554 S
N161   C210    1.370   1_455 S
N161   C212    1.370   1_455 S
N161   Zn197   2.044   .     S
N162   C211    1.369   1_455 A
N162   Zn198   2.044   .     S
N163   C414    1.370   1_545 S
N163   Zn199   2.044   .     S
N164   C415    1.369   1_545 A
N164   Zn200   2.044   .     S
O165   Zn197   2.022   .     S
O166   Zn200   2.022   .     S
O167   Zn199   2.025   .     S
O168   Zn600   2.025   .     S
O169   Zn600   2.017   .     S
O170   Zn199   2.017   .     S
O171   Zn200   2.017   .     S
O172   Zn599   2.017   .     S
O176   Zn398   2.022   .     S
O187   Zn397   2.025   .     S
O191   Zn198   2.025   .     S
O192   Zn398   2.017   .     S
O193   Zn197   2.017   .     S
O194   Zn198   2.017   .     S
O195   Zn397   2.017   .     S
O196   Zn599   2.022   .     S
Zn197  O387    2.025   1_455 S
Zn197  O395    2.017   1_455 S
Zn198  O392    2.017   1_455 S
Zn198  O376    2.022   1_455 S
Zn199  O572    2.017   1_545 S
Zn199  O596    2.022   1_545 S
Zn200  O569    2.017   1_545 S
Zn200  O568    2.025   1_545 S
Br201  C280    1.900   .     S
Br203  C211    1.908   .     S
Br204  C212    1.915   .     S
Br205  C213    1.900   .     S
Br206  C214    1.888   .     S
Br207  C215    1.908   .     S
Br208  C216    1.915   .     S
C209   O365    1.298   .     A
C209   C238    1.446   .     S
C209   O391    1.307   .     A
C210   Br2     1.888   1_655 S
C210   C1011   1.426   .     S
C210   N161    1.370   1_655 S
C211   N162    1.369   1_655 A
C211   C1810   1.426   1_554 S
C212   C880    1.430   1_655 S
C212   N161    1.370   1_655 S
C213   C1816   1.430   1_554 S
C213   N364    1.373   .     S
C214   C1015   1.426   .     S
C214   N763    1.370   .     S
C215   N764    1.369   .     A
C215   C1814   1.426   1_554 S
C216   N363    1.370   .     A
C216   C1013   1.430   .     S
C217   O373    1.386   .     S
C217   C236    1.412   .     A
C217   C228    1.384   .     A
C218   C235    1.402   .     A
C218   C229    1.382   .     A
C218   O374    1.380   .     S
C219   C226    1.384   .     A
C219   O375    1.383   .     S
C219   C235    1.410   .     A
C220   C237    1.438   .     S
C220   O387    1.294   .     A
C220   O376    1.307   .     A
C221   C236    1.391   .     A
C221   C227    1.382   .     A
C221   O377    1.376   .     S
C222   O378    1.381   .     S
C222   C238    1.415   .     A
C222   C233    1.385   .     A
C223   C237    1.394   .     A
C223   O379    1.381   .     S
C223   C234    1.384   .     A
C224   O380    1.384   .     S
C224   C237    1.410   .     A
C224   C230    1.385   .     A
C225   O381    1.382   .     S
C225   C238    1.402   .     A
C225   C232    1.384   .     A
C226   C240    1.412   .     A
C226   O382    1.386   .     S
C227   O383    1.380   .     S
C227   C239    1.402   .     A
C228   C239    1.410   .     A
C228   O384    1.383   .     S
C229   C240    1.391   .     A
C229   O385    1.376   .     S
C230   O386    1.381   .     S
C230   C243    1.415   .     A
C231   O392    1.289   .     A
C231   O395    1.310   .     A
C231   C236    1.435   .     S
C232   C241    1.394   .     A
C232   O388    1.381   .     S
C233   O389    1.384   .     S
C233   C241    1.410   .     A
C234   O390    1.382   .     S
C234   C243    1.402   .     A
C235   C242    1.442   .     S
C239   C279    1.442   .     S
C240   C275    1.435   .     S
C241   C264    1.438   .     S
C242   O394    1.301   .     A
C242   O393    1.302   .     A
C243   C253    1.446   .     S
C244   H292    1.116   .     S
C244   O373    1.418   .     S
C244   H281    1.111   .     S
C244   C245    1.525   .     S
C245   H303    1.110   .     S
C245   H314    1.111   .     S
C245   H325    1.109   .     S
C246   O374    1.417   .     S
C246   H347    1.113   .     S
C246   C247    1.502   .     S
C246   H336    1.107   .     S
C247   H282    1.107   .     S
C247   H358    1.107   .     S
C247   H1160   1.106   .     S
C248   O375    1.424   .     S
C248   H284    1.113   .     S
C248   C249    1.532   .     S
C248   H283    1.110   .     S
C249   H287    1.106   .     S
C249   H285    1.107   .     S
C249   H286    1.107   .     S
C250   H288    1.111   .     S
C250   O377    1.423   .     S
C250   H289    1.118   .     S
C250   C251    1.522   .     S
C251   H290    1.107   .     S
C251   H291    1.111   .     S
C251   H293    1.109   .     S
C252   H295    1.111   .     S
C252   H294    1.118   .     S
C252   C254    1.522   .     S
C252   O378    1.415   .     S
C253   O368    1.307   .     A
C253   O396    1.298   .     A
C254   H297    1.108   .     S
C254   H298    1.108   .     S
C254   H296    1.107   .     S
C255   C256    1.520   .     S
C255   H300    1.118   .     S
C255   H299    1.109   .     S
C255   O379    1.424   .     S
C256   H301    1.106   .     S
C256   H304    1.108   .     S
C256   H302    1.109   .     S
C257   H305    1.117   .     S
C257   O380    1.414   .     S
C257   C258    1.524   .     S
C257   H306    1.113   .     S
C258   H309    1.109   .     S
C258   H307    1.109   .     S
C258   H308    1.110   .     S
C259   H310    1.109   .     S
C259   H311    1.115   .     S
C259   C260    1.516   .     S
C259   O381    1.423   .     S
C260   H313    1.109   .     S
C260   H312    1.110   .     S
C260   H315    1.102   .     S
C261   O382    1.418   .     S
C261   H317    1.116   .     S
C261   H316    1.111   .     S
C261   C262    1.525   .     S
C262   H319    1.111   .     S
C262   H320    1.110   .     S
C262   H318    1.110   .     S
C263   C265    1.502   .     S
C263   H321    1.107   .     S
C263   O383    1.417   .     S
C263   H322    1.113   .     S
C264   O367    1.294   .     A
C264   O366    1.307   .     A
C265   H326    1.107   .     S
C265   H323    1.107   .     S
C265   H1124   1.106   .     S
C266   H327    1.110   .     S
C266   C267    1.532   .     S
C266   O384    1.424   .     S
C266   H328    1.113   .     S
C267   H329    1.107   .     S
C267   H330    1.107   .     S
C267   H331    1.106   .     S
C268   H333    1.118   .     S
C268   C269    1.522   .     S
C268   H332    1.111   .     S
C268   O385    1.423   .     S
C269   H334    1.107   .     S
C269   H337    1.109   .     S
C269   H335    1.111   .     S
C270   C271    1.522   .     S
C270   H338    1.118   .     S
C270   O386    1.415   .     S
C270   H339    1.111   .     S
C271   H341    1.108   .     S
C271   H342    1.108   .     S
C271   H340    1.107   .     S
C272   H343    1.109   .     S
C272   O388    1.424   .     S
C272   H344    1.118   .     S
C272   C273    1.520   .     S
C273   H348    1.108   .     S
C273   H345    1.106   .     S
C273   H346    1.109   .     S
C274   C276    1.524   .     S
C274   O389    1.414   .     S
C274   H349    1.117   .     S
C274   H350    1.113   .     S
C275   O369    1.289   .     A
C275   O372    1.310   .     A
C276   H351    1.109   .     S
C276   H752    1.110   1_545 S
C276   H753    1.109   1_545 S
C277   C278    1.516   .     S
C277   O390    1.423   .     S
C277   H354    1.109   .     S
C277   H355    1.115   .     S
C278   H357    1.109   .     S
C278   H356    1.110   .     S
C278   H359    1.102   .     S
C279   O370    1.302   .     A
C279   O371    1.301   .     A
C280   C1612   1.430   1_554 S
C280   N362    1.373   .     S
H324   C1865   1.106   1_554 S
H352   C676    1.110   .     S
H353   C676    1.109   .     S
H360   C1847   1.106   1_554 S
N361   Zn397   2.044   .     S
N362   Zn398   2.044   .     S
N363   C614    1.370   1_545 S
N363   Zn399   2.044   .     S
N364   C615    1.369   1_545 A
N364   Zn400   2.044   .     S
O365   Zn397   2.022   .     S
O366   Zn400   2.022   .     S
O367   Zn399   2.025   .     S
O368   Zn800   2.025   .     S
O369   Zn800   2.017   .     S
O370   Zn399   2.017   .     S
O371   Zn400   2.017   .     S
O372   Zn799   2.017   .     S
O376   Zn198   2.022   1_655 S
O387   Zn197   2.025   1_655 S
O391   Zn398   2.025   .     S
O392   Zn198   2.017   1_655 S
O393   Zn397   2.017   .     S
O394   Zn398   2.017   .     S
O395   Zn197   2.017   1_655 S
O396   Zn799   2.022   .     S
Zn399  O772    2.017   1_545 S
Zn399  O796    2.022   1_545 S
Zn400  O769    2.017   1_545 S
Zn400  O768    2.025   1_545 S
Br401  C480    1.900   .     S
Br402  C610    1.888   1_455 S
Br403  C411    1.908   .     S
Br404  C412    1.915   .     S
Br405  C413    1.900   .     S
Br406  C414    1.888   .     S
Br407  C415    1.908   .     S
Br408  C416    1.915   .     S
C409   O565    1.298   .     A
C409   C438    1.446   .     S
C409   O591    1.307   .     A
C410   Br602   1.888   .     S
C410   C1211   1.426   .     S
C410   N761    1.370   .     S
C411   N762    1.369   .     A
C411   C2010   1.426   1_554 S
C412   C1480   1.430   .     S
C412   N761    1.370   .     S
C413   C2016   1.430   1_554 S
C413   N564    1.373   .     S
C414   C1215   1.426   .     S
C414   N163    1.370   1_565 S
C415   N164    1.369   1_565 A
C415   C2014   1.426   1_554 S
C416   N563    1.370   .     A
C416   C1213   1.430   .     S
C417   O573    1.386   .     S
C417   C436    1.412   .     A
C417   C428    1.384   .     A
C418   C435    1.402   .     A
C418   C429    1.382   .     A
C418   O574    1.380   .     S
C419   C426    1.384   .     A
C419   O575    1.383   .     S
C419   C435    1.410   .     A
C420   C437    1.438   .     S
C420   O587    1.294   .     A
C420   O576    1.307   .     A
C421   C436    1.391   .     A
C421   C427    1.382   .     A
C421   O577    1.376   .     S
C422   O578    1.381   .     S
C422   C438    1.415   .     A
C422   C433    1.385   .     A
C423   C437    1.394   .     A
C423   O579    1.381   .     S
C423   C434    1.384   .     A
C424   O580    1.384   .     S
C424   C437    1.410   .     A
C424   C430    1.385   .     A
C425   O581    1.382   .     S
C425   C438    1.402   .     A
C425   C432    1.384   .     A
C426   C440    1.412   .     A
C426   O582    1.386   .     S
C427   O583    1.380   .     S
C427   C439    1.402   .     A
C428   C439    1.410   .     A
C428   O584    1.383   .     S
C429   C440    1.391   .     A
C429   O585    1.376   .     S
C430   O586    1.381   .     S
C430   C443    1.415   .     A
C431   O592    1.289   .     A
C431   O595    1.310   .     A
C431   C436    1.435   .     S
C432   C441    1.394   .     A
C432   O588    1.381   .     S
C433   O589    1.384   .     S
C433   C441    1.410   .     A
C434   O590    1.382   .     S
C434   C443    1.402   .     A
C435   C442    1.442   .     S
C439   C479    1.442   .     S
C440   C475    1.435   .     S
C441   C464    1.438   .     S
C442   O594    1.301   .     A
C442   O593    1.302   .     A
C443   C453    1.446   .     S
C444   H492    1.116   .     S
C444   O573    1.418   .     S
C444   H481    1.111   .     S
C444   C445    1.525   .     S
C445   H503    1.110   .     S
C445   H514    1.111   .     S
C445   H525    1.109   .     S
C446   O574    1.417   .     S
C446   H547    1.113   .     S
C446   C447    1.502   .     S
C446   H536    1.107   .     S
C447   H482    1.107   .     S
C447   H558    1.107   .     S
C447   H1360   1.106   .     S
C448   O575    1.424   .     S
C448   H484    1.113   .     S
C448   C449    1.532   .     S
C448   H483    1.110   .     S
C449   H487    1.106   .     S
C449   H485    1.107   .     S
C449   H486    1.107   .     S
C450   H488    1.111   .     S
C450   O577    1.423   .     S
C450   H489    1.118   .     S
C450   C451    1.522   .     S
C451   H490    1.107   .     S
C451   H491    1.111   .     S
C451   H493    1.109   .     S
C452   H495    1.111   .     S
C452   H494    1.118   .     S
C452   C454    1.522   .     S
C452   O578    1.415   .     S
C453   O568    1.307   .     A
C453   O596    1.298   .     A
C454   H497    1.108   .     S
C454   H498    1.108   .     S
C454   H496    1.107   .     S
C455   C456    1.520   .     S
C455   H500    1.118   .     S
C455   H499    1.109   .     S
C455   O579    1.424   .     S
C456   H501    1.106   .     S
C456   H504    1.108   .     S
C456   H502    1.109   .     S
C457   H505    1.117   .     S
C457   O580    1.414   .     S
C457   C458    1.524   .     S
C457   H506    1.113   .     S
C458   H509    1.109   .     S
C458   H507    1.109   .     S
C458   H508    1.110   .     S
C459   H510    1.109   .     S
C459   H511    1.115   .     S
C459   C460    1.516   .     S
C459   O581    1.423   .     S
C460   H513    1.109   .     S
C460   H512    1.110   .     S
C460   H515    1.102   .     S
C461   O582    1.418   .     S
C461   H517    1.116   .     S
C461   H516    1.111   .     S
C461   C462    1.525   .     S
C462   H519    1.111   .     S
C462   H520    1.110   .     S
C462   H518    1.110   .     S
C463   C465    1.502   .     S
C463   H521    1.107   .     S
C463   O583    1.417   .     S
C463   H522    1.113   .     S
C464   O567    1.294   .     A
C464   O566    1.307   .     A
C465   H526    1.107   .     S
C465   H523    1.107   .     S
C465   H1324   1.106   .     S
C466   H527    1.110   .     S
C466   C467    1.532   .     S
C466   O584    1.424   .     S
C466   H528    1.113   .     S
C467   H529    1.107   .     S
C467   H530    1.107   .     S
C467   H531    1.106   .     S
C468   H533    1.118   .     S
C468   C469    1.522   .     S
C468   H532    1.111   .     S
C468   O585    1.423   .     S
C469   H534    1.107   .     S
C469   H537    1.109   .     S
C469   H535    1.111   .     S
C470   C471    1.522   .     S
C470   H538    1.118   .     S
C470   O586    1.415   .     S
C470   H539    1.111   .     S
C471   H541    1.108   .     S
C471   H542    1.108   .     S
C471   H540    1.107   .     S
C472   H543    1.109   .     S
C472   O588    1.424   .     S
C472   H544    1.118   .     S
C472   C473    1.520   .     S
C473   H548    1.108   .     S
C473   H545    1.106   .     S
C473   H546    1.109   .     S
C474   C476    1.524   .     S
C474   O589    1.414   .     S
C474   H549    1.117   .     S
C474   H550    1.113   .     S
C475   O569    1.289   .     A
C475   O572    1.310   .     A
C476   H551    1.109   .     S
C477   C478    1.516   .     S
C477   O590    1.423   .     S
C477   H554    1.109   .     S
C477   H555    1.115   .     S
C478   H557    1.109   .     S
C478   H556    1.110   .     S
C478   H559    1.102   .     S
C479   O570    1.302   .     A
C479   O571    1.301   .     A
C480   C2212   1.430   1_454 S
C480   N562    1.373   .     S
H524   C2065   1.106   1_554 S
H552   C76     1.110   1_565 S
H553   C76     1.109   1_565 S
H560   C2047   1.106   1_554 S
N561   C610    1.370   1_455 S
N561   C612    1.370   1_455 S
N561   Zn597   2.044   .     S
N562   C611    1.369   1_455 A
N562   Zn598   2.044   .     S
N563   Zn599   2.044   .     S
N564   Zn600   2.044   .     S
O565   Zn597   2.022   .     S
O566   Zn600   2.022   .     S
O567   Zn599   2.025   .     S
O568   Zn200   2.025   1_565 S
O569   Zn200   2.017   1_565 S
O570   Zn599   2.017   .     S
O571   Zn600   2.017   .     S
O572   Zn199   2.017   1_565 S
O576   Zn798   2.022   .     S
O587   Zn797   2.025   .     S
O591   Zn598   2.025   .     S
O592   Zn798   2.017   .     S
O593   Zn597   2.017   .     S
O594   Zn598   2.017   .     S
O595   Zn797   2.017   .     S
O596   Zn199   2.022   1_565 S
Zn597  O787    2.025   1_455 S
Zn597  O795    2.017   1_455 S
Zn598  O792    2.017   1_455 S
Zn598  O776    2.022   1_455 S
Br601  C680    1.900   .     S
Br603  C611    1.908   .     S
Br604  C612    1.915   .     S
Br605  C613    1.900   .     S
Br606  C614    1.888   .     S
Br607  C615    1.908   .     S
Br608  C616    1.915   .     S
C609   O765    1.298   .     A
C609   C638    1.446   .     S
C609   O791    1.307   .     A
C610   Br402   1.888   1_655 S
C610   C1411   1.426   .     S
C610   N561    1.370   1_655 S
C611   N562    1.369   1_655 A
C611   C2210   1.426   1_554 S
C612   C1280   1.430   1_655 S
C612   N561    1.370   1_655 S
C613   C2216   1.430   1_554 S
C613   N764    1.373   .     S
C614   C1415   1.426   .     S
C614   N363    1.370   1_565 S
C615   N364    1.369   1_565 A
C615   C2214   1.426   1_554 S
C616   N763    1.370   .     A
C616   C1413   1.430   .     S
C617   O773    1.386   .     S
C617   C636    1.412   .     A
C617   C628    1.384   .     A
C618   C635    1.402   .     A
C618   C629    1.382   .     A
C618   O774    1.380   .     S
C619   C626    1.384   .     A
C619   O775    1.383   .     S
C619   C635    1.410   .     A
C620   C637    1.438   .     S
C620   O787    1.294   .     A
C620   O776    1.307   .     A
C621   C636    1.391   .     A
C621   C627    1.382   .     A
C621   O777    1.376   .     S
C622   O778    1.381   .     S
C622   C638    1.415   .     A
C622   C633    1.385   .     A
C623   C637    1.394   .     A
C623   O779    1.381   .     S
C623   C634    1.384   .     A
C624   O780    1.384   .     S
C624   C637    1.410   .     A
C624   C630    1.385   .     A
C625   O781    1.382   .     S
C625   C638    1.402   .     A
C625   C632    1.384   .     A
C626   C640    1.412   .     A
C626   O782    1.386   .     S
C627   O783    1.380   .     S
C627   C639    1.402   .     A
C628   C639    1.410   .     A
C628   O784    1.383   .     S
C629   C640    1.391   .     A
C629   O785    1.376   .     S
C630   O786    1.381   .     S
C630   C643    1.415   .     A
C631   O792    1.289   .     A
C631   O795    1.310   .     A
C631   C636    1.435   .     S
C632   C641    1.394   .     A
C632   O788    1.381   .     S
C633   O789    1.384   .     S
C633   C641    1.410   .     A
C634   O790    1.382   .     S
C634   C643    1.402   .     A
C635   C642    1.442   .     S
C639   C679    1.442   .     S
C640   C675    1.435   .     S
C641   C664    1.438   .     S
C642   O794    1.301   .     A
C642   O793    1.302   .     A
C643   C653    1.446   .     S
C644   H692    1.116   .     S
C644   O773    1.418   .     S
C644   H681    1.111   .     S
C644   C645    1.525   .     S
C645   H703    1.110   .     S
C645   H714    1.111   .     S
C645   H725    1.109   .     S
C646   O774    1.417   .     S
C646   H747    1.113   .     S
C646   C647    1.502   .     S
C646   H736    1.107   .     S
C647   H682    1.107   .     S
C647   H758    1.107   .     S
C647   H1560   1.106   .     S
C648   O775    1.424   .     S
C648   H684    1.113   .     S
C648   C649    1.532   .     S
C648   H683    1.110   .     S
C649   H687    1.106   .     S
C649   H685    1.107   .     S
C649   H686    1.107   .     S
C650   H688    1.111   .     S
C650   O777    1.423   .     S
C650   H689    1.118   .     S
C650   C651    1.522   .     S
C651   H690    1.107   .     S
C651   H691    1.111   .     S
C651   H693    1.109   .     S
C652   H695    1.111   .     S
C652   H694    1.118   .     S
C652   C654    1.522   .     S
C652   O778    1.415   .     S
C653   O768    1.307   .     A
C653   O796    1.298   .     A
C654   H697    1.108   .     S
C654   H698    1.108   .     S
C654   H696    1.107   .     S
C655   C656    1.520   .     S
C655   H700    1.118   .     S
C655   H699    1.109   .     S
C655   O779    1.424   .     S
C656   H701    1.106   .     S
C656   H704    1.108   .     S
C656   H702    1.109   .     S
C657   H705    1.117   .     S
C657   O780    1.414   .     S
C657   C658    1.524   .     S
C657   H706    1.113   .     S
C658   H709    1.109   .     S
C658   H707    1.109   .     S
C658   H708    1.110   .     S
C659   H710    1.109   .     S
C659   H711    1.115   .     S
C659   C660    1.516   .     S
C659   O781    1.423   .     S
C660   H713    1.109   .     S
C660   H712    1.110   .     S
C660   H715    1.102   .     S
C661   O782    1.418   .     S
C661   H717    1.116   .     S
C661   H716    1.111   .     S
C661   C662    1.525   .     S
C662   H719    1.111   .     S
C662   H720    1.110   .     S
C662   H718    1.110   .     S
C663   C665    1.502   .     S
C663   H721    1.107   .     S
C663   O783    1.417   .     S
C663   H722    1.113   .     S
C664   O767    1.294   .     A
C664   O766    1.307   .     A
C665   H726    1.107   .     S
C665   H723    1.107   .     S
C665   H1524   1.106   .     S
C666   H727    1.110   .     S
C666   C667    1.532   .     S
C666   O784    1.424   .     S
C666   H728    1.113   .     S
C667   H729    1.107   .     S
C667   H730    1.107   .     S
C667   H731    1.106   .     S
C668   H733    1.118   .     S
C668   C669    1.522   .     S
C668   H732    1.111   .     S
C668   O785    1.423   .     S
C669   H734    1.107   .     S
C669   H737    1.109   .     S
C669   H735    1.111   .     S
C670   C671    1.522   .     S
C670   H738    1.118   .     S
C670   O786    1.415   .     S
C670   H739    1.111   .     S
C671   H741    1.108   .     S
C671   H742    1.108   .     S
C671   H740    1.107   .     S
C672   H743    1.109   .     S
C672   O788    1.424   .     S
C672   H744    1.118   .     S
C672   C673    1.520   .     S
C673   H748    1.108   .     S
C673   H745    1.106   .     S
C673   H746    1.109   .     S
C674   C676    1.524   .     S
C674   O789    1.414   .     S
C674   H749    1.117   .     S
C674   H750    1.113   .     S
C675   O769    1.289   .     A
C675   O772    1.310   .     A
C676   H751    1.109   .     S
C677   C678    1.516   .     S
C677   O790    1.423   .     S
C677   H754    1.109   .     S
C677   H755    1.115   .     S
C678   H757    1.109   .     S
C678   H756    1.110   .     S
C678   H759    1.102   .     S
C679   O770    1.302   .     A
C679   O771    1.301   .     A
C680   C2012   1.430   1_554 S
C680   N762    1.373   .     S
H724   C2265   1.106   1_554 S
H752   C276    1.110   1_565 S
H753   C276    1.109   1_565 S
H760   C2247   1.106   1_554 S
N761   Zn797   2.044   .     S
N762   Zn798   2.044   .     S
N763   Zn799   2.044   .     S
N764   Zn800   2.044   .     S
O765   Zn797   2.022   .     S
O766   Zn800   2.022   .     S
O767   Zn799   2.025   .     S
O768   Zn400   2.025   1_565 S
O769   Zn400   2.017   1_565 S
O770   Zn799   2.017   .     S
O771   Zn800   2.017   .     S
O772   Zn399   2.017   1_565 S
O776   Zn598   2.022   1_655 S
O787   Zn597   2.025   1_655 S
O791   Zn798   2.025   .     S
O792   Zn598   2.017   1_655 S
O793   Zn797   2.017   .     S
O794   Zn798   2.017   .     S
O795   Zn597   2.017   1_655 S
O796   Zn399   2.022   1_565 S
Br801  C880    1.900   .     S
Br802  C1010   1.888   1_455 S
Br803  C811    1.908   .     S
Br804  C812    1.915   .     S
Br805  C813    1.900   .     S
Br806  C814    1.888   .     S
Br807  C815    1.908   .     S
Br808  C816    1.915   .     S
C809   O965    1.298   .     A
C809   C838    1.446   .     S
C809   O991    1.307   .     A
C810   Br1002  1.888   .     S
C810   C1611   1.426   .     S
C810   N1161   1.370   .     S
C811   N1162   1.369   .     A
C812   C1880   1.430   .     S
C812   N1161   1.370   .     S
C813   N964    1.373   .     S
C814   C1615   1.426   .     S
C814   N1363   1.370   .     S
C815   N1364   1.369   .     A
C816   N963    1.370   .     A
C816   C1613   1.430   .     S
C817   O973    1.386   .     S
C817   C836    1.412   .     A
C817   C828    1.384   .     A
C818   C835    1.402   .     A
C818   C829    1.382   .     A
C818   O974    1.380   .     S
C819   C826    1.384   .     A
C819   O975    1.383   .     S
C819   C835    1.410   .     A
C820   C837    1.438   .     S
C820   O987    1.294   .     A
C820   O976    1.307   .     A
C821   C836    1.391   .     A
C821   C827    1.382   .     A
C821   O977    1.376   .     S
C822   O978    1.381   .     S
C822   C838    1.415   .     A
C822   C833    1.385   .     A
C823   C837    1.394   .     A
C823   O979    1.381   .     S
C823   C834    1.384   .     A
C824   O980    1.384   .     S
C824   C837    1.410   .     A
C824   C830    1.385   .     A
C825   O981    1.382   .     S
C825   C838    1.402   .     A
C825   C832    1.384   .     A
C826   C840    1.412   .     A
C826   O982    1.386   .     S
C827   O983    1.380   .     S
C827   C839    1.402   .     A
C828   C839    1.410   .     A
C828   O984    1.383   .     S
C829   C840    1.391   .     A
C829   O985    1.376   .     S
C830   O986    1.381   .     S
C830   C843    1.415   .     A
C831   O992    1.289   .     A
C831   O995    1.310   .     A
C831   C836    1.435   .     S
C832   C841    1.394   .     A
C832   O988    1.381   .     S
C833   O989    1.384   .     S
C833   C841    1.410   .     A
C834   O990    1.382   .     S
C834   C843    1.402   .     A
C835   C842    1.442   .     S
C839   C879    1.442   .     S
C840   C875    1.435   .     S
C841   C864    1.438   .     S
C842   O994    1.301   .     A
C842   O993    1.302   .     A
C843   C853    1.446   .     S
C844   H892    1.116   .     S
C844   O973    1.418   .     S
C844   H881    1.111   .     S
C844   C845    1.525   .     S
C845   H903    1.110   .     S
C845   H914    1.111   .     S
C845   H925    1.109   .     S
C846   O974    1.417   .     S
C846   H947    1.113   .     S
C846   C847    1.502   .     S
C846   H936    1.107   .     S
C847   H882    1.107   .     S
C847   H958    1.107   .     S
C847   H1760   1.106   .     S
C848   O975    1.424   .     S
C848   H884    1.113   .     S
C848   C849    1.532   .     S
C848   H883    1.110   .     S
C849   H887    1.106   .     S
C849   H885    1.107   .     S
C849   H886    1.107   .     S
C850   H888    1.111   .     S
C850   O977    1.423   .     S
C850   H889    1.118   .     S
C850   C851    1.522   .     S
C851   H890    1.107   .     S
C851   H891    1.111   .     S
C851   H893    1.109   .     S
C852   H895    1.111   .     S
C852   H894    1.118   .     S
C852   C854    1.522   .     S
C852   O978    1.415   .     S
C853   O968    1.307   .     A
C853   O996    1.298   .     A
C854   H897    1.108   .     S
C854   H898    1.108   .     S
C854   H896    1.107   .     S
C855   C856    1.520   .     S
C855   H900    1.118   .     S
C855   H899    1.109   .     S
C855   O979    1.424   .     S
C856   H901    1.106   .     S
C856   H904    1.108   .     S
C856   H902    1.109   .     S
C857   H905    1.117   .     S
C857   O980    1.414   .     S
C857   C858    1.524   .     S
C857   H906    1.113   .     S
C858   H909    1.109   .     S
C858   H907    1.109   .     S
C858   H908    1.110   .     S
C859   H910    1.109   .     S
C859   H911    1.115   .     S
C859   C860    1.516   .     S
C859   O981    1.423   .     S
C860   H913    1.109   .     S
C860   H912    1.110   .     S
C860   H915    1.102   .     S
C861   O982    1.418   .     S
C861   H917    1.116   .     S
C861   H916    1.111   .     S
C861   C862    1.525   .     S
C862   H919    1.111   .     S
C862   H920    1.110   .     S
C862   H918    1.110   .     S
C863   C865    1.502   .     S
C863   H921    1.107   .     S
C863   O983    1.417   .     S
C863   H922    1.113   .     S
C864   O967    1.294   .     A
C864   O966    1.307   .     A
C865   H926    1.107   .     S
C865   H923    1.107   .     S
C865   H1724   1.106   .     S
C866   H927    1.110   .     S
C866   C867    1.532   .     S
C866   O984    1.424   .     S
C866   H928    1.113   .     S
C867   H929    1.107   .     S
C867   H930    1.107   .     S
C867   H931    1.106   .     S
C868   H933    1.118   .     S
C868   C869    1.522   .     S
C868   H932    1.111   .     S
C868   O985    1.423   .     S
C869   H934    1.107   .     S
C869   H937    1.109   .     S
C869   H935    1.111   .     S
C870   C871    1.522   .     S
C870   H938    1.118   .     S
C870   O986    1.415   .     S
C870   H939    1.111   .     S
C871   H941    1.108   .     S
C871   H942    1.108   .     S
C871   H940    1.107   .     S
C872   H943    1.109   .     S
C872   O988    1.424   .     S
C872   H944    1.118   .     S
C872   C873    1.520   .     S
C873   H948    1.108   .     S
C873   H945    1.106   .     S
C873   H946    1.109   .     S
C874   C876    1.524   .     S
C874   O989    1.414   .     S
C874   H949    1.117   .     S
C874   H950    1.113   .     S
C875   O969    1.289   .     A
C875   O972    1.310   .     A
C876   H951    1.109   .     S
C876   H1352   1.110   1_545 S
C876   H1353   1.109   1_545 S
C877   C878    1.516   .     S
C877   O990    1.423   .     S
C877   H954    1.109   .     S
C877   H955    1.115   .     S
C878   H957    1.109   .     S
C878   H956    1.110   .     S
C878   H959    1.102   .     S
C879   O970    1.302   .     A
C879   O971    1.301   .     A
C880   C212    1.430   1_455 S
C880   N962    1.373   .     S
H952   C1276   1.110   .     S
H953   C1276   1.109   .     S
N961   C1010   1.370   1_455 S
N961   C1012   1.370   1_455 S
N961   Zn997   2.044   .     S
N962   C1011   1.369   1_455 A
N962   Zn998   2.044   .     S
N963   C1214   1.370   1_545 S
N963   Zn999   2.044   .     S
N964   C1215   1.369   1_545 A
N964   Zn1000  2.044   .     S
O965   Zn997   2.022   .     S
O966   Zn1000  2.022   .     S
O967   Zn999   2.025   .     S
O968   Zn1400  2.025   .     S
O969   Zn1400  2.017   .     S
O970   Zn999   2.017   .     S
O971   Zn1000  2.017   .     S
O972   Zn1399  2.017   .     S
O976   Zn1198  2.022   .     S
O987   Zn1197  2.025   .     S
O991   Zn998   2.025   .     S
O992   Zn1198  2.017   .     S
O993   Zn997   2.017   .     S
O994   Zn998   2.017   .     S
O995   Zn1197  2.017   .     S
O996   Zn1399  2.022   .     S
Zn997  O1187   2.025   1_455 S
Zn997  O1195   2.017   1_455 S
Zn998  O1192   2.017   1_455 S
Zn998  O1176   2.022   1_455 S
Zn999  O1372   2.017   1_545 S
Zn999  O1396   2.022   1_545 S
Zn1000 O1369   2.017   1_545 S
Zn1000 O1368   2.025   1_545 S
Br1001 C1080   1.900   .     S
Br1003 C1011   1.908   .     S
Br1004 C1012   1.915   .     S
Br1005 C1013   1.900   .     S
Br1006 C1014   1.888   .     S
Br1007 C1015   1.908   .     S
Br1008 C1016   1.915   .     S
C1009  O1165   1.298   .     A
C1009  C1038   1.446   .     S
C1009  O1191   1.307   .     A
C1010  Br802   1.888   1_655 S
C1010  C1811   1.426   .     S
C1010  N961    1.370   1_655 S
C1011  N962    1.369   1_655 A
C1012  C1680   1.430   1_655 S
C1012  N961    1.370   1_655 S
C1013  N1164   1.373   .     S
C1014  C1815   1.426   .     S
C1014  N1563   1.370   .     S
C1015  N1564   1.369   .     A
C1016  N1163   1.370   .     A
C1016  C1813   1.430   .     S
C1017  O1173   1.386   .     S
C1017  C1036   1.412   .     A
C1017  C1028   1.384   .     A
C1018  C1035   1.402   .     A
C1018  C1029   1.382   .     A
C1018  O1174   1.380   .     S
C1019  C1026   1.384   .     A
C1019  O1175   1.383   .     S
C1019  C1035   1.410   .     A
C1020  C1037   1.438   .     S
C1020  O1187   1.294   .     A
C1020  O1176   1.307   .     A
C1021  C1036   1.391   .     A
C1021  C1027   1.382   .     A
C1021  O1177   1.376   .     S
C1022  O1178   1.381   .     S
C1022  C1038   1.415   .     A
C1022  C1033   1.385   .     A
C1023  C1037   1.394   .     A
C1023  O1179   1.381   .     S
C1023  C1034   1.384   .     A
C1024  O1180   1.384   .     S
C1024  C1037   1.410   .     A
C1024  C1030   1.385   .     A
C1025  O1181   1.382   .     S
C1025  C1038   1.402   .     A
C1025  C1032   1.384   .     A
C1026  C1040   1.412   .     A
C1026  O1182   1.386   .     S
C1027  O1183   1.380   .     S
C1027  C1039   1.402   .     A
C1028  C1039   1.410   .     A
C1028  O1184   1.383   .     S
C1029  C1040   1.391   .     A
C1029  O1185   1.376   .     S
C1030  O1186   1.381   .     S
C1030  C1043   1.415   .     A
C1031  O1192   1.289   .     A
C1031  O1195   1.310   .     A
C1031  C1036   1.435   .     S
C1032  C1041   1.394   .     A
C1032  O1188   1.381   .     S
C1033  O1189   1.384   .     S
C1033  C1041   1.410   .     A
C1034  O1190   1.382   .     S
C1034  C1043   1.402   .     A
C1035  C1042   1.442   .     S
C1039  C1079   1.442   .     S
C1040  C1075   1.435   .     S
C1041  C1064   1.438   .     S
C1042  O1194   1.301   .     A
C1042  O1193   1.302   .     A
C1043  C1053   1.446   .     S
C1044  H1092   1.116   .     S
C1044  O1173   1.418   .     S
C1044  H1081   1.111   .     S
C1044  C1045   1.525   .     S
C1045  H1103   1.110   .     S
C1045  H1114   1.111   .     S
C1045  H1125   1.109   .     S
C1046  O1174   1.417   .     S
C1046  H1147   1.113   .     S
C1046  C1047   1.502   .     S
C1046  H1136   1.107   .     S
C1047  H1082   1.107   .     S
C1047  H1158   1.107   .     S
C1047  H1960   1.106   .     S
C1048  O1175   1.424   .     S
C1048  H1084   1.113   .     S
C1048  C1049   1.532   .     S
C1048  H1083   1.110   .     S
C1049  H1087   1.106   .     S
C1049  H1085   1.107   .     S
C1049  H1086   1.107   .     S
C1050  H1088   1.111   .     S
C1050  O1177   1.423   .     S
C1050  H1089   1.118   .     S
C1050  C1051   1.522   .     S
C1051  H1090   1.107   .     S
C1051  H1091   1.111   .     S
C1051  H1093   1.109   .     S
C1052  H1095   1.111   .     S
C1052  H1094   1.118   .     S
C1052  C1054   1.522   .     S
C1052  O1178   1.415   .     S
C1053  O1168   1.307   .     A
C1053  O1196   1.298   .     A
C1054  H1097   1.108   .     S
C1054  H1098   1.108   .     S
C1054  H1096   1.107   .     S
C1055  C1056   1.520   .     S
C1055  H1100   1.118   .     S
C1055  H1099   1.109   .     S
C1055  O1179   1.424   .     S
C1056  H1101   1.106   .     S
C1056  H1104   1.108   .     S
C1056  H1102   1.109   .     S
C1057  H1105   1.117   .     S
C1057  O1180   1.414   .     S
C1057  C1058   1.524   .     S
C1057  H1106   1.113   .     S
C1058  H1109   1.109   .     S
C1058  H1107   1.109   .     S
C1058  H1108   1.110   .     S
C1059  H1110   1.109   .     S
C1059  H1111   1.115   .     S
C1059  C1060   1.516   .     S
C1059  O1181   1.423   .     S
C1060  H1113   1.109   .     S
C1060  H1112   1.110   .     S
C1060  H1115   1.102   .     S
C1061  O1182   1.418   .     S
C1061  H1117   1.116   .     S
C1061  H1116   1.111   .     S
C1061  C1062   1.525   .     S
C1062  H1119   1.111   .     S
C1062  H1120   1.110   .     S
C1062  H1118   1.110   .     S
C1063  C1065   1.502   .     S
C1063  H1121   1.107   .     S
C1063  O1183   1.417   .     S
C1063  H1122   1.113   .     S
C1064  O1167   1.294   .     A
C1064  O1166   1.307   .     A
C1065  H1126   1.107   .     S
C1065  H1123   1.107   .     S
C1065  H1924   1.106   .     S
C1066  H1127   1.110   .     S
C1066  C1067   1.532   .     S
C1066  O1184   1.424   .     S
C1066  H1128   1.113   .     S
C1067  H1129   1.107   .     S
C1067  H1130   1.107   .     S
C1067  H1131   1.106   .     S
C1068  H1133   1.118   .     S
C1068  C1069   1.522   .     S
C1068  H1132   1.111   .     S
C1068  O1185   1.423   .     S
C1069  H1134   1.107   .     S
C1069  H1137   1.109   .     S
C1069  H1135   1.111   .     S
C1070  C1071   1.522   .     S
C1070  H1138   1.118   .     S
C1070  O1186   1.415   .     S
C1070  H1139   1.111   .     S
C1071  H1141   1.108   .     S
C1071  H1142   1.108   .     S
C1071  H1140   1.107   .     S
C1072  H1143   1.109   .     S
C1072  O1188   1.424   .     S
C1072  H1144   1.118   .     S
C1072  C1073   1.520   .     S
C1073  H1148   1.108   .     S
C1073  H1145   1.106   .     S
C1073  H1146   1.109   .     S
C1074  C1076   1.524   .     S
C1074  O1189   1.414   .     S
C1074  H1149   1.117   .     S
C1074  H1150   1.113   .     S
C1075  O1169   1.289   .     A
C1075  O1172   1.310   .     A
C1076  H1151   1.109   .     S
C1076  H1552   1.110   1_545 S
C1076  H1553   1.109   1_545 S
C1077  C1078   1.516   .     S
C1077  O1190   1.423   .     S
C1077  H1154   1.109   .     S
C1077  H1155   1.115   .     S
C1078  H1157   1.109   .     S
C1078  H1156   1.110   .     S
C1078  H1159   1.102   .     S
C1079  O1170   1.302   .     A
C1079  O1171   1.301   .     A
C1080  N1162   1.373   .     S
H1152  C1476   1.110   .     S
H1153  C1476   1.109   .     S
N1161  Zn1197  2.044   .     S
N1162  Zn1198  2.044   .     S
N1163  C1414   1.370   1_545 S
N1163  Zn1199  2.044   .     S
N1164  C1415   1.369   1_545 A
N1164  Zn1200  2.044   .     S
O1165  Zn1197  2.022   .     S
O1166  Zn1200  2.022   .     S
O1167  Zn1199  2.025   .     S
O1168  Zn1600  2.025   .     S
O1169  Zn1600  2.017   .     S
O1170  Zn1199  2.017   .     S
O1171  Zn1200  2.017   .     S
O1172  Zn1599  2.017   .     S
O1176  Zn998   2.022   1_655 S
O1187  Zn997   2.025   1_655 S
O1191  Zn1198  2.025   .     S
O1192  Zn998   2.017   1_655 S
O1193  Zn1197  2.017   .     S
O1194  Zn1198  2.017   .     S
O1195  Zn997   2.017   1_655 S
O1196  Zn1599  2.022   .     S
Zn1199 O1572   2.017   1_545 S
Zn1199 O1596   2.022   1_545 S
Zn1200 O1569   2.017   1_545 S
Zn1200 O1568   2.025   1_545 S
Br1201 C1280   1.900   .     S
Br1202 C1410   1.888   1_455 S
Br1203 C1211   1.908   .     S
Br1204 C1212   1.915   .     S
Br1205 C1213   1.900   .     S
Br1206 C1214   1.888   .     S
Br1207 C1215   1.908   .     S
Br1208 C1216   1.915   .     S
C1209  O1365   1.298   .     A
C1209  C1238   1.446   .     S
C1209  O1391   1.307   .     A
C1210  Br1402  1.888   .     S
C1210  C2011   1.426   .     S
C1210  N1561   1.370   .     S
C1211  N1562   1.369   .     A
C1212  C2280   1.430   .     S
C1212  N1561   1.370   .     S
C1213  N1364   1.373   .     S
C1214  C2015   1.426   .     S
C1214  N963    1.370   1_565 S
C1215  N964    1.369   1_565 A
C1216  N1363   1.370   .     A
C1216  C2013   1.430   .     S
C1217  O1373   1.386   .     S
C1217  C1236   1.412   .     A
C1217  C1228   1.384   .     A
C1218  C1235   1.402   .     A
C1218  C1229   1.382   .     A
C1218  O1374   1.380   .     S
C1219  C1226   1.384   .     A
C1219  O1375   1.383   .     S
C1219  C1235   1.410   .     A
C1220  C1237   1.438   .     S
C1220  O1387   1.294   .     A
C1220  O1376   1.307   .     A
C1221  C1236   1.391   .     A
C1221  C1227   1.382   .     A
C1221  O1377   1.376   .     S
C1222  O1378   1.381   .     S
C1222  C1238   1.415   .     A
C1222  C1233   1.385   .     A
C1223  C1237   1.394   .     A
C1223  O1379   1.381   .     S
C1223  C1234   1.384   .     A
C1224  O1380   1.384   .     S
C1224  C1237   1.410   .     A
C1224  C1230   1.385   .     A
C1225  O1381   1.382   .     S
C1225  C1238   1.402   .     A
C1225  C1232   1.384   .     A
C1226  C1240   1.412   .     A
C1226  O1382   1.386   .     S
C1227  O1383   1.380   .     S
C1227  C1239   1.402   .     A
C1228  C1239   1.410   .     A
C1228  O1384   1.383   .     S
C1229  C1240   1.391   .     A
C1229  O1385   1.376   .     S
C1230  O1386   1.381   .     S
C1230  C1243   1.415   .     A
C1231  O1392   1.289   .     A
C1231  O1395   1.310   .     A
C1231  C1236   1.435   .     S
C1232  C1241   1.394   .     A
C1232  O1388   1.381   .     S
C1233  O1389   1.384   .     S
C1233  C1241   1.410   .     A
C1234  O1390   1.382   .     S
C1234  C1243   1.402   .     A
C1235  C1242   1.442   .     S
C1239  C1279   1.442   .     S
C1240  C1275   1.435   .     S
C1241  C1264   1.438   .     S
C1242  O1394   1.301   .     A
C1242  O1393   1.302   .     A
C1243  C1253   1.446   .     S
C1244  H1292   1.116   .     S
C1244  O1373   1.418   .     S
C1244  H1281   1.111   .     S
C1244  C1245   1.525   .     S
C1245  H1303   1.110   .     S
C1245  H1314   1.111   .     S
C1245  H1325   1.109   .     S
C1246  O1374   1.417   .     S
C1246  H1347   1.113   .     S
C1246  C1247   1.502   .     S
C1246  H1336   1.107   .     S
C1247  H1282   1.107   .     S
C1247  H1358   1.107   .     S
C1247  H2160   1.106   .     S
C1248  O1375   1.424   .     S
C1248  H1284   1.113   .     S
C1248  C1249   1.532   .     S
C1248  H1283   1.110   .     S
C1249  H1287   1.106   .     S
C1249  H1285   1.107   .     S
C1249  H1286   1.107   .     S
C1250  H1288   1.111   .     S
C1250  O1377   1.423   .     S
C1250  H1289   1.118   .     S
C1250  C1251   1.522   .     S
C1251  H1290   1.107   .     S
C1251  H1291   1.111   .     S
C1251  H1293   1.109   .     S
C1252  H1295   1.111   .     S
C1252  H1294   1.118   .     S
C1252  C1254   1.522   .     S
C1252  O1378   1.415   .     S
C1253  O1368   1.307   .     A
C1253  O1396   1.298   .     A
C1254  H1297   1.108   .     S
C1254  H1298   1.108   .     S
C1254  H1296   1.107   .     S
C1255  C1256   1.520   .     S
C1255  H1300   1.118   .     S
C1255  H1299   1.109   .     S
C1255  O1379   1.424   .     S
C1256  H1301   1.106   .     S
C1256  H1304   1.108   .     S
C1256  H1302   1.109   .     S
C1257  H1305   1.117   .     S
C1257  O1380   1.414   .     S
C1257  C1258   1.524   .     S
C1257  H1306   1.113   .     S
C1258  H1309   1.109   .     S
C1258  H1307   1.109   .     S
C1258  H1308   1.110   .     S
C1259  H1310   1.109   .     S
C1259  H1311   1.115   .     S
C1259  C1260   1.516   .     S
C1259  O1381   1.423   .     S
C1260  H1313   1.109   .     S
C1260  H1312   1.110   .     S
C1260  H1315   1.102   .     S
C1261  O1382   1.418   .     S
C1261  H1317   1.116   .     S
C1261  H1316   1.111   .     S
C1261  C1262   1.525   .     S
C1262  H1319   1.111   .     S
C1262  H1320   1.110   .     S
C1262  H1318   1.110   .     S
C1263  C1265   1.502   .     S
C1263  H1321   1.107   .     S
C1263  O1383   1.417   .     S
C1263  H1322   1.113   .     S
C1264  O1367   1.294   .     A
C1264  O1366   1.307   .     A
C1265  H1326   1.107   .     S
C1265  H1323   1.107   .     S
C1265  H2124   1.106   .     S
C1266  H1327   1.110   .     S
C1266  C1267   1.532   .     S
C1266  O1384   1.424   .     S
C1266  H1328   1.113   .     S
C1267  H1329   1.107   .     S
C1267  H1330   1.107   .     S
C1267  H1331   1.106   .     S
C1268  H1333   1.118   .     S
C1268  C1269   1.522   .     S
C1268  H1332   1.111   .     S
C1268  O1385   1.423   .     S
C1269  H1334   1.107   .     S
C1269  H1337   1.109   .     S
C1269  H1335   1.111   .     S
C1270  C1271   1.522   .     S
C1270  H1338   1.118   .     S
C1270  O1386   1.415   .     S
C1270  H1339   1.111   .     S
C1271  H1341   1.108   .     S
C1271  H1342   1.108   .     S
C1271  H1340   1.107   .     S
C1272  H1343   1.109   .     S
C1272  O1388   1.424   .     S
C1272  H1344   1.118   .     S
C1272  C1273   1.520   .     S
C1273  H1348   1.108   .     S
C1273  H1345   1.106   .     S
C1273  H1346   1.109   .     S
C1274  C1276   1.524   .     S
C1274  O1389   1.414   .     S
C1274  H1349   1.117   .     S
C1274  H1350   1.113   .     S
C1275  O1369   1.289   .     A
C1275  O1372   1.310   .     A
C1276  H1351   1.109   .     S
C1277  C1278   1.516   .     S
C1277  O1390   1.423   .     S
C1277  H1354   1.109   .     S
C1277  H1355   1.115   .     S
C1278  H1357   1.109   .     S
C1278  H1356   1.110   .     S
C1278  H1359   1.102   .     S
C1279  O1370   1.302   .     A
C1279  O1371   1.301   .     A
C1280  C612    1.430   1_455 S
C1280  N1362   1.373   .     S
H1352  C876    1.110   1_565 S
H1353  C876    1.109   1_565 S
N1361  C1410   1.370   1_455 S
N1361  C1412   1.370   1_455 S
N1361  Zn1397  2.044   .     S
N1362  C1411   1.369   1_455 A
N1362  Zn1398  2.044   .     S
N1363  Zn1399  2.044   .     S
N1364  Zn1400  2.044   .     S
O1365  Zn1397  2.022   .     S
O1366  Zn1400  2.022   .     S
O1367  Zn1399  2.025   .     S
O1368  Zn1000  2.025   1_565 S
O1369  Zn1000  2.017   1_565 S
O1370  Zn1399  2.017   .     S
O1371  Zn1400  2.017   .     S
O1372  Zn999   2.017   1_565 S
O1376  Zn1598  2.022   .     S
O1387  Zn1597  2.025   .     S
O1391  Zn1398  2.025   .     S
O1392  Zn1598  2.017   .     S
O1393  Zn1397  2.017   .     S
O1394  Zn1398  2.017   .     S
O1395  Zn1597  2.017   .     S
O1396  Zn999   2.022   1_565 S
Zn1397 O1587   2.025   1_455 S
Zn1397 O1595   2.017   1_455 S
Zn1398 O1592   2.017   1_455 S
Zn1398 O1576   2.022   1_455 S
Br1401 C1480   1.900   .     S
Br1403 C1411   1.908   .     S
Br1404 C1412   1.915   .     S
Br1405 C1413   1.900   .     S
Br1406 C1414   1.888   .     S
Br1407 C1415   1.908   .     S
Br1408 C1416   1.915   .     S
C1409  O1565   1.298   .     A
C1409  C1438   1.446   .     S
C1409  O1591   1.307   .     A
C1410  Br1202  1.888   1_655 S
C1410  C2211   1.426   .     S
C1410  N1361   1.370   1_655 S
C1411  N1362   1.369   1_655 A
C1412  C2080   1.430   1_655 S
C1412  N1361   1.370   1_655 S
C1413  N1564   1.373   .     S
C1414  C2215   1.426   .     S
C1414  N1163   1.370   1_565 S
C1415  N1164   1.369   1_565 A
C1416  N1563   1.370   .     A
C1416  C2213   1.430   .     S
C1417  O1573   1.386   .     S
C1417  C1436   1.412   .     A
C1417  C1428   1.384   .     A
C1418  C1435   1.402   .     A
C1418  C1429   1.382   .     A
C1418  O1574   1.380   .     S
C1419  C1426   1.384   .     A
C1419  O1575   1.383   .     S
C1419  C1435   1.410   .     A
C1420  C1437   1.438   .     S
C1420  O1587   1.294   .     A
C1420  O1576   1.307   .     A
C1421  C1436   1.391   .     A
C1421  C1427   1.382   .     A
C1421  O1577   1.376   .     S
C1422  O1578   1.381   .     S
C1422  C1438   1.415   .     A
C1422  C1433   1.385   .     A
C1423  C1437   1.394   .     A
C1423  O1579   1.381   .     S
C1423  C1434   1.384   .     A
C1424  O1580   1.384   .     S
C1424  C1437   1.410   .     A
C1424  C1430   1.385   .     A
C1425  O1581   1.382   .     S
C1425  C1438   1.402   .     A
C1425  C1432   1.384   .     A
C1426  C1440   1.412   .     A
C1426  O1582   1.386   .     S
C1427  O1583   1.380   .     S
C1427  C1439   1.402   .     A
C1428  C1439   1.410   .     A
C1428  O1584   1.383   .     S
C1429  C1440   1.391   .     A
C1429  O1585   1.376   .     S
C1430  O1586   1.381   .     S
C1430  C1443   1.415   .     A
C1431  O1592   1.289   .     A
C1431  O1595   1.310   .     A
C1431  C1436   1.435   .     S
C1432  C1441   1.394   .     A
C1432  O1588   1.381   .     S
C1433  O1589   1.384   .     S
C1433  C1441   1.410   .     A
C1434  O1590   1.382   .     S
C1434  C1443   1.402   .     A
C1435  C1442   1.442   .     S
C1439  C1479   1.442   .     S
C1440  C1475   1.435   .     S
C1441  C1464   1.438   .     S
C1442  O1594   1.301   .     A
C1442  O1593   1.302   .     A
C1443  C1453   1.446   .     S
C1444  H1492   1.116   .     S
C1444  O1573   1.418   .     S
C1444  H1481   1.111   .     S
C1444  C1445   1.525   .     S
C1445  H1503   1.110   .     S
C1445  H1514   1.111   .     S
C1445  H1525   1.109   .     S
C1446  O1574   1.417   .     S
C1446  H1547   1.113   .     S
C1446  C1447   1.502   .     S
C1446  H1536   1.107   .     S
C1447  H1482   1.107   .     S
C1447  H1558   1.107   .     S
C1447  H2360   1.106   .     S
C1448  O1575   1.424   .     S
C1448  H1484   1.113   .     S
C1448  C1449   1.532   .     S
C1448  H1483   1.110   .     S
C1449  H1487   1.106   .     S
C1449  H1485   1.107   .     S
C1449  H1486   1.107   .     S
C1450  H1488   1.111   .     S
C1450  O1577   1.423   .     S
C1450  H1489   1.118   .     S
C1450  C1451   1.522   .     S
C1451  H1490   1.107   .     S
C1451  H1491   1.111   .     S
C1451  H1493   1.109   .     S
C1452  H1495   1.111   .     S
C1452  H1494   1.118   .     S
C1452  C1454   1.522   .     S
C1452  O1578   1.415   .     S
C1453  O1568   1.307   .     A
C1453  O1596   1.298   .     A
C1454  H1497   1.108   .     S
C1454  H1498   1.108   .     S
C1454  H1496   1.107   .     S
C1455  C1456   1.520   .     S
C1455  H1500   1.118   .     S
C1455  H1499   1.109   .     S
C1455  O1579   1.424   .     S
C1456  H1501   1.106   .     S
C1456  H1504   1.108   .     S
C1456  H1502   1.109   .     S
C1457  H1505   1.117   .     S
C1457  O1580   1.414   .     S
C1457  C1458   1.524   .     S
C1457  H1506   1.113   .     S
C1458  H1509   1.109   .     S
C1458  H1507   1.109   .     S
C1458  H1508   1.110   .     S
C1459  H1510   1.109   .     S
C1459  H1511   1.115   .     S
C1459  C1460   1.516   .     S
C1459  O1581   1.423   .     S
C1460  H1513   1.109   .     S
C1460  H1512   1.110   .     S
C1460  H1515   1.102   .     S
C1461  O1582   1.418   .     S
C1461  H1517   1.116   .     S
C1461  H1516   1.111   .     S
C1461  C1462   1.525   .     S
C1462  H1519   1.111   .     S
C1462  H1520   1.110   .     S
C1462  H1518   1.110   .     S
C1463  C1465   1.502   .     S
C1463  H1521   1.107   .     S
C1463  O1583   1.417   .     S
C1463  H1522   1.113   .     S
C1464  O1567   1.294   .     A
C1464  O1566   1.307   .     A
C1465  H1526   1.107   .     S
C1465  H1523   1.107   .     S
C1465  H2324   1.106   .     S
C1466  H1527   1.110   .     S
C1466  C1467   1.532   .     S
C1466  O1584   1.424   .     S
C1466  H1528   1.113   .     S
C1467  H1529   1.107   .     S
C1467  H1530   1.107   .     S
C1467  H1531   1.106   .     S
C1468  H1533   1.118   .     S
C1468  C1469   1.522   .     S
C1468  H1532   1.111   .     S
C1468  O1585   1.423   .     S
C1469  H1534   1.107   .     S
C1469  H1537   1.109   .     S
C1469  H1535   1.111   .     S
C1470  C1471   1.522   .     S
C1470  H1538   1.118   .     S
C1470  O1586   1.415   .     S
C1470  H1539   1.111   .     S
C1471  H1541   1.108   .     S
C1471  H1542   1.108   .     S
C1471  H1540   1.107   .     S
C1472  H1543   1.109   .     S
C1472  O1588   1.424   .     S
C1472  H1544   1.118   .     S
C1472  C1473   1.520   .     S
C1473  H1548   1.108   .     S
C1473  H1545   1.106   .     S
C1473  H1546   1.109   .     S
C1474  C1476   1.524   .     S
C1474  O1589   1.414   .     S
C1474  H1549   1.117   .     S
C1474  H1550   1.113   .     S
C1475  O1569   1.289   .     A
C1475  O1572   1.310   .     A
C1476  H1551   1.109   .     S
C1477  C1478   1.516   .     S
C1477  O1590   1.423   .     S
C1477  H1554   1.109   .     S
C1477  H1555   1.115   .     S
C1478  H1557   1.109   .     S
C1478  H1556   1.110   .     S
C1478  H1559   1.102   .     S
C1479  O1570   1.302   .     A
C1479  O1571   1.301   .     A
C1480  N1562   1.373   .     S
H1552  C1076   1.110   1_565 S
H1553  C1076   1.109   1_565 S
N1561  Zn1597  2.044   .     S
N1562  Zn1598  2.044   .     S
N1563  Zn1599  2.044   .     S
N1564  Zn1600  2.044   .     S
O1565  Zn1597  2.022   .     S
O1566  Zn1600  2.022   .     S
O1567  Zn1599  2.025   .     S
O1568  Zn1200  2.025   1_565 S
O1569  Zn1200  2.017   1_565 S
O1570  Zn1599  2.017   .     S
O1571  Zn1600  2.017   .     S
O1572  Zn1199  2.017   1_565 S
O1576  Zn1398  2.022   1_655 S
O1587  Zn1397  2.025   1_655 S
O1591  Zn1598  2.025   .     S
O1592  Zn1398  2.017   1_655 S
O1593  Zn1597  2.017   .     S
O1594  Zn1598  2.017   .     S
O1595  Zn1397  2.017   1_655 S
O1596  Zn1199  2.022   1_565 S
Br1601 C1680   1.900   .     S
Br1602 C1810   1.888   1_455 S
Br1603 C1611   1.908   .     S
Br1604 C1612   1.915   .     S
Br1605 C1613   1.900   .     S
Br1606 C1614   1.888   .     S
Br1607 C1615   1.908   .     S
Br1608 C1616   1.915   .     S
C1609  O1765   1.298   .     A
C1609  C1638   1.446   .     S
C1609  O1791   1.307   .     A
C1610  Br1802  1.888   .     S
C1610  C11     1.426   1_556 S
C1610  N1961   1.370   .     S
C1611  N1962   1.369   .     A
C1612  C280    1.430   1_556 S
C1612  N1961   1.370   .     S
C1613  N1764   1.373   .     S
C1614  C15     1.426   1_556 S
C1614  N2163   1.370   .     S
C1615  N2164   1.369   .     A
C1616  N1763   1.370   .     A
C1616  C13     1.430   1_556 S
C1617  O1773   1.386   .     S
C1617  C1636   1.412   .     A
C1617  C1628   1.384   .     A
C1618  C1635   1.402   .     A
C1618  C1629   1.382   .     A
C1618  O1774   1.380   .     S
C1619  C1626   1.384   .     A
C1619  O1775   1.383   .     S
C1619  C1635   1.410   .     A
C1620  C1637   1.438   .     S
C1620  O1787   1.294   .     A
C1620  O1776   1.307   .     A
C1621  C1636   1.391   .     A
C1621  C1627   1.382   .     A
C1621  O1777   1.376   .     S
C1622  O1778   1.381   .     S
C1622  C1638   1.415   .     A
C1622  C1633   1.385   .     A
C1623  C1637   1.394   .     A
C1623  O1779   1.381   .     S
C1623  C1634   1.384   .     A
C1624  O1780   1.384   .     S
C1624  C1637   1.410   .     A
C1624  C1630   1.385   .     A
C1625  O1781   1.382   .     S
C1625  C1638   1.402   .     A
C1625  C1632   1.384   .     A
C1626  C1640   1.412   .     A
C1626  O1782   1.386   .     S
C1627  O1783   1.380   .     S
C1627  C1639   1.402   .     A
C1628  C1639   1.410   .     A
C1628  O1784   1.383   .     S
C1629  C1640   1.391   .     A
C1629  O1785   1.376   .     S
C1630  O1786   1.381   .     S
C1630  C1643   1.415   .     A
C1631  O1792   1.289   .     A
C1631  O1795   1.310   .     A
C1631  C1636   1.435   .     S
C1632  C1641   1.394   .     A
C1632  O1788   1.381   .     S
C1633  O1789   1.384   .     S
C1633  C1641   1.410   .     A
C1634  O1790   1.382   .     S
C1634  C1643   1.402   .     A
C1635  C1642   1.442   .     S
C1639  C1679   1.442   .     S
C1640  C1675   1.435   .     S
C1641  C1664   1.438   .     S
C1642  O1794   1.301   .     A
C1642  O1793   1.302   .     A
C1643  C1653   1.446   .     S
C1644  H1692   1.116   .     S
C1644  O1773   1.418   .     S
C1644  H1681   1.111   .     S
C1644  C1645   1.525   .     S
C1645  H1703   1.110   .     S
C1645  H1714   1.111   .     S
C1645  H1725   1.109   .     S
C1646  O1774   1.417   .     S
C1646  H1747   1.113   .     S
C1646  C1647   1.502   .     S
C1646  H1736   1.107   .     S
C1647  H1682   1.107   .     S
C1647  H1758   1.107   .     S
C1647  H160    1.106   1_556 S
C1648  O1775   1.424   .     S
C1648  H1684   1.113   .     S
C1648  C1649   1.532   .     S
C1648  H1683   1.110   .     S
C1649  H1687   1.106   .     S
C1649  H1685   1.107   .     S
C1649  H1686   1.107   .     S
C1650  H1688   1.111   .     S
C1650  O1777   1.423   .     S
C1650  H1689   1.118   .     S
C1650  C1651   1.522   .     S
C1651  H1690   1.107   .     S
C1651  H1691   1.111   .     S
C1651  H1693   1.109   .     S
C1652  H1695   1.111   .     S
C1652  H1694   1.118   .     S
C1652  C1654   1.522   .     S
C1652  O1778   1.415   .     S
C1653  O1768   1.307   .     A
C1653  O1796   1.298   .     A
C1654  H1697   1.108   .     S
C1654  H1698   1.108   .     S
C1654  H1696   1.107   .     S
C1655  C1656   1.520   .     S
C1655  H1700   1.118   .     S
C1655  H1699   1.109   .     S
C1655  O1779   1.424   .     S
C1656  H1701   1.106   .     S
C1656  H1704   1.108   .     S
C1656  H1702   1.109   .     S
C1657  H1705   1.117   .     S
C1657  O1780   1.414   .     S
C1657  C1658   1.524   .     S
C1657  H1706   1.113   .     S
C1658  H1709   1.109   .     S
C1658  H1707   1.109   .     S
C1658  H1708   1.110   .     S
C1659  H1710   1.109   .     S
C1659  H1711   1.115   .     S
C1659  C1660   1.516   .     S
C1659  O1781   1.423   .     S
C1660  H1713   1.109   .     S
C1660  H1712   1.110   .     S
C1660  H1715   1.102   .     S
C1661  O1782   1.418   .     S
C1661  H1717   1.116   .     S
C1661  H1716   1.111   .     S
C1661  C1662   1.525   .     S
C1662  H1719   1.111   .     S
C1662  H1720   1.110   .     S
C1662  H1718   1.110   .     S
C1663  C1665   1.502   .     S
C1663  H1721   1.107   .     S
C1663  O1783   1.417   .     S
C1663  H1722   1.113   .     S
C1664  O1767   1.294   .     A
C1664  O1766   1.307   .     A
C1665  H1726   1.107   .     S
C1665  H1723   1.107   .     S
C1665  H124    1.106   1_556 S
C1666  H1727   1.110   .     S
C1666  C1667   1.532   .     S
C1666  O1784   1.424   .     S
C1666  H1728   1.113   .     S
C1667  H1729   1.107   .     S
C1667  H1730   1.107   .     S
C1667  H1731   1.106   .     S
C1668  H1733   1.118   .     S
C1668  C1669   1.522   .     S
C1668  H1732   1.111   .     S
C1668  O1785   1.423   .     S
C1669  H1734   1.107   .     S
C1669  H1737   1.109   .     S
C1669  H1735   1.111   .     S
C1670  C1671   1.522   .     S
C1670  H1738   1.118   .     S
C1670  O1786   1.415   .     S
C1670  H1739   1.111   .     S
C1671  H1741   1.108   .     S
C1671  H1742   1.108   .     S
C1671  H1740   1.107   .     S
C1672  H1743   1.109   .     S
C1672  O1788   1.424   .     S
C1672  H1744   1.118   .     S
C1672  C1673   1.520   .     S
C1673  H1748   1.108   .     S
C1673  H1745   1.106   .     S
C1673  H1746   1.109   .     S
C1674  C1676   1.524   .     S
C1674  O1789   1.414   .     S
C1674  H1749   1.117   .     S
C1674  H1750   1.113   .     S
C1675  O1769   1.289   .     A
C1675  O1772   1.310   .     A
C1676  H1751   1.109   .     S
C1676  H2152   1.110   1_545 S
C1676  H2153   1.109   1_545 S
C1677  C1678   1.516   .     S
C1677  O1790   1.423   .     S
C1677  H1754   1.109   .     S
C1677  H1755   1.115   .     S
C1678  H1757   1.109   .     S
C1678  H1756   1.110   .     S
C1678  H1759   1.102   .     S
C1679  O1770   1.302   .     A
C1679  O1771   1.301   .     A
C1680  C1012   1.430   1_455 S
C1680  N1762   1.373   .     S
H1752  C2076   1.110   .     S
H1753  C2076   1.109   .     S
N1761  C1810   1.370   1_455 S
N1761  C1812   1.370   1_455 S
N1761  Zn1797  2.044   .     S
N1762  C1811   1.369   1_455 A
N1762  Zn1798  2.044   .     S
N1763  C2014   1.370   1_545 S
N1763  Zn1799  2.044   .     S
N1764  C2015   1.369   1_545 A
N1764  Zn1800  2.044   .     S
O1765  Zn1797  2.022   .     S
O1766  Zn1800  2.022   .     S
O1767  Zn1799  2.025   .     S
O1768  Zn2200  2.025   .     S
O1769  Zn2200  2.017   .     S
O1770  Zn1799  2.017   .     S
O1771  Zn1800  2.017   .     S
O1772  Zn2199  2.017   .     S
O1776  Zn1998  2.022   .     S
O1787  Zn1997  2.025   .     S
O1791  Zn1798  2.025   .     S
O1792  Zn1998  2.017   .     S
O1793  Zn1797  2.017   .     S
O1794  Zn1798  2.017   .     S
O1795  Zn1997  2.017   .     S
O1796  Zn2199  2.022   .     S
Zn1797 O1987   2.025   1_455 S
Zn1797 O1995   2.017   1_455 S
Zn1798 O1992   2.017   1_455 S
Zn1798 O1976   2.022   1_455 S
Zn1799 O2172   2.017   1_545 S
Zn1799 O2196   2.022   1_545 S
Zn1800 O2169   2.017   1_545 S
Zn1800 O2168   2.025   1_545 S
Br1801 C1880   1.900   .     S
Br1803 C1811   1.908   .     S
Br1804 C1812   1.915   .     S
Br1805 C1813   1.900   .     S
Br1806 C1814   1.888   .     S
Br1807 C1815   1.908   .     S
Br1808 C1816   1.915   .     S
C1809  O1965   1.298   .     A
C1809  C1838   1.446   .     S
C1809  O1991   1.307   .     A
C1810  Br1602  1.888   1_655 S
C1810  C211    1.426   1_556 S
C1810  N1761   1.370   1_655 S
C1811  N1762   1.369   1_655 A
C1812  C80     1.430   1_656 S
C1812  N1761   1.370   1_655 S
C1813  N1964   1.373   .     S
C1814  C215    1.426   1_556 S
C1814  N2363   1.370   .     S
C1815  N2364   1.369   .     A
C1816  N1963   1.370   .     A
C1816  C213    1.430   1_556 S
C1817  O1973   1.386   .     S
C1817  C1836   1.412   .     A
C1817  C1828   1.384   .     A
C1818  C1835   1.402   .     A
C1818  C1829   1.382   .     A
C1818  O1974   1.380   .     S
C1819  C1826   1.384   .     A
C1819  O1975   1.383   .     S
C1819  C1835   1.410   .     A
C1820  C1837   1.438   .     S
C1820  O1987   1.294   .     A
C1820  O1976   1.307   .     A
C1821  C1836   1.391   .     A
C1821  C1827   1.382   .     A
C1821  O1977   1.376   .     S
C1822  O1978   1.381   .     S
C1822  C1838   1.415   .     A
C1822  C1833   1.385   .     A
C1823  C1837   1.394   .     A
C1823  O1979   1.381   .     S
C1823  C1834   1.384   .     A
C1824  O1980   1.384   .     S
C1824  C1837   1.410   .     A
C1824  C1830   1.385   .     A
C1825  O1981   1.382   .     S
C1825  C1838   1.402   .     A
C1825  C1832   1.384   .     A
C1826  C1840   1.412   .     A
C1826  O1982   1.386   .     S
C1827  O1983   1.380   .     S
C1827  C1839   1.402   .     A
C1828  C1839   1.410   .     A
C1828  O1984   1.383   .     S
C1829  C1840   1.391   .     A
C1829  O1985   1.376   .     S
C1830  O1986   1.381   .     S
C1830  C1843   1.415   .     A
C1831  O1992   1.289   .     A
C1831  O1995   1.310   .     A
C1831  C1836   1.435   .     S
C1832  C1841   1.394   .     A
C1832  O1988   1.381   .     S
C1833  O1989   1.384   .     S
C1833  C1841   1.410   .     A
C1834  O1990   1.382   .     S
C1834  C1843   1.402   .     A
C1835  C1842   1.442   .     S
C1839  C1879   1.442   .     S
C1840  C1875   1.435   .     S
C1841  C1864   1.438   .     S
C1842  O1994   1.301   .     A
C1842  O1993   1.302   .     A
C1843  C1853   1.446   .     S
C1844  H1892   1.116   .     S
C1844  O1973   1.418   .     S
C1844  H1881   1.111   .     S
C1844  C1845   1.525   .     S
C1845  H1903   1.110   .     S
C1845  H1914   1.111   .     S
C1845  H1925   1.109   .     S
C1846  O1974   1.417   .     S
C1846  H1947   1.113   .     S
C1846  C1847   1.502   .     S
C1846  H1936   1.107   .     S
C1847  H1882   1.107   .     S
C1847  H1958   1.107   .     S
C1847  H360    1.106   1_556 S
C1848  O1975   1.424   .     S
C1848  H1884   1.113   .     S
C1848  C1849   1.532   .     S
C1848  H1883   1.110   .     S
C1849  H1887   1.106   .     S
C1849  H1885   1.107   .     S
C1849  H1886   1.107   .     S
C1850  H1888   1.111   .     S
C1850  O1977   1.423   .     S
C1850  H1889   1.118   .     S
C1850  C1851   1.522   .     S
C1851  H1890   1.107   .     S
C1851  H1891   1.111   .     S
C1851  H1893   1.109   .     S
C1852  H1895   1.111   .     S
C1852  H1894   1.118   .     S
C1852  C1854   1.522   .     S
C1852  O1978   1.415   .     S
C1853  O1968   1.307   .     A
C1853  O1996   1.298   .     A
C1854  H1897   1.108   .     S
C1854  H1898   1.108   .     S
C1854  H1896   1.107   .     S
C1855  C1856   1.520   .     S
C1855  H1900   1.118   .     S
C1855  H1899   1.109   .     S
C1855  O1979   1.424   .     S
C1856  H1901   1.106   .     S
C1856  H1904   1.108   .     S
C1856  H1902   1.109   .     S
C1857  H1905   1.117   .     S
C1857  O1980   1.414   .     S
C1857  C1858   1.524   .     S
C1857  H1906   1.113   .     S
C1858  H1909   1.109   .     S
C1858  H1907   1.109   .     S
C1858  H1908   1.110   .     S
C1859  H1910   1.109   .     S
C1859  H1911   1.115   .     S
C1859  C1860   1.516   .     S
C1859  O1981   1.423   .     S
C1860  H1913   1.109   .     S
C1860  H1912   1.110   .     S
C1860  H1915   1.102   .     S
C1861  O1982   1.418   .     S
C1861  H1917   1.116   .     S
C1861  H1916   1.111   .     S
C1861  C1862   1.525   .     S
C1862  H1919   1.111   .     S
C1862  H1920   1.110   .     S
C1862  H1918   1.110   .     S
C1863  C1865   1.502   .     S
C1863  H1921   1.107   .     S
C1863  O1983   1.417   .     S
C1863  H1922   1.113   .     S
C1864  O1967   1.294   .     A
C1864  O1966   1.307   .     A
C1865  H1926   1.107   .     S
C1865  H1923   1.107   .     S
C1865  H324    1.106   1_556 S
C1866  H1927   1.110   .     S
C1866  C1867   1.532   .     S
C1866  O1984   1.424   .     S
C1866  H1928   1.113   .     S
C1867  H1929   1.107   .     S
C1867  H1930   1.107   .     S
C1867  H1931   1.106   .     S
C1868  H1933   1.118   .     S
C1868  C1869   1.522   .     S
C1868  H1932   1.111   .     S
C1868  O1985   1.423   .     S
C1869  H1934   1.107   .     S
C1869  H1937   1.109   .     S
C1869  H1935   1.111   .     S
C1870  C1871   1.522   .     S
C1870  H1938   1.118   .     S
C1870  O1986   1.415   .     S
C1870  H1939   1.111   .     S
C1871  H1941   1.108   .     S
C1871  H1942   1.108   .     S
C1871  H1940   1.107   .     S
C1872  H1943   1.109   .     S
C1872  O1988   1.424   .     S
C1872  H1944   1.118   .     S
C1872  C1873   1.520   .     S
C1873  H1948   1.108   .     S
C1873  H1945   1.106   .     S
C1873  H1946   1.109   .     S
C1874  C1876   1.524   .     S
C1874  O1989   1.414   .     S
C1874  H1949   1.117   .     S
C1874  H1950   1.113   .     S
C1875  O1969   1.289   .     A
C1875  O1972   1.310   .     A
C1876  H1951   1.109   .     S
C1876  H2352   1.110   1_545 S
C1876  H2353   1.109   1_545 S
C1877  C1878   1.516   .     S
C1877  O1990   1.423   .     S
C1877  H1954   1.109   .     S
C1877  H1955   1.115   .     S
C1878  H1957   1.109   .     S
C1878  H1956   1.110   .     S
C1878  H1959   1.102   .     S
C1879  O1970   1.302   .     A
C1879  O1971   1.301   .     A
C1880  N1962   1.373   .     S
H1952  C2276   1.110   .     S
H1953  C2276   1.109   .     S
N1961  Zn1997  2.044   .     S
N1962  Zn1998  2.044   .     S
N1963  C2214   1.370   1_545 S
N1963  Zn1999  2.044   .     S
N1964  C2215   1.369   1_545 A
N1964  Zn2000  2.044   .     S
O1965  Zn1997  2.022   .     S
O1966  Zn2000  2.022   .     S
O1967  Zn1999  2.025   .     S
O1968  Zn2400  2.025   .     S
O1969  Zn2400  2.017   .     S
O1970  Zn1999  2.017   .     S
O1971  Zn2000  2.017   .     S
O1972  Zn2399  2.017   .     S
O1976  Zn1798  2.022   1_655 S
O1987  Zn1797  2.025   1_655 S
O1991  Zn1998  2.025   .     S
O1992  Zn1798  2.017   1_655 S
O1993  Zn1997  2.017   .     S
O1994  Zn1998  2.017   .     S
O1995  Zn1797  2.017   1_655 S
O1996  Zn2399  2.022   .     S
Zn1999 O2372   2.017   1_545 S
Zn1999 O2396   2.022   1_545 S
Zn2000 O2369   2.017   1_545 S
Zn2000 O2368   2.025   1_545 S
Br2001 C2080   1.900   .     S
Br2002 C2210   1.888   1_455 S
Br2003 C2011   1.908   .     S
Br2004 C2012   1.915   .     S
Br2005 C2013   1.900   .     S
Br2006 C2014   1.888   .     S
Br2007 C2015   1.908   .     S
Br2008 C2016   1.915   .     S
C2009  O2165   1.298   .     A
C2009  C2038   1.446   .     S
C2009  O2191   1.307   .     A
C2010  Br2202  1.888   .     S
C2010  C411    1.426   1_556 S
C2010  N2361   1.370   .     S
C2011  N2362   1.369   .     A
C2012  C680    1.430   1_556 S
C2012  N2361   1.370   .     S
C2013  N2164   1.373   .     S
C2014  C415    1.426   1_556 S
C2014  N1763   1.370   1_565 S
C2015  N1764   1.369   1_565 A
C2016  N2163   1.370   .     A
C2016  C413    1.430   1_556 S
C2017  O2173   1.386   .     S
C2017  C2036   1.412   .     A
C2017  C2028   1.384   .     A
C2018  C2035   1.402   .     A
C2018  C2029   1.382   .     A
C2018  O2174   1.380   .     S
C2019  C2026   1.384   .     A
C2019  O2175   1.383   .     S
C2019  C2035   1.410   .     A
C2020  C2037   1.438   .     S
C2020  O2187   1.294   .     A
C2020  O2176   1.307   .     A
C2021  C2036   1.391   .     A
C2021  C2027   1.382   .     A
C2021  O2177   1.376   .     S
C2022  O2178   1.381   .     S
C2022  C2038   1.415   .     A
C2022  C2033   1.385   .     A
C2023  C2037   1.394   .     A
C2023  O2179   1.381   .     S
C2023  C2034   1.384   .     A
C2024  O2180   1.384   .     S
C2024  C2037   1.410   .     A
C2024  C2030   1.385   .     A
C2025  O2181   1.382   .     S
C2025  C2038   1.402   .     A
C2025  C2032   1.384   .     A
C2026  C2040   1.412   .     A
C2026  O2182   1.386   .     S
C2027  O2183   1.380   .     S
C2027  C2039   1.402   .     A
C2028  C2039   1.410   .     A
C2028  O2184   1.383   .     S
C2029  C2040   1.391   .     A
C2029  O2185   1.376   .     S
C2030  O2186   1.381   .     S
C2030  C2043   1.415   .     A
C2031  O2192   1.289   .     A
C2031  O2195   1.310   .     A
C2031  C2036   1.435   .     S
C2032  C2041   1.394   .     A
C2032  O2188   1.381   .     S
C2033  O2189   1.384   .     S
C2033  C2041   1.410   .     A
C2034  O2190   1.382   .     S
C2034  C2043   1.402   .     A
C2035  C2042   1.442   .     S
C2039  C2079   1.442   .     S
C2040  C2075   1.435   .     S
C2041  C2064   1.438   .     S
C2042  O2194   1.301   .     A
C2042  O2193   1.302   .     A
C2043  C2053   1.446   .     S
C2044  H2092   1.116   .     S
C2044  O2173   1.418   .     S
C2044  H2081   1.111   .     S
C2044  C2045   1.525   .     S
C2045  H2103   1.110   .     S
C2045  H2114   1.111   .     S
C2045  H2125   1.109   .     S
C2046  O2174   1.417   .     S
C2046  H2147   1.113   .     S
C2046  C2047   1.502   .     S
C2046  H2136   1.107   .     S
C2047  H2082   1.107   .     S
C2047  H2158   1.107   .     S
C2047  H560    1.106   1_556 S
C2048  O2175   1.424   .     S
C2048  H2084   1.113   .     S
C2048  C2049   1.532   .     S
C2048  H2083   1.110   .     S
C2049  H2087   1.106   .     S
C2049  H2085   1.107   .     S
C2049  H2086   1.107   .     S
C2050  H2088   1.111   .     S
C2050  O2177   1.423   .     S
C2050  H2089   1.118   .     S
C2050  C2051   1.522   .     S
C2051  H2090   1.107   .     S
C2051  H2091   1.111   .     S
C2051  H2093   1.109   .     S
C2052  H2095   1.111   .     S
C2052  H2094   1.118   .     S
C2052  C2054   1.522   .     S
C2052  O2178   1.415   .     S
C2053  O2168   1.307   .     A
C2053  O2196   1.298   .     A
C2054  H2097   1.108   .     S
C2054  H2098   1.108   .     S
C2054  H2096   1.107   .     S
C2055  C2056   1.520   .     S
C2055  H2100   1.118   .     S
C2055  H2099   1.109   .     S
C2055  O2179   1.424   .     S
C2056  H2101   1.106   .     S
C2056  H2104   1.108   .     S
C2056  H2102   1.109   .     S
C2057  H2105   1.117   .     S
C2057  O2180   1.414   .     S
C2057  C2058   1.524   .     S
C2057  H2106   1.113   .     S
C2058  H2109   1.109   .     S
C2058  H2107   1.109   .     S
C2058  H2108   1.110   .     S
C2059  H2110   1.109   .     S
C2059  H2111   1.115   .     S
C2059  C2060   1.516   .     S
C2059  O2181   1.423   .     S
C2060  H2113   1.109   .     S
C2060  H2112   1.110   .     S
C2060  H2115   1.102   .     S
C2061  O2182   1.418   .     S
C2061  H2117   1.116   .     S
C2061  H2116   1.111   .     S
C2061  C2062   1.525   .     S
C2062  H2119   1.111   .     S
C2062  H2120   1.110   .     S
C2062  H2118   1.110   .     S
C2063  C2065   1.502   .     S
C2063  H2121   1.107   .     S
C2063  O2183   1.417   .     S
C2063  H2122   1.113   .     S
C2064  O2167   1.294   .     A
C2064  O2166   1.307   .     A
C2065  H2126   1.107   .     S
C2065  H2123   1.107   .     S
C2065  H524    1.106   1_556 S
C2066  H2127   1.110   .     S
C2066  C2067   1.532   .     S
C2066  O2184   1.424   .     S
C2066  H2128   1.113   .     S
C2067  H2129   1.107   .     S
C2067  H2130   1.107   .     S
C2067  H2131   1.106   .     S
C2068  H2133   1.118   .     S
C2068  C2069   1.522   .     S
C2068  H2132   1.111   .     S
C2068  O2185   1.423   .     S
C2069  H2134   1.107   .     S
C2069  H2137   1.109   .     S
C2069  H2135   1.111   .     S
C2070  C2071   1.522   .     S
C2070  H2138   1.118   .     S
C2070  O2186   1.415   .     S
C2070  H2139   1.111   .     S
C2071  H2141   1.108   .     S
C2071  H2142   1.108   .     S
C2071  H2140   1.107   .     S
C2072  H2143   1.109   .     S
C2072  O2188   1.424   .     S
C2072  H2144   1.118   .     S
C2072  C2073   1.520   .     S
C2073  H2148   1.108   .     S
C2073  H2145   1.106   .     S
C2073  H2146   1.109   .     S
C2074  C2076   1.524   .     S
C2074  O2189   1.414   .     S
C2074  H2149   1.117   .     S
C2074  H2150   1.113   .     S
C2075  O2169   1.289   .     A
C2075  O2172   1.310   .     A
C2076  H2151   1.109   .     S
C2077  C2078   1.516   .     S
C2077  O2190   1.423   .     S
C2077  H2154   1.109   .     S
C2077  H2155   1.115   .     S
C2078  H2157   1.109   .     S
C2078  H2156   1.110   .     S
C2078  H2159   1.102   .     S
C2079  O2170   1.302   .     A
C2079  O2171   1.301   .     A
C2080  C1412   1.430   1_455 S
C2080  N2162   1.373   .     S
H2152  C1676   1.110   1_565 S
H2153  C1676   1.109   1_565 S
N2161  C2210   1.370   1_455 S
N2161  C2212   1.370   1_455 S
N2161  Zn2197  2.044   .     S
N2162  C2211   1.369   1_455 A
N2162  Zn2198  2.044   .     S
N2163  Zn2199  2.044   .     S
N2164  Zn2200  2.044   .     S
O2165  Zn2197  2.022   .     S
O2166  Zn2200  2.022   .     S
O2167  Zn2199  2.025   .     S
O2168  Zn1800  2.025   1_565 S
O2169  Zn1800  2.017   1_565 S
O2170  Zn2199  2.017   .     S
O2171  Zn2200  2.017   .     S
O2172  Zn1799  2.017   1_565 S
O2176  Zn2398  2.022   .     S
O2187  Zn2397  2.025   .     S
O2191  Zn2198  2.025   .     S
O2192  Zn2398  2.017   .     S
O2193  Zn2197  2.017   .     S
O2194  Zn2198  2.017   .     S
O2195  Zn2397  2.017   .     S
O2196  Zn1799  2.022   1_565 S
Zn2197 O2387   2.025   1_455 S
Zn2197 O2395   2.017   1_455 S
Zn2198 O2392   2.017   1_455 S
Zn2198 O2376   2.022   1_455 S
Br2201 C2280   1.900   .     S
Br2203 C2211   1.908   .     S
Br2204 C2212   1.915   .     S
Br2205 C2213   1.900   .     S
Br2206 C2214   1.888   .     S
Br2207 C2215   1.908   .     S
Br2208 C2216   1.915   .     S
C2209  O2365   1.298   .     A
C2209  C2238   1.446   .     S
C2209  O2391   1.307   .     A
C2210  Br2002  1.888   1_655 S
C2210  C611    1.426   1_556 S
C2210  N2161   1.370   1_655 S
C2211  N2162   1.369   1_655 A
C2212  C480    1.430   1_656 S
C2212  N2161   1.370   1_655 S
C2213  N2364   1.373   .     S
C2214  C615    1.426   1_556 S
C2214  N1963   1.370   1_565 S
C2215  N1964   1.369   1_565 A
C2216  N2363   1.370   .     A
C2216  C613    1.430   1_556 S
C2217  O2373   1.386   .     S
C2217  C2236   1.412   .     A
C2217  C2228   1.384   .     A
C2218  C2235   1.402   .     A
C2218  C2229   1.382   .     A
C2218  O2374   1.380   .     S
C2219  C2226   1.384   .     A
C2219  O2375   1.383   .     S
C2219  C2235   1.410   .     A
C2220  C2237   1.438   .     S
C2220  O2387   1.294   .     A
C2220  O2376   1.307   .     A
C2221  C2236   1.391   .     A
C2221  C2227   1.382   .     A
C2221  O2377   1.376   .     S
C2222  O2378   1.381   .     S
C2222  C2238   1.415   .     A
C2222  C2233   1.385   .     A
C2223  C2237   1.394   .     A
C2223  O2379   1.381   .     S
C2223  C2234   1.384   .     A
C2224  O2380   1.384   .     S
C2224  C2237   1.410   .     A
C2224  C2230   1.385   .     A
C2225  O2381   1.382   .     S
C2225  C2238   1.402   .     A
C2225  C2232   1.384   .     A
C2226  C2240   1.412   .     A
C2226  O2382   1.386   .     S
C2227  O2383   1.380   .     S
C2227  C2239   1.402   .     A
C2228  C2239   1.410   .     A
C2228  O2384   1.383   .     S
C2229  C2240   1.391   .     A
C2229  O2385   1.376   .     S
C2230  O2386   1.381   .     S
C2230  C2243   1.415   .     A
C2231  O2392   1.289   .     A
C2231  O2395   1.310   .     A
C2231  C2236   1.435   .     S
C2232  C2241   1.394   .     A
C2232  O2388   1.381   .     S
C2233  O2389   1.384   .     S
C2233  C2241   1.410   .     A
C2234  O2390   1.382   .     S
C2234  C2243   1.402   .     A
C2235  C2242   1.442   .     S
C2239  C2279   1.442   .     S
C2240  C2275   1.435   .     S
C2241  C2264   1.438   .     S
C2242  O2394   1.301   .     A
C2242  O2393   1.302   .     A
C2243  C2253   1.446   .     S
C2244  H2292   1.116   .     S
C2244  O2373   1.418   .     S
C2244  H2281   1.111   .     S
C2244  C2245   1.525   .     S
C2245  H2303   1.110   .     S
C2245  H2314   1.111   .     S
C2245  H2325   1.109   .     S
C2246  O2374   1.417   .     S
C2246  H2347   1.113   .     S
C2246  C2247   1.502   .     S
C2246  H2336   1.107   .     S
C2247  H2282   1.107   .     S
C2247  H2358   1.107   .     S
C2247  H760    1.106   1_556 S
C2248  O2375   1.424   .     S
C2248  H2284   1.113   .     S
C2248  C2249   1.532   .     S
C2248  H2283   1.110   .     S
C2249  H2287   1.106   .     S
C2249  H2285   1.107   .     S
C2249  H2286   1.107   .     S
C2250  H2288   1.111   .     S
C2250  O2377   1.423   .     S
C2250  H2289   1.118   .     S
C2250  C2251   1.522   .     S
C2251  H2290   1.107   .     S
C2251  H2291   1.111   .     S
C2251  H2293   1.109   .     S
C2252  H2295   1.111   .     S
C2252  H2294   1.118   .     S
C2252  C2254   1.522   .     S
C2252  O2378   1.415   .     S
C2253  O2368   1.307   .     A
C2253  O2396   1.298   .     A
C2254  H2297   1.108   .     S
C2254  H2298   1.108   .     S
C2254  H2296   1.107   .     S
C2255  C2256   1.520   .     S
C2255  H2300   1.118   .     S
C2255  H2299   1.109   .     S
C2255  O2379   1.424   .     S
C2256  H2301   1.106   .     S
C2256  H2304   1.108   .     S
C2256  H2302   1.109   .     S
C2257  H2305   1.117   .     S
C2257  O2380   1.414   .     S
C2257  C2258   1.524   .     S
C2257  H2306   1.113   .     S
C2258  H2309   1.109   .     S
C2258  H2307   1.109   .     S
C2258  H2308   1.110   .     S
C2259  H2310   1.109   .     S
C2259  H2311   1.115   .     S
C2259  C2260   1.516   .     S
C2259  O2381   1.423   .     S
C2260  H2313   1.109   .     S
C2260  H2312   1.110   .     S
C2260  H2315   1.102   .     S
C2261  O2382   1.418   .     S
C2261  H2317   1.116   .     S
C2261  H2316   1.111   .     S
C2261  C2262   1.525   .     S
C2262  H2319   1.111   .     S
C2262  H2320   1.110   .     S
C2262  H2318   1.110   .     S
C2263  C2265   1.502   .     S
C2263  H2321   1.107   .     S
C2263  O2383   1.417   .     S
C2263  H2322   1.113   .     S
C2264  O2367   1.294   .     A
C2264  O2366   1.307   .     A
C2265  H2326   1.107   .     S
C2265  H2323   1.107   .     S
C2265  H724    1.106   1_556 S
C2266  H2327   1.110   .     S
C2266  C2267   1.532   .     S
C2266  O2384   1.424   .     S
C2266  H2328   1.113   .     S
C2267  H2329   1.107   .     S
C2267  H2330   1.107   .     S
C2267  H2331   1.106   .     S
C2268  H2333   1.118   .     S
C2268  C2269   1.522   .     S
C2268  H2332   1.111   .     S
C2268  O2385   1.423   .     S
C2269  H2334   1.107   .     S
C2269  H2337   1.109   .     S
C2269  H2335   1.111   .     S
C2270  C2271   1.522   .     S
C2270  H2338   1.118   .     S
C2270  O2386   1.415   .     S
C2270  H2339   1.111   .     S
C2271  H2341   1.108   .     S
C2271  H2342   1.108   .     S
C2271  H2340   1.107   .     S
C2272  H2343   1.109   .     S
C2272  O2388   1.424   .     S
C2272  H2344   1.118   .     S
C2272  C2273   1.520   .     S
C2273  H2348   1.108   .     S
C2273  H2345   1.106   .     S
C2273  H2346   1.109   .     S
C2274  C2276   1.524   .     S
C2274  O2389   1.414   .     S
C2274  H2349   1.117   .     S
C2274  H2350   1.113   .     S
C2275  O2369   1.289   .     A
C2275  O2372   1.310   .     A
C2276  H2351   1.109   .     S
C2277  C2278   1.516   .     S
C2277  O2390   1.423   .     S
C2277  H2354   1.109   .     S
C2277  H2355   1.115   .     S
C2278  H2357   1.109   .     S
C2278  H2356   1.110   .     S
C2278  H2359   1.102   .     S
C2279  O2370   1.302   .     A
C2279  O2371   1.301   .     A
C2280  N2362   1.373   .     S
H2352  C1876   1.110   1_565 S
H2353  C1876   1.109   1_565 S
N2361  Zn2397  2.044   .     S
N2362  Zn2398  2.044   .     S
N2363  Zn2399  2.044   .     S
N2364  Zn2400  2.044   .     S
O2365  Zn2397  2.022   .     S
O2366  Zn2400  2.022   .     S
O2367  Zn2399  2.025   .     S
O2368  Zn2000  2.025   1_565 S
O2369  Zn2000  2.017   1_565 S
O2370  Zn2399  2.017   .     S
O2371  Zn2400  2.017   .     S
O2372  Zn1999  2.017   1_565 S
O2376  Zn2198  2.022   1_655 S
O2387  Zn2197  2.025   1_655 S
O2391  Zn2398  2.025   .     S
O2392  Zn2198  2.017   1_655 S
O2393  Zn2397  2.017   .     S
O2394  Zn2398  2.017   .     S
O2395  Zn2197  2.017   1_655 S
O2396  Zn1999  2.022   1_565 S
