data_str_m3_o1_o10_pcu_sym.211
_audit_creation_date              2020-01-03
_audit_creation_method            'Materials Studio'
_symmetry_space_group_name_H-M    'P1'
_symmetry_Int_Tables_number       1
_symmetry_cell_setting            triclinic
loop_
_symmetry_equiv_pos_as_xyz
  x,y,z
_cell_length_a                    25.7988
_cell_length_b                    32.1559
_cell_length_c                    29.6867
_cell_angle_alpha                 90.4916
_cell_angle_beta                  98.0687
_cell_angle_gamma                 89.9041
loop_
_atom_site_label
_atom_site_type_symbol
_atom_site_fract_x
_atom_site_fract_y
_atom_site_fract_z
_atom_site_U_iso_or_equiv
_atom_site_adp_type
_atom_site_occupancy
C1     C     0.16888   0.08677   0.16694   0.00000  Uiso   1.00
C2     C     0.16445   0.24656   0.16639   0.00000  Uiso   1.00
C3     C     0.06725   0.16709   0.15523   0.00000  Uiso   1.00
C4     C     0.26608   0.16625   0.17810   0.00000  Uiso   1.00
C5     C     0.01364   0.17676   0.15215   0.00000  Uiso   1.00
C6     C     0.31969   0.15657   0.18119   0.00000  Uiso   1.00
C7     C     0.14113   0.02244   0.13029   0.00000  Uiso   1.00
C8     C     0.19220   0.31089   0.20305   0.00000  Uiso   1.00
C9     C     0.13693   0.31312   0.12901   0.00000  Uiso   1.00
C10    C     0.19641   0.02022   0.20433   0.00000  Uiso   1.00
C11    C     0.16328   0.29077   0.16607   0.00000  Uiso   1.00
C12    C     0.17005   0.04257   0.16727   0.00000  Uiso   1.00
C13    C     0.20148   0.19021   0.02884   0.00000  Uiso   1.00
C14    C     0.13185   0.14312   0.30450   0.00000  Uiso   1.00
C15    C     0.20182   0.19030   0.31463   0.00000  Uiso   1.00
C16    C     0.13151   0.14303   0.01870   0.00000  Uiso   1.00
H17    H     0.12028   0.04009   0.10268   0.00000  Uiso   1.00
H18    H     0.21306   0.29324   0.23066   0.00000  Uiso   1.00
H19    H     0.22907   0.20917   0.05070   0.00000  Uiso   1.00
H20    H     0.10426   0.12416   0.28263   0.00000  Uiso   1.00
N21    N     0.16665   0.16666   0.28573   0.00000  Uiso   1.00
N22    N     0.16668   0.16668   0.04760   0.00000  Uiso   1.00
O23    O     0.16666   0.10558   0.20487   0.00000  Uiso   1.00
O24    O     0.16667   0.22775   0.12846   0.00000  Uiso   1.00
O25    O     0.16666   0.10559   0.12843   0.00000  Uiso   1.00
O26    O     0.16667   0.22774   0.20490   0.00000  Uiso   1.00
O27    O     0.09058   0.16666   0.19595   0.00000  Uiso   1.00
O28    O     0.24275   0.16667   0.13739   0.00000  Uiso   1.00
O29    O     0.09058   0.16667   0.11950   0.00000  Uiso   1.00
O30    O     0.24275   0.16666   0.21383   0.00000  Uiso   1.00
Zn31   Zn    0.16667   0.16666   0.21771   0.00000  Uiso   1.00
Zn32   Zn    0.16667   0.16667   0.11563   0.00000  Uiso   1.00
C33    C     0.33103   0.21856   0.12989   0.00000  Uiso   1.00
C34    C     0.00936   0.25450   0.16378   0.00000  Uiso   1.00
H35    H     0.31902   0.25136   0.19207   0.00000  Uiso   1.00
H36    H     0.05154   0.25502   0.17792   0.00000  Uiso   1.00
H37    H     0.33257   0.28447   0.14638   0.00000  Uiso   1.00
H38    H     0.01933   0.22339   0.10065   0.00000  Uiso   1.00
H39    H     0.28958   0.22059   0.11489   0.00000  Uiso   1.00
C40    C     0.00230   0.11477   0.20344   0.00000  Uiso   1.00
C41    C     0.32398   0.07884   0.16955   0.00000  Uiso   1.00
H42    H     0.28180   0.07831   0.15541   0.00000  Uiso   1.00
H43    H     0.01431   0.08197   0.14127   0.00000  Uiso   1.00
H44    H     0.00076   0.04887   0.18696   0.00000  Uiso   1.00
H45    H     0.04376   0.11275   0.21845   0.00000  Uiso   1.00
H46    H     0.31401   0.10994   0.23268   0.00000  Uiso   1.00
C47    C     0.10263   0.29377   0.08859   0.00000  Uiso   1.00
C48    C     0.13047   0.29313   0.04645   0.00000  Uiso   1.00
H49    H     0.16824   0.27620   0.05349   0.00000  Uiso   1.00
H50    H     0.10547   0.27719   0.01798   0.00000  Uiso   1.00
H51    H     0.13813   0.32534   0.03587   0.00000  Uiso   1.00
H52    H     0.09031   0.26194   0.09565   0.00000  Uiso   1.00
H53    H     0.06571   0.31189   0.08108   0.00000  Uiso   1.00
C54    C     0.23071   0.03957   0.24475   0.00000  Uiso   1.00
C55    C     0.20286   0.04020   0.28689   0.00000  Uiso   1.00
H56    H     0.22786   0.05614   0.31535   0.00000  Uiso   1.00
H57    H     0.16510   0.05713   0.27985   0.00000  Uiso   1.00
H58    H     0.19521   0.00799   0.29746   0.00000  Uiso   1.00
H59    H     0.26762   0.02144   0.25226   0.00000  Uiso   1.00
H60    H     0.24302   0.07139   0.23769   0.00000  Uiso   1.00
I61    I     0.25982   0.22843   0.29263   0.00000  Uiso   1.00
I62    I     0.07352   0.10491   0.04071   0.00000  Uiso   1.00
C63    C     0.50222   0.08677   0.16694   0.00000  Uiso   1.00
C64    C     0.49778   0.24656   0.16639   0.00000  Uiso   1.00
C65    C     0.40059   0.16709   0.15523   0.00000  Uiso   1.00
C66    C     0.59941   0.16625   0.17810   0.00000  Uiso   1.00
C67    C     0.34697   0.17676   0.15215   0.00000  Uiso   1.00
C68    C     0.65303   0.15657   0.18119   0.00000  Uiso   1.00
C69    C     0.47446   0.02244   0.13029   0.00000  Uiso   1.00
C70    C     0.52554   0.31089   0.20305   0.00000  Uiso   1.00
C71    C     0.47026   0.31312   0.12901   0.00000  Uiso   1.00
C72    C     0.52974   0.02022   0.20433   0.00000  Uiso   1.00
C73    C     0.49662   0.29077   0.16607   0.00000  Uiso   1.00
C74    C     0.50338   0.04257   0.16727   0.00000  Uiso   1.00
C75    C     0.53482   0.19021   0.02884   0.00000  Uiso   1.00
C76    C     0.46518   0.14312   0.30450   0.00000  Uiso   1.00
C77    C     0.53516   0.19030   0.31463   0.00000  Uiso   1.00
C78    C     0.46484   0.14303   0.01870   0.00000  Uiso   1.00
H79    H     0.45361   0.04009   0.10268   0.00000  Uiso   1.00
H80    H     0.54639   0.29324   0.23066   0.00000  Uiso   1.00
H81    H     0.56240   0.20917   0.05070   0.00000  Uiso   1.00
H82    H     0.43760   0.12416   0.28263   0.00000  Uiso   1.00
N83    N     0.49999   0.16666   0.28573   0.00000  Uiso   1.00
N84    N     0.50001   0.16668   0.04760   0.00000  Uiso   1.00
O85    O     0.50000   0.10558   0.20487   0.00000  Uiso   1.00
O86    O     0.50000   0.22775   0.12846   0.00000  Uiso   1.00
O87    O     0.50000   0.10559   0.12843   0.00000  Uiso   1.00
O88    O     0.50000   0.22774   0.20490   0.00000  Uiso   1.00
O89    O     0.42392   0.16666   0.19595   0.00000  Uiso   1.00
O90    O     0.57608   0.16667   0.13739   0.00000  Uiso   1.00
O91    O     0.42392   0.16667   0.11950   0.00000  Uiso   1.00
O92    O     0.57608   0.16666   0.21383   0.00000  Uiso   1.00
Zn93   Zn    0.50000   0.16666   0.21771   0.00000  Uiso   1.00
Zn94   Zn    0.50000   0.16667   0.11563   0.00000  Uiso   1.00
C95    C     0.66436   0.21856   0.12989   0.00000  Uiso   1.00
C96    C     0.34269   0.25450   0.16378   0.00000  Uiso   1.00
H97    H     0.65235   0.25136   0.19207   0.00000  Uiso   1.00
H98    H     0.38487   0.25502   0.17792   0.00000  Uiso   1.00
H99    H     0.66591   0.28447   0.14638   0.00000  Uiso   1.00
H100   H     0.35266   0.22339   0.10065   0.00000  Uiso   1.00
H101   H     0.62291   0.22059   0.11489   0.00000  Uiso   1.00
C102   C     0.33564   0.11477   0.20344   0.00000  Uiso   1.00
C103   C     0.65731   0.07884   0.16955   0.00000  Uiso   1.00
H104   H     0.61513   0.07831   0.15541   0.00000  Uiso   1.00
H105   H     0.34765   0.08197   0.14127   0.00000  Uiso   1.00
H106   H     0.33409   0.04887   0.18696   0.00000  Uiso   1.00
H107   H     0.37709   0.11275   0.21845   0.00000  Uiso   1.00
H108   H     0.64734   0.10994   0.23268   0.00000  Uiso   1.00
C109   C     0.43596   0.29377   0.08859   0.00000  Uiso   1.00
C110   C     0.46380   0.29313   0.04645   0.00000  Uiso   1.00
H111   H     0.50157   0.27620   0.05349   0.00000  Uiso   1.00
H112   H     0.43881   0.27719   0.01798   0.00000  Uiso   1.00
H113   H     0.47146   0.32534   0.03587   0.00000  Uiso   1.00
H114   H     0.42365   0.26194   0.09565   0.00000  Uiso   1.00
H115   H     0.39905   0.31189   0.08108   0.00000  Uiso   1.00
C116   C     0.56404   0.03957   0.24475   0.00000  Uiso   1.00
C117   C     0.53620   0.04020   0.28689   0.00000  Uiso   1.00
H118   H     0.56119   0.05614   0.31535   0.00000  Uiso   1.00
H119   H     0.49843   0.05713   0.27985   0.00000  Uiso   1.00
H120   H     0.52854   0.00799   0.29746   0.00000  Uiso   1.00
H121   H     0.60095   0.02144   0.25226   0.00000  Uiso   1.00
H122   H     0.57635   0.07139   0.23769   0.00000  Uiso   1.00
I123   I     0.59315   0.22843   0.29263   0.00000  Uiso   1.00
I124   I     0.40685   0.10491   0.04071   0.00000  Uiso   1.00
C125   C     0.83555   0.08677   0.16694   0.00000  Uiso   1.00
C126   C     0.83112   0.24656   0.16639   0.00000  Uiso   1.00
C127   C     0.73392   0.16709   0.15523   0.00000  Uiso   1.00
C128   C     0.93275   0.16625   0.17810   0.00000  Uiso   1.00
C129   C     0.68031   0.17676   0.15215   0.00000  Uiso   1.00
C130   C     0.98636   0.15657   0.18119   0.00000  Uiso   1.00
C131   C     0.80780   0.02244   0.13029   0.00000  Uiso   1.00
C132   C     0.85887   0.31089   0.20305   0.00000  Uiso   1.00
C133   C     0.80359   0.31312   0.12901   0.00000  Uiso   1.00
C134   C     0.86307   0.02022   0.20433   0.00000  Uiso   1.00
C135   C     0.82995   0.29077   0.16607   0.00000  Uiso   1.00
C136   C     0.83672   0.04257   0.16727   0.00000  Uiso   1.00
C137   C     0.86815   0.19021   0.02884   0.00000  Uiso   1.00
C138   C     0.79851   0.14312   0.30450   0.00000  Uiso   1.00
C139   C     0.86849   0.19030   0.31463   0.00000  Uiso   1.00
C140   C     0.79818   0.14303   0.01870   0.00000  Uiso   1.00
H141   H     0.78694   0.04009   0.10268   0.00000  Uiso   1.00
H142   H     0.87972   0.29324   0.23066   0.00000  Uiso   1.00
H143   H     0.89574   0.20917   0.05070   0.00000  Uiso   1.00
H144   H     0.77093   0.12416   0.28263   0.00000  Uiso   1.00
N145   N     0.83332   0.16666   0.28573   0.00000  Uiso   1.00
N146   N     0.83335   0.16668   0.04760   0.00000  Uiso   1.00
O147   O     0.83333   0.10558   0.20487   0.00000  Uiso   1.00
O148   O     0.83334   0.22775   0.12846   0.00000  Uiso   1.00
O149   O     0.83333   0.10559   0.12843   0.00000  Uiso   1.00
O150   O     0.83334   0.22774   0.20490   0.00000  Uiso   1.00
O151   O     0.75725   0.16666   0.19595   0.00000  Uiso   1.00
O152   O     0.90942   0.16667   0.13739   0.00000  Uiso   1.00
O153   O     0.75725   0.16667   0.11950   0.00000  Uiso   1.00
O154   O     0.90942   0.16666   0.21383   0.00000  Uiso   1.00
Zn155  Zn    0.83333   0.16666   0.21771   0.00000  Uiso   1.00
Zn156  Zn    0.83333   0.16667   0.11563   0.00000  Uiso   1.00
C157   C     0.99770   0.21856   0.12989   0.00000  Uiso   1.00
C158   C     0.67602   0.25450   0.16378   0.00000  Uiso   1.00
H159   H     0.98569   0.25136   0.19207   0.00000  Uiso   1.00
H160   H     0.71820   0.25502   0.17792   0.00000  Uiso   1.00
H161   H     0.99924   0.28447   0.14638   0.00000  Uiso   1.00
H162   H     0.68599   0.22339   0.10065   0.00000  Uiso   1.00
H163   H     0.95624   0.22059   0.11489   0.00000  Uiso   1.00
C164   C     0.66897   0.11477   0.20344   0.00000  Uiso   1.00
C165   C     0.99064   0.07884   0.16955   0.00000  Uiso   1.00
H166   H     0.94846   0.07831   0.15541   0.00000  Uiso   1.00
H167   H     0.68098   0.08197   0.14127   0.00000  Uiso   1.00
H168   H     0.66743   0.04887   0.18696   0.00000  Uiso   1.00
H169   H     0.71042   0.11275   0.21845   0.00000  Uiso   1.00
H170   H     0.98067   0.10994   0.23268   0.00000  Uiso   1.00
C171   C     0.76929   0.29377   0.08859   0.00000  Uiso   1.00
C172   C     0.79714   0.29313   0.04645   0.00000  Uiso   1.00
H173   H     0.83490   0.27620   0.05349   0.00000  Uiso   1.00
H174   H     0.77214   0.27719   0.01798   0.00000  Uiso   1.00
H175   H     0.80479   0.32534   0.03587   0.00000  Uiso   1.00
H176   H     0.75698   0.26194   0.09565   0.00000  Uiso   1.00
H177   H     0.73238   0.31189   0.08108   0.00000  Uiso   1.00
C178   C     0.89737   0.03957   0.24475   0.00000  Uiso   1.00
C179   C     0.86953   0.04020   0.28689   0.00000  Uiso   1.00
H180   H     0.89453   0.05614   0.31535   0.00000  Uiso   1.00
H181   H     0.83176   0.05713   0.27985   0.00000  Uiso   1.00
H182   H     0.86187   0.00799   0.29746   0.00000  Uiso   1.00
H183   H     0.93429   0.02144   0.25226   0.00000  Uiso   1.00
H184   H     0.90969   0.07139   0.23769   0.00000  Uiso   1.00
I185   I     0.92648   0.22843   0.29263   0.00000  Uiso   1.00
I186   I     0.74018   0.10491   0.04071   0.00000  Uiso   1.00
C187   C     0.16888   0.42011   0.16694   0.00000  Uiso   1.00
C188   C     0.16445   0.57989   0.16639   0.00000  Uiso   1.00
C189   C     0.06725   0.50042   0.15523   0.00000  Uiso   1.00
C190   C     0.26608   0.49958   0.17810   0.00000  Uiso   1.00
C191   C     0.01364   0.51009   0.15215   0.00000  Uiso   1.00
C192   C     0.31969   0.48991   0.18119   0.00000  Uiso   1.00
C193   C     0.14113   0.35577   0.13029   0.00000  Uiso   1.00
C194   C     0.19220   0.64423   0.20305   0.00000  Uiso   1.00
C195   C     0.13693   0.64645   0.12901   0.00000  Uiso   1.00
C196   C     0.19641   0.35355   0.20433   0.00000  Uiso   1.00
C197   C     0.16328   0.62410   0.16607   0.00000  Uiso   1.00
C198   C     0.17005   0.37590   0.16727   0.00000  Uiso   1.00
C199   C     0.20148   0.52355   0.02884   0.00000  Uiso   1.00
C200   C     0.13185   0.47645   0.30450   0.00000  Uiso   1.00
C201   C     0.20182   0.52363   0.31463   0.00000  Uiso   1.00
C202   C     0.13151   0.47637   0.01870   0.00000  Uiso   1.00
H203   H     0.12028   0.37342   0.10268   0.00000  Uiso   1.00
H204   H     0.21306   0.62658   0.23066   0.00000  Uiso   1.00
H205   H     0.22907   0.54251   0.05070   0.00000  Uiso   1.00
H206   H     0.10426   0.45749   0.28263   0.00000  Uiso   1.00
N207   N     0.16665   0.49999   0.28573   0.00000  Uiso   1.00
N208   N     0.16668   0.50001   0.04760   0.00000  Uiso   1.00
O209   O     0.16666   0.43892   0.20487   0.00000  Uiso   1.00
O210   O     0.16667   0.56108   0.12846   0.00000  Uiso   1.00
O211   O     0.16666   0.43893   0.12843   0.00000  Uiso   1.00
O212   O     0.16667   0.56107   0.20490   0.00000  Uiso   1.00
O213   O     0.09058   0.50000   0.19595   0.00000  Uiso   1.00
O214   O     0.24275   0.50000   0.13739   0.00000  Uiso   1.00
O215   O     0.09058   0.50000   0.11950   0.00000  Uiso   1.00
O216   O     0.24275   0.50000   0.21383   0.00000  Uiso   1.00
Zn217  Zn    0.16667   0.49999   0.21771   0.00000  Uiso   1.00
Zn218  Zn    0.16667   0.50001   0.11563   0.00000  Uiso   1.00
C219   C     0.33103   0.55189   0.12989   0.00000  Uiso   1.00
C220   C     0.00936   0.58783   0.16378   0.00000  Uiso   1.00
H221   H     0.31902   0.58469   0.19207   0.00000  Uiso   1.00
H222   H     0.05154   0.58835   0.17792   0.00000  Uiso   1.00
H223   H     0.33257   0.61780   0.14638   0.00000  Uiso   1.00
H224   H     0.01933   0.55673   0.10065   0.00000  Uiso   1.00
H225   H     0.28958   0.55392   0.11489   0.00000  Uiso   1.00
C226   C     0.00230   0.44811   0.20344   0.00000  Uiso   1.00
C227   C     0.32398   0.41217   0.16955   0.00000  Uiso   1.00
H228   H     0.28180   0.41165   0.15541   0.00000  Uiso   1.00
H229   H     0.01431   0.41531   0.14127   0.00000  Uiso   1.00
H230   H     0.00076   0.38220   0.18696   0.00000  Uiso   1.00
H231   H     0.04376   0.44608   0.21845   0.00000  Uiso   1.00
H232   H     0.31401   0.44327   0.23268   0.00000  Uiso   1.00
C233   C     0.10263   0.62710   0.08859   0.00000  Uiso   1.00
C234   C     0.13047   0.62646   0.04645   0.00000  Uiso   1.00
H235   H     0.16824   0.60953   0.05349   0.00000  Uiso   1.00
H236   H     0.10547   0.61053   0.01798   0.00000  Uiso   1.00
H237   H     0.13813   0.65868   0.03587   0.00000  Uiso   1.00
H238   H     0.09031   0.59528   0.09565   0.00000  Uiso   1.00
H239   H     0.06571   0.64523   0.08108   0.00000  Uiso   1.00
C240   C     0.23071   0.37290   0.24475   0.00000  Uiso   1.00
C241   C     0.20286   0.37354   0.28689   0.00000  Uiso   1.00
H242   H     0.22786   0.38947   0.31535   0.00000  Uiso   1.00
H243   H     0.16510   0.39047   0.27985   0.00000  Uiso   1.00
H244   H     0.19521   0.34132   0.29746   0.00000  Uiso   1.00
H245   H     0.26762   0.35477   0.25226   0.00000  Uiso   1.00
H246   H     0.24302   0.40472   0.23769   0.00000  Uiso   1.00
I247   I     0.25982   0.56176   0.29263   0.00000  Uiso   1.00
I248   I     0.07352   0.43824   0.04071   0.00000  Uiso   1.00
C249   C     0.50222   0.42011   0.16694   0.00000  Uiso   1.00
C250   C     0.49778   0.57989   0.16639   0.00000  Uiso   1.00
C251   C     0.40059   0.50042   0.15523   0.00000  Uiso   1.00
C252   C     0.59941   0.49958   0.17810   0.00000  Uiso   1.00
C253   C     0.34697   0.51009   0.15215   0.00000  Uiso   1.00
C254   C     0.65303   0.48991   0.18119   0.00000  Uiso   1.00
C255   C     0.47446   0.35577   0.13029   0.00000  Uiso   1.00
C256   C     0.52554   0.64423   0.20305   0.00000  Uiso   1.00
C257   C     0.47026   0.64645   0.12901   0.00000  Uiso   1.00
C258   C     0.52974   0.35355   0.20433   0.00000  Uiso   1.00
C259   C     0.49662   0.62410   0.16607   0.00000  Uiso   1.00
C260   C     0.50338   0.37590   0.16727   0.00000  Uiso   1.00
C261   C     0.53482   0.52355   0.02884   0.00000  Uiso   1.00
C262   C     0.46518   0.47645   0.30450   0.00000  Uiso   1.00
C263   C     0.53516   0.52363   0.31463   0.00000  Uiso   1.00
C264   C     0.46484   0.47637   0.01870   0.00000  Uiso   1.00
H265   H     0.45361   0.37342   0.10268   0.00000  Uiso   1.00
H266   H     0.54639   0.62658   0.23066   0.00000  Uiso   1.00
H267   H     0.56240   0.54251   0.05070   0.00000  Uiso   1.00
H268   H     0.43760   0.45749   0.28263   0.00000  Uiso   1.00
N269   N     0.49999   0.49999   0.28573   0.00000  Uiso   1.00
N270   N     0.50001   0.50001   0.04760   0.00000  Uiso   1.00
O271   O     0.50000   0.43892   0.20487   0.00000  Uiso   1.00
O272   O     0.50000   0.56108   0.12846   0.00000  Uiso   1.00
O273   O     0.50000   0.43893   0.12843   0.00000  Uiso   1.00
O274   O     0.50000   0.56107   0.20490   0.00000  Uiso   1.00
O275   O     0.42392   0.50000   0.19595   0.00000  Uiso   1.00
O276   O     0.57608   0.50000   0.13739   0.00000  Uiso   1.00
O277   O     0.42392   0.50000   0.11950   0.00000  Uiso   1.00
O278   O     0.57608   0.50000   0.21383   0.00000  Uiso   1.00
Zn279  Zn    0.50000   0.49999   0.21771   0.00000  Uiso   1.00
Zn280  Zn    0.50000   0.50001   0.11563   0.00000  Uiso   1.00
C281   C     0.66436   0.55189   0.12989   0.00000  Uiso   1.00
C282   C     0.34269   0.58783   0.16378   0.00000  Uiso   1.00
H283   H     0.65235   0.58469   0.19207   0.00000  Uiso   1.00
H284   H     0.38487   0.58835   0.17792   0.00000  Uiso   1.00
H285   H     0.66591   0.61780   0.14638   0.00000  Uiso   1.00
H286   H     0.35266   0.55673   0.10065   0.00000  Uiso   1.00
H287   H     0.62291   0.55392   0.11489   0.00000  Uiso   1.00
C288   C     0.33564   0.44811   0.20344   0.00000  Uiso   1.00
C289   C     0.65731   0.41217   0.16955   0.00000  Uiso   1.00
H290   H     0.61513   0.41165   0.15541   0.00000  Uiso   1.00
H291   H     0.34765   0.41531   0.14127   0.00000  Uiso   1.00
H292   H     0.33409   0.38220   0.18696   0.00000  Uiso   1.00
H293   H     0.37709   0.44608   0.21845   0.00000  Uiso   1.00
H294   H     0.64734   0.44327   0.23268   0.00000  Uiso   1.00
C295   C     0.43596   0.62710   0.08859   0.00000  Uiso   1.00
C296   C     0.46380   0.62646   0.04645   0.00000  Uiso   1.00
H297   H     0.50157   0.60953   0.05349   0.00000  Uiso   1.00
H298   H     0.43881   0.61053   0.01798   0.00000  Uiso   1.00
H299   H     0.47146   0.65868   0.03587   0.00000  Uiso   1.00
H300   H     0.42365   0.59528   0.09565   0.00000  Uiso   1.00
H301   H     0.39905   0.64523   0.08108   0.00000  Uiso   1.00
C302   C     0.56404   0.37290   0.24475   0.00000  Uiso   1.00
C303   C     0.53620   0.37354   0.28689   0.00000  Uiso   1.00
H304   H     0.56119   0.38947   0.31535   0.00000  Uiso   1.00
H305   H     0.49843   0.39047   0.27985   0.00000  Uiso   1.00
H306   H     0.52854   0.34132   0.29746   0.00000  Uiso   1.00
H307   H     0.60095   0.35477   0.25226   0.00000  Uiso   1.00
H308   H     0.57635   0.40472   0.23769   0.00000  Uiso   1.00
I309   I     0.59315   0.56176   0.29263   0.00000  Uiso   1.00
I310   I     0.40685   0.43824   0.04071   0.00000  Uiso   1.00
C311   C     0.83555   0.42011   0.16694   0.00000  Uiso   1.00
C312   C     0.83112   0.57989   0.16639   0.00000  Uiso   1.00
C313   C     0.73392   0.50042   0.15523   0.00000  Uiso   1.00
C314   C     0.93275   0.49958   0.17810   0.00000  Uiso   1.00
C315   C     0.68031   0.51009   0.15215   0.00000  Uiso   1.00
C316   C     0.98636   0.48991   0.18119   0.00000  Uiso   1.00
C317   C     0.80780   0.35577   0.13029   0.00000  Uiso   1.00
C318   C     0.85887   0.64423   0.20305   0.00000  Uiso   1.00
C319   C     0.80359   0.64645   0.12901   0.00000  Uiso   1.00
C320   C     0.86307   0.35355   0.20433   0.00000  Uiso   1.00
C321   C     0.82995   0.62410   0.16607   0.00000  Uiso   1.00
C322   C     0.83672   0.37590   0.16727   0.00000  Uiso   1.00
C323   C     0.86815   0.52355   0.02884   0.00000  Uiso   1.00
C324   C     0.79851   0.47645   0.30450   0.00000  Uiso   1.00
C325   C     0.86849   0.52363   0.31463   0.00000  Uiso   1.00
C326   C     0.79818   0.47637   0.01870   0.00000  Uiso   1.00
H327   H     0.78694   0.37342   0.10268   0.00000  Uiso   1.00
H328   H     0.87972   0.62658   0.23066   0.00000  Uiso   1.00
H329   H     0.89574   0.54251   0.05070   0.00000  Uiso   1.00
H330   H     0.77093   0.45749   0.28263   0.00000  Uiso   1.00
N331   N     0.83332   0.49999   0.28573   0.00000  Uiso   1.00
N332   N     0.83335   0.50001   0.04760   0.00000  Uiso   1.00
O333   O     0.83333   0.43892   0.20487   0.00000  Uiso   1.00
O334   O     0.83334   0.56108   0.12846   0.00000  Uiso   1.00
O335   O     0.83333   0.43893   0.12843   0.00000  Uiso   1.00
O336   O     0.83334   0.56107   0.20490   0.00000  Uiso   1.00
O337   O     0.75725   0.50000   0.19595   0.00000  Uiso   1.00
O338   O     0.90942   0.50000   0.13739   0.00000  Uiso   1.00
O339   O     0.75725   0.50000   0.11950   0.00000  Uiso   1.00
O340   O     0.90942   0.50000   0.21383   0.00000  Uiso   1.00
Zn341  Zn    0.83333   0.49999   0.21771   0.00000  Uiso   1.00
Zn342  Zn    0.83333   0.50001   0.11563   0.00000  Uiso   1.00
C343   C     0.99770   0.55189   0.12989   0.00000  Uiso   1.00
C344   C     0.67602   0.58783   0.16378   0.00000  Uiso   1.00
H345   H     0.98569   0.58469   0.19207   0.00000  Uiso   1.00
H346   H     0.71820   0.58835   0.17792   0.00000  Uiso   1.00
H347   H     0.99924   0.61780   0.14638   0.00000  Uiso   1.00
H348   H     0.68599   0.55673   0.10065   0.00000  Uiso   1.00
H349   H     0.95624   0.55392   0.11489   0.00000  Uiso   1.00
C350   C     0.66897   0.44811   0.20344   0.00000  Uiso   1.00
C351   C     0.99064   0.41217   0.16955   0.00000  Uiso   1.00
H352   H     0.94846   0.41165   0.15541   0.00000  Uiso   1.00
H353   H     0.68098   0.41531   0.14127   0.00000  Uiso   1.00
H354   H     0.66743   0.38220   0.18696   0.00000  Uiso   1.00
H355   H     0.71042   0.44608   0.21845   0.00000  Uiso   1.00
H356   H     0.98067   0.44327   0.23268   0.00000  Uiso   1.00
C357   C     0.76929   0.62710   0.08859   0.00000  Uiso   1.00
C358   C     0.79714   0.62646   0.04645   0.00000  Uiso   1.00
H359   H     0.83490   0.60953   0.05349   0.00000  Uiso   1.00
H360   H     0.77214   0.61053   0.01798   0.00000  Uiso   1.00
H361   H     0.80479   0.65868   0.03587   0.00000  Uiso   1.00
H362   H     0.75698   0.59528   0.09565   0.00000  Uiso   1.00
H363   H     0.73238   0.64523   0.08108   0.00000  Uiso   1.00
C364   C     0.89737   0.37290   0.24475   0.00000  Uiso   1.00
C365   C     0.86953   0.37354   0.28689   0.00000  Uiso   1.00
H366   H     0.89453   0.38947   0.31535   0.00000  Uiso   1.00
H367   H     0.83176   0.39047   0.27985   0.00000  Uiso   1.00
H368   H     0.86187   0.34132   0.29746   0.00000  Uiso   1.00
H369   H     0.93429   0.35477   0.25226   0.00000  Uiso   1.00
H370   H     0.90969   0.40472   0.23769   0.00000  Uiso   1.00
I371   I     0.92648   0.56176   0.29263   0.00000  Uiso   1.00
I372   I     0.74018   0.43824   0.04071   0.00000  Uiso   1.00
C373   C     0.16888   0.75344   0.16694   0.00000  Uiso   1.00
C374   C     0.16445   0.91323   0.16639   0.00000  Uiso   1.00
C375   C     0.06725   0.83375   0.15523   0.00000  Uiso   1.00
C376   C     0.26608   0.83291   0.17810   0.00000  Uiso   1.00
C377   C     0.01364   0.84343   0.15215   0.00000  Uiso   1.00
C378   C     0.31969   0.82324   0.18119   0.00000  Uiso   1.00
C379   C     0.14113   0.68911   0.13029   0.00000  Uiso   1.00
C380   C     0.19220   0.97756   0.20305   0.00000  Uiso   1.00
C381   C     0.13693   0.97978   0.12901   0.00000  Uiso   1.00
C382   C     0.19641   0.68688   0.20433   0.00000  Uiso   1.00
C383   C     0.16328   0.95744   0.16607   0.00000  Uiso   1.00
C384   C     0.17005   0.70923   0.16727   0.00000  Uiso   1.00
C385   C     0.20148   0.85688   0.02884   0.00000  Uiso   1.00
C386   C     0.13185   0.80979   0.30450   0.00000  Uiso   1.00
C387   C     0.20182   0.85697   0.31463   0.00000  Uiso   1.00
C388   C     0.13151   0.80970   0.01870   0.00000  Uiso   1.00
H389   H     0.12028   0.70676   0.10268   0.00000  Uiso   1.00
H390   H     0.21306   0.95991   0.23066   0.00000  Uiso   1.00
H391   H     0.22907   0.87584   0.05070   0.00000  Uiso   1.00
H392   H     0.10426   0.79083   0.28263   0.00000  Uiso   1.00
N393   N     0.16665   0.83332   0.28573   0.00000  Uiso   1.00
N394   N     0.16668   0.83334   0.04760   0.00000  Uiso   1.00
O395   O     0.16666   0.77225   0.20487   0.00000  Uiso   1.00
O396   O     0.16667   0.89442   0.12846   0.00000  Uiso   1.00
O397   O     0.16666   0.77226   0.12843   0.00000  Uiso   1.00
O398   O     0.16667   0.89441   0.20490   0.00000  Uiso   1.00
O399   O     0.09058   0.83333   0.19595   0.00000  Uiso   1.00
O400   O     0.24275   0.83334   0.13739   0.00000  Uiso   1.00
O401   O     0.09058   0.83334   0.11950   0.00000  Uiso   1.00
O402   O     0.24275   0.83333   0.21383   0.00000  Uiso   1.00
Zn403  Zn    0.16667   0.83333   0.21771   0.00000  Uiso   1.00
Zn404  Zn    0.16667   0.83334   0.11563   0.00000  Uiso   1.00
C405   C     0.33103   0.88523   0.12989   0.00000  Uiso   1.00
C406   C     0.00936   0.92116   0.16378   0.00000  Uiso   1.00
H407   H     0.31902   0.91803   0.19207   0.00000  Uiso   1.00
H408   H     0.05154   0.92169   0.17792   0.00000  Uiso   1.00
H409   H     0.33257   0.95113   0.14638   0.00000  Uiso   1.00
H410   H     0.01933   0.89006   0.10065   0.00000  Uiso   1.00
H411   H     0.28958   0.88725   0.11489   0.00000  Uiso   1.00
C412   C     0.00230   0.78144   0.20344   0.00000  Uiso   1.00
C413   C     0.32398   0.74550   0.16955   0.00000  Uiso   1.00
H414   H     0.28180   0.74498   0.15541   0.00000  Uiso   1.00
H415   H     0.01431   0.74864   0.14127   0.00000  Uiso   1.00
H416   H     0.00076   0.71554   0.18696   0.00000  Uiso   1.00
H417   H     0.04376   0.77941   0.21845   0.00000  Uiso   1.00
H418   H     0.31401   0.77661   0.23268   0.00000  Uiso   1.00
C419   C     0.10263   0.96043   0.08859   0.00000  Uiso   1.00
C420   C     0.13047   0.95980   0.04645   0.00000  Uiso   1.00
H421   H     0.16824   0.94287   0.05349   0.00000  Uiso   1.00
H422   H     0.10547   0.94386   0.01798   0.00000  Uiso   1.00
H423   H     0.13813   0.99201   0.03587   0.00000  Uiso   1.00
H424   H     0.09031   0.92861   0.09565   0.00000  Uiso   1.00
H425   H     0.06571   0.97856   0.08108   0.00000  Uiso   1.00
C426   C     0.23071   0.70623   0.24475   0.00000  Uiso   1.00
C427   C     0.20286   0.70687   0.28689   0.00000  Uiso   1.00
H428   H     0.22786   0.72281   0.31535   0.00000  Uiso   1.00
H429   H     0.16510   0.72380   0.27985   0.00000  Uiso   1.00
H430   H     0.19521   0.67466   0.29746   0.00000  Uiso   1.00
H431   H     0.26762   0.68811   0.25226   0.00000  Uiso   1.00
H432   H     0.24302   0.73806   0.23769   0.00000  Uiso   1.00
I433   I     0.25982   0.89509   0.29263   0.00000  Uiso   1.00
I434   I     0.07352   0.77157   0.04071   0.00000  Uiso   1.00
C435   C     0.50222   0.75344   0.16694   0.00000  Uiso   1.00
C436   C     0.49778   0.91323   0.16639   0.00000  Uiso   1.00
C437   C     0.40059   0.83375   0.15523   0.00000  Uiso   1.00
C438   C     0.59941   0.83291   0.17810   0.00000  Uiso   1.00
C439   C     0.34697   0.84343   0.15215   0.00000  Uiso   1.00
C440   C     0.65303   0.82324   0.18119   0.00000  Uiso   1.00
C441   C     0.47446   0.68911   0.13029   0.00000  Uiso   1.00
C442   C     0.52554   0.97756   0.20305   0.00000  Uiso   1.00
C443   C     0.47026   0.97978   0.12901   0.00000  Uiso   1.00
C444   C     0.52974   0.68688   0.20433   0.00000  Uiso   1.00
C445   C     0.49662   0.95744   0.16607   0.00000  Uiso   1.00
C446   C     0.50338   0.70923   0.16727   0.00000  Uiso   1.00
C447   C     0.53482   0.85688   0.02884   0.00000  Uiso   1.00
C448   C     0.46518   0.80979   0.30450   0.00000  Uiso   1.00
C449   C     0.53516   0.85697   0.31463   0.00000  Uiso   1.00
C450   C     0.46484   0.80970   0.01870   0.00000  Uiso   1.00
H451   H     0.45361   0.70676   0.10268   0.00000  Uiso   1.00
H452   H     0.54639   0.95991   0.23066   0.00000  Uiso   1.00
H453   H     0.56240   0.87584   0.05070   0.00000  Uiso   1.00
H454   H     0.43760   0.79083   0.28263   0.00000  Uiso   1.00
N455   N     0.49999   0.83332   0.28573   0.00000  Uiso   1.00
N456   N     0.50001   0.83334   0.04760   0.00000  Uiso   1.00
O457   O     0.50000   0.77225   0.20487   0.00000  Uiso   1.00
O458   O     0.50000   0.89442   0.12846   0.00000  Uiso   1.00
O459   O     0.50000   0.77226   0.12843   0.00000  Uiso   1.00
O460   O     0.50000   0.89441   0.20490   0.00000  Uiso   1.00
O461   O     0.42392   0.83333   0.19595   0.00000  Uiso   1.00
O462   O     0.57608   0.83334   0.13739   0.00000  Uiso   1.00
O463   O     0.42392   0.83334   0.11950   0.00000  Uiso   1.00
O464   O     0.57608   0.83333   0.21383   0.00000  Uiso   1.00
Zn465  Zn    0.50000   0.83333   0.21771   0.00000  Uiso   1.00
Zn466  Zn    0.50000   0.83334   0.11563   0.00000  Uiso   1.00
C467   C     0.66436   0.88523   0.12989   0.00000  Uiso   1.00
C468   C     0.34269   0.92116   0.16378   0.00000  Uiso   1.00
H469   H     0.65235   0.91803   0.19207   0.00000  Uiso   1.00
H470   H     0.38487   0.92169   0.17792   0.00000  Uiso   1.00
H471   H     0.66591   0.95113   0.14638   0.00000  Uiso   1.00
H472   H     0.35266   0.89006   0.10065   0.00000  Uiso   1.00
H473   H     0.62291   0.88725   0.11489   0.00000  Uiso   1.00
C474   C     0.33564   0.78144   0.20344   0.00000  Uiso   1.00
C475   C     0.65731   0.74550   0.16955   0.00000  Uiso   1.00
H476   H     0.61513   0.74498   0.15541   0.00000  Uiso   1.00
H477   H     0.34765   0.74864   0.14127   0.00000  Uiso   1.00
H478   H     0.33409   0.71554   0.18696   0.00000  Uiso   1.00
H479   H     0.37709   0.77941   0.21845   0.00000  Uiso   1.00
H480   H     0.64734   0.77661   0.23268   0.00000  Uiso   1.00
C481   C     0.43596   0.96043   0.08859   0.00000  Uiso   1.00
C482   C     0.46380   0.95980   0.04645   0.00000  Uiso   1.00
H483   H     0.50157   0.94287   0.05349   0.00000  Uiso   1.00
H484   H     0.43881   0.94386   0.01798   0.00000  Uiso   1.00
H485   H     0.47146   0.99201   0.03587   0.00000  Uiso   1.00
H486   H     0.42365   0.92861   0.09565   0.00000  Uiso   1.00
H487   H     0.39905   0.97856   0.08108   0.00000  Uiso   1.00
C488   C     0.56404   0.70623   0.24475   0.00000  Uiso   1.00
C489   C     0.53620   0.70687   0.28689   0.00000  Uiso   1.00
H490   H     0.56119   0.72281   0.31535   0.00000  Uiso   1.00
H491   H     0.49843   0.72380   0.27985   0.00000  Uiso   1.00
H492   H     0.52854   0.67466   0.29746   0.00000  Uiso   1.00
H493   H     0.60095   0.68811   0.25226   0.00000  Uiso   1.00
H494   H     0.57635   0.73806   0.23769   0.00000  Uiso   1.00
I495   I     0.59315   0.89509   0.29263   0.00000  Uiso   1.00
I496   I     0.40685   0.77157   0.04071   0.00000  Uiso   1.00
C497   C     0.83555   0.75344   0.16694   0.00000  Uiso   1.00
C498   C     0.83112   0.91323   0.16639   0.00000  Uiso   1.00
C499   C     0.73392   0.83375   0.15523   0.00000  Uiso   1.00
C500   C     0.93275   0.83291   0.17810   0.00000  Uiso   1.00
C501   C     0.68031   0.84343   0.15215   0.00000  Uiso   1.00
C502   C     0.98636   0.82324   0.18119   0.00000  Uiso   1.00
C503   C     0.80780   0.68911   0.13029   0.00000  Uiso   1.00
C504   C     0.85887   0.97756   0.20305   0.00000  Uiso   1.00
C505   C     0.80359   0.97978   0.12901   0.00000  Uiso   1.00
C506   C     0.86307   0.68688   0.20433   0.00000  Uiso   1.00
C507   C     0.82995   0.95744   0.16607   0.00000  Uiso   1.00
C508   C     0.83672   0.70923   0.16727   0.00000  Uiso   1.00
C509   C     0.86815   0.85688   0.02884   0.00000  Uiso   1.00
C510   C     0.79851   0.80979   0.30450   0.00000  Uiso   1.00
C511   C     0.86849   0.85697   0.31463   0.00000  Uiso   1.00
C512   C     0.79818   0.80970   0.01870   0.00000  Uiso   1.00
H513   H     0.78694   0.70676   0.10268   0.00000  Uiso   1.00
H514   H     0.87972   0.95991   0.23066   0.00000  Uiso   1.00
H515   H     0.89574   0.87584   0.05070   0.00000  Uiso   1.00
H516   H     0.77093   0.79083   0.28263   0.00000  Uiso   1.00
N517   N     0.83332   0.83332   0.28573   0.00000  Uiso   1.00
N518   N     0.83335   0.83334   0.04760   0.00000  Uiso   1.00
O519   O     0.83333   0.77225   0.20487   0.00000  Uiso   1.00
O520   O     0.83334   0.89442   0.12846   0.00000  Uiso   1.00
O521   O     0.83333   0.77226   0.12843   0.00000  Uiso   1.00
O522   O     0.83334   0.89441   0.20490   0.00000  Uiso   1.00
O523   O     0.75725   0.83333   0.19595   0.00000  Uiso   1.00
O524   O     0.90942   0.83334   0.13739   0.00000  Uiso   1.00
O525   O     0.75725   0.83334   0.11950   0.00000  Uiso   1.00
O526   O     0.90942   0.83333   0.21383   0.00000  Uiso   1.00
Zn527  Zn    0.83333   0.83333   0.21771   0.00000  Uiso   1.00
Zn528  Zn    0.83333   0.83334   0.11563   0.00000  Uiso   1.00
C529   C     0.99770   0.88523   0.12989   0.00000  Uiso   1.00
C530   C     0.67602   0.92116   0.16378   0.00000  Uiso   1.00
H531   H     0.98569   0.91803   0.19207   0.00000  Uiso   1.00
H532   H     0.71820   0.92169   0.17792   0.00000  Uiso   1.00
H533   H     0.99924   0.95113   0.14638   0.00000  Uiso   1.00
H534   H     0.68599   0.89006   0.10065   0.00000  Uiso   1.00
H535   H     0.95624   0.88725   0.11489   0.00000  Uiso   1.00
C536   C     0.66897   0.78144   0.20344   0.00000  Uiso   1.00
C537   C     0.99064   0.74550   0.16955   0.00000  Uiso   1.00
H538   H     0.94846   0.74498   0.15541   0.00000  Uiso   1.00
H539   H     0.68098   0.74864   0.14127   0.00000  Uiso   1.00
H540   H     0.66743   0.71554   0.18696   0.00000  Uiso   1.00
H541   H     0.71042   0.77941   0.21845   0.00000  Uiso   1.00
H542   H     0.98067   0.77661   0.23268   0.00000  Uiso   1.00
C543   C     0.76929   0.96043   0.08859   0.00000  Uiso   1.00
C544   C     0.79714   0.95980   0.04645   0.00000  Uiso   1.00
H545   H     0.83490   0.94287   0.05349   0.00000  Uiso   1.00
H546   H     0.77214   0.94386   0.01798   0.00000  Uiso   1.00
H547   H     0.80479   0.99201   0.03587   0.00000  Uiso   1.00
H548   H     0.75698   0.92861   0.09565   0.00000  Uiso   1.00
H549   H     0.73238   0.97856   0.08108   0.00000  Uiso   1.00
C550   C     0.89737   0.70623   0.24475   0.00000  Uiso   1.00
C551   C     0.86953   0.70687   0.28689   0.00000  Uiso   1.00
H552   H     0.89453   0.72281   0.31535   0.00000  Uiso   1.00
H553   H     0.83176   0.72380   0.27985   0.00000  Uiso   1.00
H554   H     0.86187   0.67466   0.29746   0.00000  Uiso   1.00
H555   H     0.93429   0.68811   0.25226   0.00000  Uiso   1.00
H556   H     0.90969   0.73806   0.23769   0.00000  Uiso   1.00
I557   I     0.92648   0.89509   0.29263   0.00000  Uiso   1.00
I558   I     0.74018   0.77157   0.04071   0.00000  Uiso   1.00
C559   C     0.16888   0.08677   0.50028   0.00000  Uiso   1.00
C560   C     0.16445   0.24656   0.49972   0.00000  Uiso   1.00
C561   C     0.06725   0.16709   0.48856   0.00000  Uiso   1.00
C562   C     0.26608   0.16625   0.51144   0.00000  Uiso   1.00
C563   C     0.01364   0.17676   0.48548   0.00000  Uiso   1.00
C564   C     0.31969   0.15657   0.51452   0.00000  Uiso   1.00
C565   C     0.14113   0.02244   0.46362   0.00000  Uiso   1.00
C566   C     0.19220   0.31089   0.53638   0.00000  Uiso   1.00
C567   C     0.13693   0.31312   0.46234   0.00000  Uiso   1.00
C568   C     0.19641   0.02022   0.53766   0.00000  Uiso   1.00
C569   C     0.16328   0.29077   0.49940   0.00000  Uiso   1.00
C570   C     0.17005   0.04257   0.50060   0.00000  Uiso   1.00
C571   C     0.20148   0.19021   0.36217   0.00000  Uiso   1.00
C572   C     0.13185   0.14312   0.63783   0.00000  Uiso   1.00
C573   C     0.20182   0.19030   0.64797   0.00000  Uiso   1.00
C574   C     0.13151   0.14303   0.35203   0.00000  Uiso   1.00
H575   H     0.12028   0.04009   0.43601   0.00000  Uiso   1.00
H576   H     0.21306   0.29324   0.56399   0.00000  Uiso   1.00
H577   H     0.22907   0.20917   0.38404   0.00000  Uiso   1.00
H578   H     0.10426   0.12416   0.61596   0.00000  Uiso   1.00
N579   N     0.16665   0.16666   0.61907   0.00000  Uiso   1.00
N580   N     0.16668   0.16668   0.38093   0.00000  Uiso   1.00
O581   O     0.16666   0.10558   0.53821   0.00000  Uiso   1.00
O582   O     0.16667   0.22775   0.46179   0.00000  Uiso   1.00
O583   O     0.16666   0.10559   0.46176   0.00000  Uiso   1.00
O584   O     0.16667   0.22774   0.53824   0.00000  Uiso   1.00
O585   O     0.09058   0.16666   0.52928   0.00000  Uiso   1.00
O586   O     0.24275   0.16667   0.47072   0.00000  Uiso   1.00
O587   O     0.09058   0.16667   0.45284   0.00000  Uiso   1.00
O588   O     0.24275   0.16666   0.54716   0.00000  Uiso   1.00
Zn589  Zn    0.16667   0.16666   0.55104   0.00000  Uiso   1.00
Zn590  Zn    0.16667   0.16667   0.44896   0.00000  Uiso   1.00
C591   C     0.33103   0.21856   0.46323   0.00000  Uiso   1.00
C592   C     0.00936   0.25450   0.49711   0.00000  Uiso   1.00
H593   H     0.31902   0.25136   0.52540   0.00000  Uiso   1.00
H594   H     0.05154   0.25502   0.51125   0.00000  Uiso   1.00
H595   H     0.33257   0.28447   0.47971   0.00000  Uiso   1.00
H596   H     0.01933   0.22339   0.43398   0.00000  Uiso   1.00
H597   H     0.28958   0.22059   0.44822   0.00000  Uiso   1.00
C598   C     0.00230   0.11477   0.53677   0.00000  Uiso   1.00
C599   C     0.32398   0.07884   0.50289   0.00000  Uiso   1.00
H600   H     0.28180   0.07831   0.48875   0.00000  Uiso   1.00
H601   H     0.01431   0.08197   0.47460   0.00000  Uiso   1.00
H602   H     0.00076   0.04887   0.52029   0.00000  Uiso   1.00
H603   H     0.04376   0.11275   0.55178   0.00000  Uiso   1.00
H604   H     0.31401   0.10994   0.56602   0.00000  Uiso   1.00
C605   C     0.10263   0.29377   0.42192   0.00000  Uiso   1.00
C606   C     0.13047   0.29313   0.37978   0.00000  Uiso   1.00
H607   H     0.16824   0.27620   0.38682   0.00000  Uiso   1.00
H608   H     0.10547   0.27719   0.35132   0.00000  Uiso   1.00
H609   H     0.13813   0.32534   0.36921   0.00000  Uiso   1.00
H610   H     0.09031   0.26194   0.42898   0.00000  Uiso   1.00
H611   H     0.06571   0.31189   0.41441   0.00000  Uiso   1.00
C612   C     0.23071   0.03957   0.57808   0.00000  Uiso   1.00
C613   C     0.20286   0.04020   0.62022   0.00000  Uiso   1.00
H614   H     0.22786   0.05614   0.64868   0.00000  Uiso   1.00
H615   H     0.16510   0.05713   0.61318   0.00000  Uiso   1.00
H616   H     0.19521   0.00799   0.63079   0.00000  Uiso   1.00
H617   H     0.26762   0.02144   0.58559   0.00000  Uiso   1.00
H618   H     0.24302   0.07139   0.57102   0.00000  Uiso   1.00
I619   I     0.25982   0.22843   0.62596   0.00000  Uiso   1.00
I620   I     0.07352   0.10491   0.37404   0.00000  Uiso   1.00
C621   C     0.50222   0.08677   0.50028   0.00000  Uiso   1.00
C622   C     0.49778   0.24656   0.49972   0.00000  Uiso   1.00
C623   C     0.40059   0.16709   0.48856   0.00000  Uiso   1.00
C624   C     0.59941   0.16625   0.51144   0.00000  Uiso   1.00
C625   C     0.34697   0.17676   0.48548   0.00000  Uiso   1.00
C626   C     0.65303   0.15657   0.51452   0.00000  Uiso   1.00
C627   C     0.47446   0.02244   0.46362   0.00000  Uiso   1.00
C628   C     0.52554   0.31089   0.53638   0.00000  Uiso   1.00
C629   C     0.47026   0.31312   0.46234   0.00000  Uiso   1.00
C630   C     0.52974   0.02022   0.53766   0.00000  Uiso   1.00
C631   C     0.49662   0.29077   0.49940   0.00000  Uiso   1.00
C632   C     0.50338   0.04257   0.50060   0.00000  Uiso   1.00
C633   C     0.53482   0.19021   0.36217   0.00000  Uiso   1.00
C634   C     0.46518   0.14312   0.63783   0.00000  Uiso   1.00
C635   C     0.53516   0.19030   0.64797   0.00000  Uiso   1.00
C636   C     0.46484   0.14303   0.35203   0.00000  Uiso   1.00
H637   H     0.45361   0.04009   0.43601   0.00000  Uiso   1.00
H638   H     0.54639   0.29324   0.56399   0.00000  Uiso   1.00
H639   H     0.56240   0.20917   0.38404   0.00000  Uiso   1.00
H640   H     0.43760   0.12416   0.61596   0.00000  Uiso   1.00
N641   N     0.49999   0.16666   0.61907   0.00000  Uiso   1.00
N642   N     0.50001   0.16668   0.38093   0.00000  Uiso   1.00
O643   O     0.50000   0.10558   0.53821   0.00000  Uiso   1.00
O644   O     0.50000   0.22775   0.46179   0.00000  Uiso   1.00
O645   O     0.50000   0.10559   0.46176   0.00000  Uiso   1.00
O646   O     0.50000   0.22774   0.53824   0.00000  Uiso   1.00
O647   O     0.42392   0.16666   0.52928   0.00000  Uiso   1.00
O648   O     0.57608   0.16667   0.47072   0.00000  Uiso   1.00
O649   O     0.42392   0.16667   0.45284   0.00000  Uiso   1.00
O650   O     0.57608   0.16666   0.54716   0.00000  Uiso   1.00
Zn651  Zn    0.50000   0.16666   0.55104   0.00000  Uiso   1.00
Zn652  Zn    0.50000   0.16667   0.44896   0.00000  Uiso   1.00
C653   C     0.66436   0.21856   0.46323   0.00000  Uiso   1.00
C654   C     0.34269   0.25450   0.49711   0.00000  Uiso   1.00
H655   H     0.65235   0.25136   0.52540   0.00000  Uiso   1.00
H656   H     0.38487   0.25502   0.51125   0.00000  Uiso   1.00
H657   H     0.66591   0.28447   0.47971   0.00000  Uiso   1.00
H658   H     0.35266   0.22339   0.43398   0.00000  Uiso   1.00
H659   H     0.62291   0.22059   0.44822   0.00000  Uiso   1.00
C660   C     0.33564   0.11477   0.53677   0.00000  Uiso   1.00
C661   C     0.65731   0.07884   0.50289   0.00000  Uiso   1.00
H662   H     0.61513   0.07831   0.48875   0.00000  Uiso   1.00
H663   H     0.34765   0.08197   0.47460   0.00000  Uiso   1.00
H664   H     0.33409   0.04887   0.52029   0.00000  Uiso   1.00
H665   H     0.37709   0.11275   0.55178   0.00000  Uiso   1.00
H666   H     0.64734   0.10994   0.56602   0.00000  Uiso   1.00
C667   C     0.43596   0.29377   0.42192   0.00000  Uiso   1.00
C668   C     0.46380   0.29313   0.37978   0.00000  Uiso   1.00
H669   H     0.50157   0.27620   0.38682   0.00000  Uiso   1.00
H670   H     0.43881   0.27719   0.35132   0.00000  Uiso   1.00
H671   H     0.47146   0.32534   0.36921   0.00000  Uiso   1.00
H672   H     0.42365   0.26194   0.42898   0.00000  Uiso   1.00
H673   H     0.39905   0.31189   0.41441   0.00000  Uiso   1.00
C674   C     0.56404   0.03957   0.57808   0.00000  Uiso   1.00
C675   C     0.53620   0.04020   0.62022   0.00000  Uiso   1.00
H676   H     0.56119   0.05614   0.64868   0.00000  Uiso   1.00
H677   H     0.49843   0.05713   0.61318   0.00000  Uiso   1.00
H678   H     0.52854   0.00799   0.63079   0.00000  Uiso   1.00
H679   H     0.60095   0.02144   0.58559   0.00000  Uiso   1.00
H680   H     0.57635   0.07139   0.57102   0.00000  Uiso   1.00
I681   I     0.59315   0.22843   0.62596   0.00000  Uiso   1.00
I682   I     0.40685   0.10491   0.37404   0.00000  Uiso   1.00
C683   C     0.83555   0.08677   0.50028   0.00000  Uiso   1.00
C684   C     0.83112   0.24656   0.49972   0.00000  Uiso   1.00
C685   C     0.73392   0.16709   0.48856   0.00000  Uiso   1.00
C686   C     0.93275   0.16625   0.51144   0.00000  Uiso   1.00
C687   C     0.68031   0.17676   0.48548   0.00000  Uiso   1.00
C688   C     0.98636   0.15657   0.51452   0.00000  Uiso   1.00
C689   C     0.80780   0.02244   0.46362   0.00000  Uiso   1.00
C690   C     0.85887   0.31089   0.53638   0.00000  Uiso   1.00
C691   C     0.80359   0.31312   0.46234   0.00000  Uiso   1.00
C692   C     0.86307   0.02022   0.53766   0.00000  Uiso   1.00
C693   C     0.82995   0.29077   0.49940   0.00000  Uiso   1.00
C694   C     0.83672   0.04257   0.50060   0.00000  Uiso   1.00
C695   C     0.86815   0.19021   0.36217   0.00000  Uiso   1.00
C696   C     0.79851   0.14312   0.63783   0.00000  Uiso   1.00
C697   C     0.86849   0.19030   0.64797   0.00000  Uiso   1.00
C698   C     0.79818   0.14303   0.35203   0.00000  Uiso   1.00
H699   H     0.78694   0.04009   0.43601   0.00000  Uiso   1.00
H700   H     0.87972   0.29324   0.56399   0.00000  Uiso   1.00
H701   H     0.89574   0.20917   0.38404   0.00000  Uiso   1.00
H702   H     0.77093   0.12416   0.61596   0.00000  Uiso   1.00
N703   N     0.83332   0.16666   0.61907   0.00000  Uiso   1.00
N704   N     0.83335   0.16668   0.38093   0.00000  Uiso   1.00
O705   O     0.83333   0.10558   0.53821   0.00000  Uiso   1.00
O706   O     0.83334   0.22775   0.46179   0.00000  Uiso   1.00
O707   O     0.83333   0.10559   0.46176   0.00000  Uiso   1.00
O708   O     0.83334   0.22774   0.53824   0.00000  Uiso   1.00
O709   O     0.75725   0.16666   0.52928   0.00000  Uiso   1.00
O710   O     0.90942   0.16667   0.47072   0.00000  Uiso   1.00
O711   O     0.75725   0.16667   0.45284   0.00000  Uiso   1.00
O712   O     0.90942   0.16666   0.54716   0.00000  Uiso   1.00
Zn713  Zn    0.83333   0.16666   0.55104   0.00000  Uiso   1.00
Zn714  Zn    0.83333   0.16667   0.44896   0.00000  Uiso   1.00
C715   C     0.99770   0.21856   0.46323   0.00000  Uiso   1.00
C716   C     0.67602   0.25450   0.49711   0.00000  Uiso   1.00
H717   H     0.98569   0.25136   0.52540   0.00000  Uiso   1.00
H718   H     0.71820   0.25502   0.51125   0.00000  Uiso   1.00
H719   H     0.99924   0.28447   0.47971   0.00000  Uiso   1.00
H720   H     0.68599   0.22339   0.43398   0.00000  Uiso   1.00
H721   H     0.95624   0.22059   0.44822   0.00000  Uiso   1.00
C722   C     0.66897   0.11477   0.53677   0.00000  Uiso   1.00
C723   C     0.99064   0.07884   0.50289   0.00000  Uiso   1.00
H724   H     0.94846   0.07831   0.48875   0.00000  Uiso   1.00
H725   H     0.68098   0.08197   0.47460   0.00000  Uiso   1.00
H726   H     0.66743   0.04887   0.52029   0.00000  Uiso   1.00
H727   H     0.71042   0.11275   0.55178   0.00000  Uiso   1.00
H728   H     0.98067   0.10994   0.56602   0.00000  Uiso   1.00
C729   C     0.76929   0.29377   0.42192   0.00000  Uiso   1.00
C730   C     0.79714   0.29313   0.37978   0.00000  Uiso   1.00
H731   H     0.83490   0.27620   0.38682   0.00000  Uiso   1.00
H732   H     0.77214   0.27719   0.35132   0.00000  Uiso   1.00
H733   H     0.80479   0.32534   0.36921   0.00000  Uiso   1.00
H734   H     0.75698   0.26194   0.42898   0.00000  Uiso   1.00
H735   H     0.73238   0.31189   0.41441   0.00000  Uiso   1.00
C736   C     0.89737   0.03957   0.57808   0.00000  Uiso   1.00
C737   C     0.86953   0.04020   0.62022   0.00000  Uiso   1.00
H738   H     0.89453   0.05614   0.64868   0.00000  Uiso   1.00
H739   H     0.83176   0.05713   0.61318   0.00000  Uiso   1.00
H740   H     0.86187   0.00799   0.63079   0.00000  Uiso   1.00
H741   H     0.93429   0.02144   0.58559   0.00000  Uiso   1.00
H742   H     0.90969   0.07139   0.57102   0.00000  Uiso   1.00
I743   I     0.92648   0.22843   0.62596   0.00000  Uiso   1.00
I744   I     0.74018   0.10491   0.37404   0.00000  Uiso   1.00
C745   C     0.16888   0.42011   0.50028   0.00000  Uiso   1.00
C746   C     0.16445   0.57989   0.49972   0.00000  Uiso   1.00
C747   C     0.06725   0.50042   0.48856   0.00000  Uiso   1.00
C748   C     0.26608   0.49958   0.51144   0.00000  Uiso   1.00
C749   C     0.01364   0.51009   0.48548   0.00000  Uiso   1.00
C750   C     0.31969   0.48991   0.51452   0.00000  Uiso   1.00
C751   C     0.14113   0.35577   0.46362   0.00000  Uiso   1.00
C752   C     0.19220   0.64423   0.53638   0.00000  Uiso   1.00
C753   C     0.13693   0.64645   0.46234   0.00000  Uiso   1.00
C754   C     0.19641   0.35355   0.53766   0.00000  Uiso   1.00
C755   C     0.16328   0.62410   0.49940   0.00000  Uiso   1.00
C756   C     0.17005   0.37590   0.50060   0.00000  Uiso   1.00
C757   C     0.20148   0.52355   0.36217   0.00000  Uiso   1.00
C758   C     0.13185   0.47645   0.63783   0.00000  Uiso   1.00
C759   C     0.20182   0.52363   0.64797   0.00000  Uiso   1.00
C760   C     0.13151   0.47637   0.35203   0.00000  Uiso   1.00
H761   H     0.12028   0.37342   0.43601   0.00000  Uiso   1.00
H762   H     0.21306   0.62658   0.56399   0.00000  Uiso   1.00
H763   H     0.22907   0.54251   0.38404   0.00000  Uiso   1.00
H764   H     0.10426   0.45749   0.61596   0.00000  Uiso   1.00
N765   N     0.16665   0.49999   0.61907   0.00000  Uiso   1.00
N766   N     0.16668   0.50001   0.38093   0.00000  Uiso   1.00
O767   O     0.16666   0.43892   0.53821   0.00000  Uiso   1.00
O768   O     0.16667   0.56108   0.46179   0.00000  Uiso   1.00
O769   O     0.16666   0.43893   0.46176   0.00000  Uiso   1.00
O770   O     0.16667   0.56107   0.53824   0.00000  Uiso   1.00
O771   O     0.09058   0.50000   0.52928   0.00000  Uiso   1.00
O772   O     0.24275   0.50000   0.47072   0.00000  Uiso   1.00
O773   O     0.09058   0.50000   0.45284   0.00000  Uiso   1.00
O774   O     0.24275   0.50000   0.54716   0.00000  Uiso   1.00
Zn775  Zn    0.16667   0.49999   0.55104   0.00000  Uiso   1.00
Zn776  Zn    0.16667   0.50001   0.44896   0.00000  Uiso   1.00
C777   C     0.33103   0.55189   0.46323   0.00000  Uiso   1.00
C778   C     0.00936   0.58783   0.49711   0.00000  Uiso   1.00
H779   H     0.31902   0.58469   0.52540   0.00000  Uiso   1.00
H780   H     0.05154   0.58835   0.51125   0.00000  Uiso   1.00
H781   H     0.33257   0.61780   0.47971   0.00000  Uiso   1.00
H782   H     0.01933   0.55673   0.43398   0.00000  Uiso   1.00
H783   H     0.28958   0.55392   0.44822   0.00000  Uiso   1.00
C784   C     0.00230   0.44811   0.53677   0.00000  Uiso   1.00
C785   C     0.32398   0.41217   0.50289   0.00000  Uiso   1.00
H786   H     0.28180   0.41165   0.48875   0.00000  Uiso   1.00
H787   H     0.01431   0.41531   0.47460   0.00000  Uiso   1.00
H788   H     0.00076   0.38220   0.52029   0.00000  Uiso   1.00
H789   H     0.04376   0.44608   0.55178   0.00000  Uiso   1.00
H790   H     0.31401   0.44327   0.56602   0.00000  Uiso   1.00
C791   C     0.10263   0.62710   0.42192   0.00000  Uiso   1.00
C792   C     0.13047   0.62646   0.37978   0.00000  Uiso   1.00
H793   H     0.16824   0.60953   0.38682   0.00000  Uiso   1.00
H794   H     0.10547   0.61053   0.35132   0.00000  Uiso   1.00
H795   H     0.13813   0.65868   0.36921   0.00000  Uiso   1.00
H796   H     0.09031   0.59528   0.42898   0.00000  Uiso   1.00
H797   H     0.06571   0.64523   0.41441   0.00000  Uiso   1.00
C798   C     0.23071   0.37290   0.57808   0.00000  Uiso   1.00
C799   C     0.20286   0.37354   0.62022   0.00000  Uiso   1.00
H800   H     0.22786   0.38947   0.64868   0.00000  Uiso   1.00
H801   H     0.16510   0.39047   0.61318   0.00000  Uiso   1.00
H802   H     0.19521   0.34132   0.63079   0.00000  Uiso   1.00
H803   H     0.26762   0.35477   0.58559   0.00000  Uiso   1.00
H804   H     0.24302   0.40472   0.57102   0.00000  Uiso   1.00
I805   I     0.25982   0.56176   0.62596   0.00000  Uiso   1.00
I806   I     0.07352   0.43824   0.37404   0.00000  Uiso   1.00
C807   C     0.50222   0.42011   0.50028   0.00000  Uiso   1.00
C808   C     0.49778   0.57989   0.49972   0.00000  Uiso   1.00
C809   C     0.40059   0.50042   0.48856   0.00000  Uiso   1.00
C810   C     0.59941   0.49958   0.51144   0.00000  Uiso   1.00
C811   C     0.34697   0.51009   0.48548   0.00000  Uiso   1.00
C812   C     0.65303   0.48991   0.51452   0.00000  Uiso   1.00
C813   C     0.47446   0.35577   0.46362   0.00000  Uiso   1.00
C814   C     0.52554   0.64423   0.53638   0.00000  Uiso   1.00
C815   C     0.47026   0.64645   0.46234   0.00000  Uiso   1.00
C816   C     0.52974   0.35355   0.53766   0.00000  Uiso   1.00
C817   C     0.49662   0.62410   0.49940   0.00000  Uiso   1.00
C818   C     0.50338   0.37590   0.50060   0.00000  Uiso   1.00
C819   C     0.53482   0.52355   0.36217   0.00000  Uiso   1.00
C820   C     0.46518   0.47645   0.63783   0.00000  Uiso   1.00
C821   C     0.53516   0.52363   0.64797   0.00000  Uiso   1.00
C822   C     0.46484   0.47637   0.35203   0.00000  Uiso   1.00
H823   H     0.45361   0.37342   0.43601   0.00000  Uiso   1.00
H824   H     0.54639   0.62658   0.56399   0.00000  Uiso   1.00
H825   H     0.56240   0.54251   0.38404   0.00000  Uiso   1.00
H826   H     0.43760   0.45749   0.61596   0.00000  Uiso   1.00
N827   N     0.49999   0.49999   0.61907   0.00000  Uiso   1.00
N828   N     0.50001   0.50001   0.38093   0.00000  Uiso   1.00
O829   O     0.50000   0.43892   0.53821   0.00000  Uiso   1.00
O830   O     0.50000   0.56108   0.46179   0.00000  Uiso   1.00
O831   O     0.50000   0.43893   0.46176   0.00000  Uiso   1.00
O832   O     0.50000   0.56107   0.53824   0.00000  Uiso   1.00
O833   O     0.42392   0.50000   0.52928   0.00000  Uiso   1.00
O834   O     0.57608   0.50000   0.47072   0.00000  Uiso   1.00
O835   O     0.42392   0.50000   0.45284   0.00000  Uiso   1.00
O836   O     0.57608   0.50000   0.54716   0.00000  Uiso   1.00
Zn837  Zn    0.50000   0.49999   0.55104   0.00000  Uiso   1.00
Zn838  Zn    0.50000   0.50001   0.44896   0.00000  Uiso   1.00
C839   C     0.66436   0.55189   0.46323   0.00000  Uiso   1.00
C840   C     0.34269   0.58783   0.49711   0.00000  Uiso   1.00
H841   H     0.65235   0.58469   0.52540   0.00000  Uiso   1.00
H842   H     0.38487   0.58835   0.51125   0.00000  Uiso   1.00
H843   H     0.66591   0.61780   0.47971   0.00000  Uiso   1.00
H844   H     0.35266   0.55673   0.43398   0.00000  Uiso   1.00
H845   H     0.62291   0.55392   0.44822   0.00000  Uiso   1.00
C846   C     0.33564   0.44811   0.53677   0.00000  Uiso   1.00
C847   C     0.65731   0.41217   0.50289   0.00000  Uiso   1.00
H848   H     0.61513   0.41165   0.48875   0.00000  Uiso   1.00
H849   H     0.34765   0.41531   0.47460   0.00000  Uiso   1.00
H850   H     0.33409   0.38220   0.52029   0.00000  Uiso   1.00
H851   H     0.37709   0.44608   0.55178   0.00000  Uiso   1.00
H852   H     0.64734   0.44327   0.56602   0.00000  Uiso   1.00
C853   C     0.43596   0.62710   0.42192   0.00000  Uiso   1.00
C854   C     0.46380   0.62646   0.37978   0.00000  Uiso   1.00
H855   H     0.50157   0.60953   0.38682   0.00000  Uiso   1.00
H856   H     0.43881   0.61053   0.35132   0.00000  Uiso   1.00
H857   H     0.47146   0.65868   0.36921   0.00000  Uiso   1.00
H858   H     0.42365   0.59528   0.42898   0.00000  Uiso   1.00
H859   H     0.39905   0.64523   0.41441   0.00000  Uiso   1.00
C860   C     0.56404   0.37290   0.57808   0.00000  Uiso   1.00
C861   C     0.53620   0.37354   0.62022   0.00000  Uiso   1.00
H862   H     0.56119   0.38947   0.64868   0.00000  Uiso   1.00
H863   H     0.49843   0.39047   0.61318   0.00000  Uiso   1.00
H864   H     0.52854   0.34132   0.63079   0.00000  Uiso   1.00
H865   H     0.60095   0.35477   0.58559   0.00000  Uiso   1.00
H866   H     0.57635   0.40472   0.57102   0.00000  Uiso   1.00
I867   I     0.59315   0.56176   0.62596   0.00000  Uiso   1.00
I868   I     0.40685   0.43824   0.37404   0.00000  Uiso   1.00
C869   C     0.83555   0.42011   0.50028   0.00000  Uiso   1.00
C870   C     0.83112   0.57989   0.49972   0.00000  Uiso   1.00
C871   C     0.73392   0.50042   0.48856   0.00000  Uiso   1.00
C872   C     0.93275   0.49958   0.51144   0.00000  Uiso   1.00
C873   C     0.68031   0.51009   0.48548   0.00000  Uiso   1.00
C874   C     0.98636   0.48991   0.51452   0.00000  Uiso   1.00
C875   C     0.80780   0.35577   0.46362   0.00000  Uiso   1.00
C876   C     0.85887   0.64423   0.53638   0.00000  Uiso   1.00
C877   C     0.80359   0.64645   0.46234   0.00000  Uiso   1.00
C878   C     0.86307   0.35355   0.53766   0.00000  Uiso   1.00
C879   C     0.82995   0.62410   0.49940   0.00000  Uiso   1.00
C880   C     0.83672   0.37590   0.50060   0.00000  Uiso   1.00
C881   C     0.86815   0.52355   0.36217   0.00000  Uiso   1.00
C882   C     0.79851   0.47645   0.63783   0.00000  Uiso   1.00
C883   C     0.86849   0.52363   0.64797   0.00000  Uiso   1.00
C884   C     0.79818   0.47637   0.35203   0.00000  Uiso   1.00
H885   H     0.78694   0.37342   0.43601   0.00000  Uiso   1.00
H886   H     0.87972   0.62658   0.56399   0.00000  Uiso   1.00
H887   H     0.89574   0.54251   0.38404   0.00000  Uiso   1.00
H888   H     0.77093   0.45749   0.61596   0.00000  Uiso   1.00
N889   N     0.83332   0.49999   0.61907   0.00000  Uiso   1.00
N890   N     0.83335   0.50001   0.38093   0.00000  Uiso   1.00
O891   O     0.83333   0.43892   0.53821   0.00000  Uiso   1.00
O892   O     0.83334   0.56108   0.46179   0.00000  Uiso   1.00
O893   O     0.83333   0.43893   0.46176   0.00000  Uiso   1.00
O894   O     0.83334   0.56107   0.53824   0.00000  Uiso   1.00
O895   O     0.75725   0.50000   0.52928   0.00000  Uiso   1.00
O896   O     0.90942   0.50000   0.47072   0.00000  Uiso   1.00
O897   O     0.75725   0.50000   0.45284   0.00000  Uiso   1.00
O898   O     0.90942   0.50000   0.54716   0.00000  Uiso   1.00
Zn899  Zn    0.83333   0.49999   0.55104   0.00000  Uiso   1.00
Zn900  Zn    0.83333   0.50001   0.44896   0.00000  Uiso   1.00
C901   C     0.99770   0.55189   0.46323   0.00000  Uiso   1.00
C902   C     0.67602   0.58783   0.49711   0.00000  Uiso   1.00
H903   H     0.98569   0.58469   0.52540   0.00000  Uiso   1.00
H904   H     0.71820   0.58835   0.51125   0.00000  Uiso   1.00
H905   H     0.99924   0.61780   0.47971   0.00000  Uiso   1.00
H906   H     0.68599   0.55673   0.43398   0.00000  Uiso   1.00
H907   H     0.95624   0.55392   0.44822   0.00000  Uiso   1.00
C908   C     0.66897   0.44811   0.53677   0.00000  Uiso   1.00
C909   C     0.99064   0.41217   0.50289   0.00000  Uiso   1.00
H910   H     0.94846   0.41165   0.48875   0.00000  Uiso   1.00
H911   H     0.68098   0.41531   0.47460   0.00000  Uiso   1.00
H912   H     0.66743   0.38220   0.52029   0.00000  Uiso   1.00
H913   H     0.71042   0.44608   0.55178   0.00000  Uiso   1.00
H914   H     0.98067   0.44327   0.56602   0.00000  Uiso   1.00
C915   C     0.76929   0.62710   0.42192   0.00000  Uiso   1.00
C916   C     0.79714   0.62646   0.37978   0.00000  Uiso   1.00
H917   H     0.83490   0.60953   0.38682   0.00000  Uiso   1.00
H918   H     0.77214   0.61053   0.35132   0.00000  Uiso   1.00
H919   H     0.80479   0.65868   0.36921   0.00000  Uiso   1.00
H920   H     0.75698   0.59528   0.42898   0.00000  Uiso   1.00
H921   H     0.73238   0.64523   0.41441   0.00000  Uiso   1.00
C922   C     0.89737   0.37290   0.57808   0.00000  Uiso   1.00
C923   C     0.86953   0.37354   0.62022   0.00000  Uiso   1.00
H924   H     0.89453   0.38947   0.64868   0.00000  Uiso   1.00
H925   H     0.83176   0.39047   0.61318   0.00000  Uiso   1.00
H926   H     0.86187   0.34132   0.63079   0.00000  Uiso   1.00
H927   H     0.93429   0.35477   0.58559   0.00000  Uiso   1.00
H928   H     0.90969   0.40472   0.57102   0.00000  Uiso   1.00
I929   I     0.92648   0.56176   0.62596   0.00000  Uiso   1.00
I930   I     0.74018   0.43824   0.37404   0.00000  Uiso   1.00
C931   C     0.16888   0.75344   0.50028   0.00000  Uiso   1.00
C932   C     0.16445   0.91323   0.49972   0.00000  Uiso   1.00
C933   C     0.06725   0.83375   0.48856   0.00000  Uiso   1.00
C934   C     0.26608   0.83291   0.51144   0.00000  Uiso   1.00
C935   C     0.01364   0.84343   0.48548   0.00000  Uiso   1.00
C936   C     0.31969   0.82324   0.51452   0.00000  Uiso   1.00
C937   C     0.14113   0.68911   0.46362   0.00000  Uiso   1.00
C938   C     0.19220   0.97756   0.53638   0.00000  Uiso   1.00
C939   C     0.13693   0.97978   0.46234   0.00000  Uiso   1.00
C940   C     0.19641   0.68688   0.53766   0.00000  Uiso   1.00
C941   C     0.16328   0.95744   0.49940   0.00000  Uiso   1.00
C942   C     0.17005   0.70923   0.50060   0.00000  Uiso   1.00
C943   C     0.20148   0.85688   0.36217   0.00000  Uiso   1.00
C944   C     0.13185   0.80979   0.63783   0.00000  Uiso   1.00
C945   C     0.20182   0.85697   0.64797   0.00000  Uiso   1.00
C946   C     0.13151   0.80970   0.35203   0.00000  Uiso   1.00
H947   H     0.12028   0.70676   0.43601   0.00000  Uiso   1.00
H948   H     0.21306   0.95991   0.56399   0.00000  Uiso   1.00
H949   H     0.22907   0.87584   0.38404   0.00000  Uiso   1.00
H950   H     0.10426   0.79083   0.61596   0.00000  Uiso   1.00
N951   N     0.16665   0.83332   0.61907   0.00000  Uiso   1.00
N952   N     0.16668   0.83334   0.38093   0.00000  Uiso   1.00
O953   O     0.16666   0.77225   0.53821   0.00000  Uiso   1.00
O954   O     0.16667   0.89442   0.46179   0.00000  Uiso   1.00
O955   O     0.16666   0.77226   0.46176   0.00000  Uiso   1.00
O956   O     0.16667   0.89441   0.53824   0.00000  Uiso   1.00
O957   O     0.09058   0.83333   0.52928   0.00000  Uiso   1.00
O958   O     0.24275   0.83334   0.47072   0.00000  Uiso   1.00
O959   O     0.09058   0.83334   0.45284   0.00000  Uiso   1.00
O960   O     0.24275   0.83333   0.54716   0.00000  Uiso   1.00
Zn961  Zn    0.16667   0.83333   0.55104   0.00000  Uiso   1.00
Zn962  Zn    0.16667   0.83334   0.44896   0.00000  Uiso   1.00
C963   C     0.33103   0.88523   0.46323   0.00000  Uiso   1.00
C964   C     0.00936   0.92116   0.49711   0.00000  Uiso   1.00
H965   H     0.31902   0.91803   0.52540   0.00000  Uiso   1.00
H966   H     0.05154   0.92169   0.51125   0.00000  Uiso   1.00
H967   H     0.33257   0.95113   0.47971   0.00000  Uiso   1.00
H968   H     0.01933   0.89006   0.43398   0.00000  Uiso   1.00
H969   H     0.28958   0.88725   0.44822   0.00000  Uiso   1.00
C970   C     0.00230   0.78144   0.53677   0.00000  Uiso   1.00
C971   C     0.32398   0.74550   0.50289   0.00000  Uiso   1.00
H972   H     0.28180   0.74498   0.48875   0.00000  Uiso   1.00
H973   H     0.01431   0.74864   0.47460   0.00000  Uiso   1.00
H974   H     0.00076   0.71554   0.52029   0.00000  Uiso   1.00
H975   H     0.04376   0.77941   0.55178   0.00000  Uiso   1.00
H976   H     0.31401   0.77661   0.56602   0.00000  Uiso   1.00
C977   C     0.10263   0.96043   0.42192   0.00000  Uiso   1.00
C978   C     0.13047   0.95980   0.37978   0.00000  Uiso   1.00
H979   H     0.16824   0.94287   0.38682   0.00000  Uiso   1.00
H980   H     0.10547   0.94386   0.35132   0.00000  Uiso   1.00
H981   H     0.13813   0.99201   0.36921   0.00000  Uiso   1.00
H982   H     0.09031   0.92861   0.42898   0.00000  Uiso   1.00
H983   H     0.06571   0.97856   0.41441   0.00000  Uiso   1.00
C984   C     0.23071   0.70623   0.57808   0.00000  Uiso   1.00
C985   C     0.20286   0.70687   0.62022   0.00000  Uiso   1.00
H986   H     0.22786   0.72281   0.64868   0.00000  Uiso   1.00
H987   H     0.16510   0.72380   0.61318   0.00000  Uiso   1.00
H988   H     0.19521   0.67466   0.63079   0.00000  Uiso   1.00
H989   H     0.26762   0.68811   0.58559   0.00000  Uiso   1.00
H990   H     0.24302   0.73806   0.57102   0.00000  Uiso   1.00
I991   I     0.25982   0.89509   0.62596   0.00000  Uiso   1.00
I992   I     0.07352   0.77157   0.37404   0.00000  Uiso   1.00
C993   C     0.50222   0.75344   0.50028   0.00000  Uiso   1.00
C994   C     0.49778   0.91323   0.49972   0.00000  Uiso   1.00
C995   C     0.40059   0.83375   0.48856   0.00000  Uiso   1.00
C996   C     0.59941   0.83291   0.51144   0.00000  Uiso   1.00
C997   C     0.34697   0.84343   0.48548   0.00000  Uiso   1.00
C998   C     0.65303   0.82324   0.51452   0.00000  Uiso   1.00
C999   C     0.47446   0.68911   0.46362   0.00000  Uiso   1.00
C1000  C     0.52554   0.97756   0.53638   0.00000  Uiso   1.00
C1001  C     0.47026   0.97978   0.46234   0.00000  Uiso   1.00
C1002  C     0.52974   0.68688   0.53766   0.00000  Uiso   1.00
C1003  C     0.49662   0.95744   0.49940   0.00000  Uiso   1.00
C1004  C     0.50338   0.70923   0.50060   0.00000  Uiso   1.00
C1005  C     0.53482   0.85688   0.36217   0.00000  Uiso   1.00
C1006  C     0.46518   0.80979   0.63783   0.00000  Uiso   1.00
C1007  C     0.53516   0.85697   0.64797   0.00000  Uiso   1.00
C1008  C     0.46484   0.80970   0.35203   0.00000  Uiso   1.00
H1009  H     0.45361   0.70676   0.43601   0.00000  Uiso   1.00
H1010  H     0.54639   0.95991   0.56399   0.00000  Uiso   1.00
H1011  H     0.56240   0.87584   0.38404   0.00000  Uiso   1.00
H1012  H     0.43760   0.79083   0.61596   0.00000  Uiso   1.00
N1013  N     0.49999   0.83332   0.61907   0.00000  Uiso   1.00
N1014  N     0.50001   0.83334   0.38093   0.00000  Uiso   1.00
O1015  O     0.50000   0.77225   0.53821   0.00000  Uiso   1.00
O1016  O     0.50000   0.89442   0.46179   0.00000  Uiso   1.00
O1017  O     0.50000   0.77226   0.46176   0.00000  Uiso   1.00
O1018  O     0.50000   0.89441   0.53824   0.00000  Uiso   1.00
O1019  O     0.42392   0.83333   0.52928   0.00000  Uiso   1.00
O1020  O     0.57608   0.83334   0.47072   0.00000  Uiso   1.00
O1021  O     0.42392   0.83334   0.45284   0.00000  Uiso   1.00
O1022  O     0.57608   0.83333   0.54716   0.00000  Uiso   1.00
Zn1023 Zn    0.50000   0.83333   0.55104   0.00000  Uiso   1.00
Zn1024 Zn    0.50000   0.83334   0.44896   0.00000  Uiso   1.00
C1025  C     0.66436   0.88523   0.46323   0.00000  Uiso   1.00
C1026  C     0.34269   0.92116   0.49711   0.00000  Uiso   1.00
H1027  H     0.65235   0.91803   0.52540   0.00000  Uiso   1.00
H1028  H     0.38487   0.92169   0.51125   0.00000  Uiso   1.00
H1029  H     0.66591   0.95113   0.47971   0.00000  Uiso   1.00
H1030  H     0.35266   0.89006   0.43398   0.00000  Uiso   1.00
H1031  H     0.62291   0.88725   0.44822   0.00000  Uiso   1.00
C1032  C     0.33564   0.78144   0.53677   0.00000  Uiso   1.00
C1033  C     0.65731   0.74550   0.50289   0.00000  Uiso   1.00
H1034  H     0.61513   0.74498   0.48875   0.00000  Uiso   1.00
H1035  H     0.34765   0.74864   0.47460   0.00000  Uiso   1.00
H1036  H     0.33409   0.71554   0.52029   0.00000  Uiso   1.00
H1037  H     0.37709   0.77941   0.55178   0.00000  Uiso   1.00
H1038  H     0.64734   0.77661   0.56602   0.00000  Uiso   1.00
C1039  C     0.43596   0.96043   0.42192   0.00000  Uiso   1.00
C1040  C     0.46380   0.95980   0.37978   0.00000  Uiso   1.00
H1041  H     0.50157   0.94287   0.38682   0.00000  Uiso   1.00
H1042  H     0.43881   0.94386   0.35132   0.00000  Uiso   1.00
H1043  H     0.47146   0.99201   0.36921   0.00000  Uiso   1.00
H1044  H     0.42365   0.92861   0.42898   0.00000  Uiso   1.00
H1045  H     0.39905   0.97856   0.41441   0.00000  Uiso   1.00
C1046  C     0.56404   0.70623   0.57808   0.00000  Uiso   1.00
C1047  C     0.53620   0.70687   0.62022   0.00000  Uiso   1.00
H1048  H     0.56119   0.72281   0.64868   0.00000  Uiso   1.00
H1049  H     0.49843   0.72380   0.61318   0.00000  Uiso   1.00
H1050  H     0.52854   0.67466   0.63079   0.00000  Uiso   1.00
H1051  H     0.60095   0.68811   0.58559   0.00000  Uiso   1.00
H1052  H     0.57635   0.73806   0.57102   0.00000  Uiso   1.00
I1053  I     0.59315   0.89509   0.62596   0.00000  Uiso   1.00
I1054  I     0.40685   0.77157   0.37404   0.00000  Uiso   1.00
C1055  C     0.83555   0.75344   0.50028   0.00000  Uiso   1.00
C1056  C     0.83112   0.91323   0.49972   0.00000  Uiso   1.00
C1057  C     0.73392   0.83375   0.48856   0.00000  Uiso   1.00
C1058  C     0.93275   0.83291   0.51144   0.00000  Uiso   1.00
C1059  C     0.68031   0.84343   0.48548   0.00000  Uiso   1.00
C1060  C     0.98636   0.82324   0.51452   0.00000  Uiso   1.00
C1061  C     0.80780   0.68911   0.46362   0.00000  Uiso   1.00
C1062  C     0.85887   0.97756   0.53638   0.00000  Uiso   1.00
C1063  C     0.80359   0.97978   0.46234   0.00000  Uiso   1.00
C1064  C     0.86307   0.68688   0.53766   0.00000  Uiso   1.00
C1065  C     0.82995   0.95744   0.49940   0.00000  Uiso   1.00
C1066  C     0.83672   0.70923   0.50060   0.00000  Uiso   1.00
C1067  C     0.86815   0.85688   0.36217   0.00000  Uiso   1.00
C1068  C     0.79851   0.80979   0.63783   0.00000  Uiso   1.00
C1069  C     0.86849   0.85697   0.64797   0.00000  Uiso   1.00
C1070  C     0.79818   0.80970   0.35203   0.00000  Uiso   1.00
H1071  H     0.78694   0.70676   0.43601   0.00000  Uiso   1.00
H1072  H     0.87972   0.95991   0.56399   0.00000  Uiso   1.00
H1073  H     0.89574   0.87584   0.38404   0.00000  Uiso   1.00
H1074  H     0.77093   0.79083   0.61596   0.00000  Uiso   1.00
N1075  N     0.83332   0.83332   0.61907   0.00000  Uiso   1.00
N1076  N     0.83335   0.83334   0.38093   0.00000  Uiso   1.00
O1077  O     0.83333   0.77225   0.53821   0.00000  Uiso   1.00
O1078  O     0.83334   0.89442   0.46179   0.00000  Uiso   1.00
O1079  O     0.83333   0.77226   0.46176   0.00000  Uiso   1.00
O1080  O     0.83334   0.89441   0.53824   0.00000  Uiso   1.00
O1081  O     0.75725   0.83333   0.52928   0.00000  Uiso   1.00
O1082  O     0.90942   0.83334   0.47072   0.00000  Uiso   1.00
O1083  O     0.75725   0.83334   0.45284   0.00000  Uiso   1.00
O1084  O     0.90942   0.83333   0.54716   0.00000  Uiso   1.00
Zn1085 Zn    0.83333   0.83333   0.55104   0.00000  Uiso   1.00
Zn1086 Zn    0.83333   0.83334   0.44896   0.00000  Uiso   1.00
C1087  C     0.99770   0.88523   0.46323   0.00000  Uiso   1.00
C1088  C     0.67602   0.92116   0.49711   0.00000  Uiso   1.00
H1089  H     0.98569   0.91803   0.52540   0.00000  Uiso   1.00
H1090  H     0.71820   0.92169   0.51125   0.00000  Uiso   1.00
H1091  H     0.99924   0.95113   0.47971   0.00000  Uiso   1.00
H1092  H     0.68599   0.89006   0.43398   0.00000  Uiso   1.00
H1093  H     0.95624   0.88725   0.44822   0.00000  Uiso   1.00
C1094  C     0.66897   0.78144   0.53677   0.00000  Uiso   1.00
C1095  C     0.99064   0.74550   0.50289   0.00000  Uiso   1.00
H1096  H     0.94846   0.74498   0.48875   0.00000  Uiso   1.00
H1097  H     0.68098   0.74864   0.47460   0.00000  Uiso   1.00
H1098  H     0.66743   0.71554   0.52029   0.00000  Uiso   1.00
H1099  H     0.71042   0.77941   0.55178   0.00000  Uiso   1.00
H1100  H     0.98067   0.77661   0.56602   0.00000  Uiso   1.00
C1101  C     0.76929   0.96043   0.42192   0.00000  Uiso   1.00
C1102  C     0.79714   0.95980   0.37978   0.00000  Uiso   1.00
H1103  H     0.83490   0.94287   0.38682   0.00000  Uiso   1.00
H1104  H     0.77214   0.94386   0.35132   0.00000  Uiso   1.00
H1105  H     0.80479   0.99201   0.36921   0.00000  Uiso   1.00
H1106  H     0.75698   0.92861   0.42898   0.00000  Uiso   1.00
H1107  H     0.73238   0.97856   0.41441   0.00000  Uiso   1.00
C1108  C     0.89737   0.70623   0.57808   0.00000  Uiso   1.00
C1109  C     0.86953   0.70687   0.62022   0.00000  Uiso   1.00
H1110  H     0.89453   0.72281   0.64868   0.00000  Uiso   1.00
H1111  H     0.83176   0.72380   0.61318   0.00000  Uiso   1.00
H1112  H     0.86187   0.67466   0.63079   0.00000  Uiso   1.00
H1113  H     0.93429   0.68811   0.58559   0.00000  Uiso   1.00
H1114  H     0.90969   0.73806   0.57102   0.00000  Uiso   1.00
I1115  I     0.92648   0.89509   0.62596   0.00000  Uiso   1.00
I1116  I     0.74018   0.77157   0.37404   0.00000  Uiso   1.00
C1117  C     0.16888   0.08677   0.83361   0.00000  Uiso   1.00
C1118  C     0.16445   0.24656   0.83306   0.00000  Uiso   1.00
C1119  C     0.06725   0.16709   0.82190   0.00000  Uiso   1.00
C1120  C     0.26608   0.16625   0.84477   0.00000  Uiso   1.00
C1121  C     0.01364   0.17676   0.81881   0.00000  Uiso   1.00
C1122  C     0.31969   0.15657   0.84785   0.00000  Uiso   1.00
C1123  C     0.14113   0.02244   0.79695   0.00000  Uiso   1.00
C1124  C     0.19220   0.31089   0.86971   0.00000  Uiso   1.00
C1125  C     0.13693   0.31312   0.79567   0.00000  Uiso   1.00
C1126  C     0.19641   0.02022   0.87099   0.00000  Uiso   1.00
C1127  C     0.16328   0.29077   0.83273   0.00000  Uiso   1.00
C1128  C     0.17005   0.04257   0.83393   0.00000  Uiso   1.00
C1129  C     0.20148   0.19021   0.69550   0.00000  Uiso   1.00
C1130  C     0.13185   0.14312   0.97116   0.00000  Uiso   1.00
C1131  C     0.20182   0.19030   0.98130   0.00000  Uiso   1.00
C1132  C     0.13151   0.14303   0.68537   0.00000  Uiso   1.00
H1133  H     0.12028   0.04009   0.76934   0.00000  Uiso   1.00
H1134  H     0.21306   0.29324   0.89732   0.00000  Uiso   1.00
H1135  H     0.22907   0.20917   0.71737   0.00000  Uiso   1.00
H1136  H     0.10426   0.12416   0.94930   0.00000  Uiso   1.00
N1137  N     0.16665   0.16666   0.95240   0.00000  Uiso   1.00
N1138  N     0.16668   0.16668   0.71427   0.00000  Uiso   1.00
O1139  O     0.16666   0.10558   0.87154   0.00000  Uiso   1.00
O1140  O     0.16667   0.22775   0.79513   0.00000  Uiso   1.00
O1141  O     0.16666   0.10559   0.79510   0.00000  Uiso   1.00
O1142  O     0.16667   0.22774   0.87157   0.00000  Uiso   1.00
O1143  O     0.09058   0.16666   0.86261   0.00000  Uiso   1.00
O1144  O     0.24275   0.16667   0.80405   0.00000  Uiso   1.00
O1145  O     0.09058   0.16667   0.78617   0.00000  Uiso   1.00
O1146  O     0.24275   0.16666   0.88050   0.00000  Uiso   1.00
Zn1147 Zn    0.16667   0.16666   0.88437   0.00000  Uiso   1.00
Zn1148 Zn    0.16667   0.16667   0.78229   0.00000  Uiso   1.00
C1149  C     0.33103   0.21856   0.79656   0.00000  Uiso   1.00
C1150  C     0.00936   0.25450   0.83045   0.00000  Uiso   1.00
H1151  H     0.31902   0.25136   0.85873   0.00000  Uiso   1.00
H1152  H     0.05154   0.25502   0.84459   0.00000  Uiso   1.00
H1153  H     0.33257   0.28447   0.81304   0.00000  Uiso   1.00
H1154  H     0.01933   0.22339   0.76732   0.00000  Uiso   1.00
H1155  H     0.28958   0.22059   0.78155   0.00000  Uiso   1.00
C1156  C     0.00230   0.11477   0.87011   0.00000  Uiso   1.00
C1157  C     0.32398   0.07884   0.83622   0.00000  Uiso   1.00
H1158  H     0.28180   0.07831   0.82208   0.00000  Uiso   1.00
H1159  H     0.01431   0.08197   0.80793   0.00000  Uiso   1.00
H1160  H     0.00076   0.04887   0.85362   0.00000  Uiso   1.00
H1161  H     0.04376   0.11275   0.88511   0.00000  Uiso   1.00
H1162  H     0.31401   0.10994   0.89935   0.00000  Uiso   1.00
C1163  C     0.10263   0.29377   0.75525   0.00000  Uiso   1.00
C1164  C     0.13047   0.29313   0.71311   0.00000  Uiso   1.00
H1165  H     0.16824   0.27620   0.72015   0.00000  Uiso   1.00
H1166  H     0.10547   0.27719   0.68465   0.00000  Uiso   1.00
H1167  H     0.13813   0.32534   0.70254   0.00000  Uiso   1.00
H1168  H     0.09031   0.26194   0.76231   0.00000  Uiso   1.00
H1169  H     0.06571   0.31189   0.74775   0.00000  Uiso   1.00
C1170  C     0.23071   0.03957   0.91141   0.00000  Uiso   1.00
C1171  C     0.20286   0.04020   0.95355   0.00000  Uiso   1.00
H1172  H     0.22786   0.05614   0.98202   0.00000  Uiso   1.00
H1173  H     0.16510   0.05713   0.94651   0.00000  Uiso   1.00
H1174  H     0.19521   0.00799   0.96413   0.00000  Uiso   1.00
H1175  H     0.26762   0.02144   0.91892   0.00000  Uiso   1.00
H1176  H     0.24302   0.07139   0.90436   0.00000  Uiso   1.00
I1177  I     0.25982   0.22843   0.95929   0.00000  Uiso   1.00
I1178  I     0.07352   0.10491   0.70737   0.00000  Uiso   1.00
C1179  C     0.50222   0.08677   0.83361   0.00000  Uiso   1.00
C1180  C     0.49778   0.24656   0.83306   0.00000  Uiso   1.00
C1181  C     0.40059   0.16709   0.82190   0.00000  Uiso   1.00
C1182  C     0.59941   0.16625   0.84477   0.00000  Uiso   1.00
C1183  C     0.34697   0.17676   0.81881   0.00000  Uiso   1.00
C1184  C     0.65303   0.15657   0.84785   0.00000  Uiso   1.00
C1185  C     0.47446   0.02244   0.79695   0.00000  Uiso   1.00
C1186  C     0.52554   0.31089   0.86971   0.00000  Uiso   1.00
C1187  C     0.47026   0.31312   0.79567   0.00000  Uiso   1.00
C1188  C     0.52974   0.02022   0.87099   0.00000  Uiso   1.00
C1189  C     0.49662   0.29077   0.83273   0.00000  Uiso   1.00
C1190  C     0.50338   0.04257   0.83393   0.00000  Uiso   1.00
C1191  C     0.53482   0.19021   0.69550   0.00000  Uiso   1.00
C1192  C     0.46518   0.14312   0.97116   0.00000  Uiso   1.00
C1193  C     0.53516   0.19030   0.98130   0.00000  Uiso   1.00
C1194  C     0.46484   0.14303   0.68537   0.00000  Uiso   1.00
H1195  H     0.45361   0.04009   0.76934   0.00000  Uiso   1.00
H1196  H     0.54639   0.29324   0.89732   0.00000  Uiso   1.00
H1197  H     0.56240   0.20917   0.71737   0.00000  Uiso   1.00
H1198  H     0.43760   0.12416   0.94930   0.00000  Uiso   1.00
N1199  N     0.49999   0.16666   0.95240   0.00000  Uiso   1.00
N1200  N     0.50001   0.16668   0.71427   0.00000  Uiso   1.00
O1201  O     0.50000   0.10558   0.87154   0.00000  Uiso   1.00
O1202  O     0.50000   0.22775   0.79513   0.00000  Uiso   1.00
O1203  O     0.50000   0.10559   0.79510   0.00000  Uiso   1.00
O1204  O     0.50000   0.22774   0.87157   0.00000  Uiso   1.00
O1205  O     0.42392   0.16666   0.86261   0.00000  Uiso   1.00
O1206  O     0.57608   0.16667   0.80405   0.00000  Uiso   1.00
O1207  O     0.42392   0.16667   0.78617   0.00000  Uiso   1.00
O1208  O     0.57608   0.16666   0.88050   0.00000  Uiso   1.00
Zn1209 Zn    0.50000   0.16666   0.88437   0.00000  Uiso   1.00
Zn1210 Zn    0.50000   0.16667   0.78229   0.00000  Uiso   1.00
C1211  C     0.66436   0.21856   0.79656   0.00000  Uiso   1.00
C1212  C     0.34269   0.25450   0.83045   0.00000  Uiso   1.00
H1213  H     0.65235   0.25136   0.85873   0.00000  Uiso   1.00
H1214  H     0.38487   0.25502   0.84459   0.00000  Uiso   1.00
H1215  H     0.66591   0.28447   0.81304   0.00000  Uiso   1.00
H1216  H     0.35266   0.22339   0.76732   0.00000  Uiso   1.00
H1217  H     0.62291   0.22059   0.78155   0.00000  Uiso   1.00
C1218  C     0.33564   0.11477   0.87011   0.00000  Uiso   1.00
C1219  C     0.65731   0.07884   0.83622   0.00000  Uiso   1.00
H1220  H     0.61513   0.07831   0.82208   0.00000  Uiso   1.00
H1221  H     0.34765   0.08197   0.80793   0.00000  Uiso   1.00
H1222  H     0.33409   0.04887   0.85362   0.00000  Uiso   1.00
H1223  H     0.37709   0.11275   0.88511   0.00000  Uiso   1.00
H1224  H     0.64734   0.10994   0.89935   0.00000  Uiso   1.00
C1225  C     0.43596   0.29377   0.75525   0.00000  Uiso   1.00
C1226  C     0.46380   0.29313   0.71311   0.00000  Uiso   1.00
H1227  H     0.50157   0.27620   0.72015   0.00000  Uiso   1.00
H1228  H     0.43881   0.27719   0.68465   0.00000  Uiso   1.00
H1229  H     0.47146   0.32534   0.70254   0.00000  Uiso   1.00
H1230  H     0.42365   0.26194   0.76231   0.00000  Uiso   1.00
H1231  H     0.39905   0.31189   0.74775   0.00000  Uiso   1.00
C1232  C     0.56404   0.03957   0.91141   0.00000  Uiso   1.00
C1233  C     0.53620   0.04020   0.95355   0.00000  Uiso   1.00
H1234  H     0.56119   0.05614   0.98202   0.00000  Uiso   1.00
H1235  H     0.49843   0.05713   0.94651   0.00000  Uiso   1.00
H1236  H     0.52854   0.00799   0.96413   0.00000  Uiso   1.00
H1237  H     0.60095   0.02144   0.91892   0.00000  Uiso   1.00
H1238  H     0.57635   0.07139   0.90436   0.00000  Uiso   1.00
I1239  I     0.59315   0.22843   0.95929   0.00000  Uiso   1.00
I1240  I     0.40685   0.10491   0.70737   0.00000  Uiso   1.00
C1241  C     0.83555   0.08677   0.83361   0.00000  Uiso   1.00
C1242  C     0.83112   0.24656   0.83306   0.00000  Uiso   1.00
C1243  C     0.73392   0.16709   0.82190   0.00000  Uiso   1.00
C1244  C     0.93275   0.16625   0.84477   0.00000  Uiso   1.00
C1245  C     0.68031   0.17676   0.81881   0.00000  Uiso   1.00
C1246  C     0.98636   0.15657   0.84785   0.00000  Uiso   1.00
C1247  C     0.80780   0.02244   0.79695   0.00000  Uiso   1.00
C1248  C     0.85887   0.31089   0.86971   0.00000  Uiso   1.00
C1249  C     0.80359   0.31312   0.79567   0.00000  Uiso   1.00
C1250  C     0.86307   0.02022   0.87099   0.00000  Uiso   1.00
C1251  C     0.82995   0.29077   0.83273   0.00000  Uiso   1.00
C1252  C     0.83672   0.04257   0.83393   0.00000  Uiso   1.00
C1253  C     0.86815   0.19021   0.69550   0.00000  Uiso   1.00
C1254  C     0.79851   0.14312   0.97116   0.00000  Uiso   1.00
C1255  C     0.86849   0.19030   0.98130   0.00000  Uiso   1.00
C1256  C     0.79818   0.14303   0.68537   0.00000  Uiso   1.00
H1257  H     0.78694   0.04009   0.76934   0.00000  Uiso   1.00
H1258  H     0.87972   0.29324   0.89732   0.00000  Uiso   1.00
H1259  H     0.89574   0.20917   0.71737   0.00000  Uiso   1.00
H1260  H     0.77093   0.12416   0.94930   0.00000  Uiso   1.00
N1261  N     0.83332   0.16666   0.95240   0.00000  Uiso   1.00
N1262  N     0.83335   0.16668   0.71427   0.00000  Uiso   1.00
O1263  O     0.83333   0.10558   0.87154   0.00000  Uiso   1.00
O1264  O     0.83334   0.22775   0.79513   0.00000  Uiso   1.00
O1265  O     0.83333   0.10559   0.79510   0.00000  Uiso   1.00
O1266  O     0.83334   0.22774   0.87157   0.00000  Uiso   1.00
O1267  O     0.75725   0.16666   0.86261   0.00000  Uiso   1.00
O1268  O     0.90942   0.16667   0.80405   0.00000  Uiso   1.00
O1269  O     0.75725   0.16667   0.78617   0.00000  Uiso   1.00
O1270  O     0.90942   0.16666   0.88050   0.00000  Uiso   1.00
Zn1271 Zn    0.83333   0.16666   0.88437   0.00000  Uiso   1.00
Zn1272 Zn    0.83333   0.16667   0.78229   0.00000  Uiso   1.00
C1273  C     0.99770   0.21856   0.79656   0.00000  Uiso   1.00
C1274  C     0.67602   0.25450   0.83045   0.00000  Uiso   1.00
H1275  H     0.98569   0.25136   0.85873   0.00000  Uiso   1.00
H1276  H     0.71820   0.25502   0.84459   0.00000  Uiso   1.00
H1277  H     0.99924   0.28447   0.81304   0.00000  Uiso   1.00
H1278  H     0.68599   0.22339   0.76732   0.00000  Uiso   1.00
H1279  H     0.95624   0.22059   0.78155   0.00000  Uiso   1.00
C1280  C     0.66897   0.11477   0.87011   0.00000  Uiso   1.00
C1281  C     0.99064   0.07884   0.83622   0.00000  Uiso   1.00
H1282  H     0.94846   0.07831   0.82208   0.00000  Uiso   1.00
H1283  H     0.68098   0.08197   0.80793   0.00000  Uiso   1.00
H1284  H     0.66743   0.04887   0.85362   0.00000  Uiso   1.00
H1285  H     0.71042   0.11275   0.88511   0.00000  Uiso   1.00
H1286  H     0.98067   0.10994   0.89935   0.00000  Uiso   1.00
C1287  C     0.76929   0.29377   0.75525   0.00000  Uiso   1.00
C1288  C     0.79714   0.29313   0.71311   0.00000  Uiso   1.00
H1289  H     0.83490   0.27620   0.72015   0.00000  Uiso   1.00
H1290  H     0.77214   0.27719   0.68465   0.00000  Uiso   1.00
H1291  H     0.80479   0.32534   0.70254   0.00000  Uiso   1.00
H1292  H     0.75698   0.26194   0.76231   0.00000  Uiso   1.00
H1293  H     0.73238   0.31189   0.74775   0.00000  Uiso   1.00
C1294  C     0.89737   0.03957   0.91141   0.00000  Uiso   1.00
C1295  C     0.86953   0.04020   0.95355   0.00000  Uiso   1.00
H1296  H     0.89453   0.05614   0.98202   0.00000  Uiso   1.00
H1297  H     0.83176   0.05713   0.94651   0.00000  Uiso   1.00
H1298  H     0.86187   0.00799   0.96413   0.00000  Uiso   1.00
H1299  H     0.93429   0.02144   0.91892   0.00000  Uiso   1.00
H1300  H     0.90969   0.07139   0.90436   0.00000  Uiso   1.00
I1301  I     0.92648   0.22843   0.95929   0.00000  Uiso   1.00
I1302  I     0.74018   0.10491   0.70737   0.00000  Uiso   1.00
C1303  C     0.16888   0.42011   0.83361   0.00000  Uiso   1.00
C1304  C     0.16445   0.57989   0.83306   0.00000  Uiso   1.00
C1305  C     0.06725   0.50042   0.82190   0.00000  Uiso   1.00
C1306  C     0.26608   0.49958   0.84477   0.00000  Uiso   1.00
C1307  C     0.01364   0.51009   0.81881   0.00000  Uiso   1.00
C1308  C     0.31969   0.48991   0.84785   0.00000  Uiso   1.00
C1309  C     0.14113   0.35577   0.79695   0.00000  Uiso   1.00
C1310  C     0.19220   0.64423   0.86971   0.00000  Uiso   1.00
C1311  C     0.13693   0.64645   0.79567   0.00000  Uiso   1.00
C1312  C     0.19641   0.35355   0.87099   0.00000  Uiso   1.00
C1313  C     0.16328   0.62410   0.83273   0.00000  Uiso   1.00
C1314  C     0.17005   0.37590   0.83393   0.00000  Uiso   1.00
C1315  C     0.20148   0.52355   0.69550   0.00000  Uiso   1.00
C1316  C     0.13185   0.47645   0.97116   0.00000  Uiso   1.00
C1317  C     0.20182   0.52363   0.98130   0.00000  Uiso   1.00
C1318  C     0.13151   0.47637   0.68537   0.00000  Uiso   1.00
H1319  H     0.12028   0.37342   0.76934   0.00000  Uiso   1.00
H1320  H     0.21306   0.62658   0.89732   0.00000  Uiso   1.00
H1321  H     0.22907   0.54251   0.71737   0.00000  Uiso   1.00
H1322  H     0.10426   0.45749   0.94930   0.00000  Uiso   1.00
N1323  N     0.16665   0.49999   0.95240   0.00000  Uiso   1.00
N1324  N     0.16668   0.50001   0.71427   0.00000  Uiso   1.00
O1325  O     0.16666   0.43892   0.87154   0.00000  Uiso   1.00
O1326  O     0.16667   0.56108   0.79513   0.00000  Uiso   1.00
O1327  O     0.16666   0.43893   0.79510   0.00000  Uiso   1.00
O1328  O     0.16667   0.56107   0.87157   0.00000  Uiso   1.00
O1329  O     0.09058   0.50000   0.86261   0.00000  Uiso   1.00
O1330  O     0.24275   0.50000   0.80405   0.00000  Uiso   1.00
O1331  O     0.09058   0.50000   0.78617   0.00000  Uiso   1.00
O1332  O     0.24275   0.50000   0.88050   0.00000  Uiso   1.00
Zn1333 Zn    0.16667   0.49999   0.88437   0.00000  Uiso   1.00
Zn1334 Zn    0.16667   0.50001   0.78229   0.00000  Uiso   1.00
C1335  C     0.33103   0.55189   0.79656   0.00000  Uiso   1.00
C1336  C     0.00936   0.58783   0.83045   0.00000  Uiso   1.00
H1337  H     0.31902   0.58469   0.85873   0.00000  Uiso   1.00
H1338  H     0.05154   0.58835   0.84459   0.00000  Uiso   1.00
H1339  H     0.33257   0.61780   0.81304   0.00000  Uiso   1.00
H1340  H     0.01933   0.55673   0.76732   0.00000  Uiso   1.00
H1341  H     0.28958   0.55392   0.78155   0.00000  Uiso   1.00
C1342  C     0.00230   0.44811   0.87011   0.00000  Uiso   1.00
C1343  C     0.32398   0.41217   0.83622   0.00000  Uiso   1.00
H1344  H     0.28180   0.41165   0.82208   0.00000  Uiso   1.00
H1345  H     0.01431   0.41531   0.80793   0.00000  Uiso   1.00
H1346  H     0.00076   0.38220   0.85362   0.00000  Uiso   1.00
H1347  H     0.04376   0.44608   0.88511   0.00000  Uiso   1.00
H1348  H     0.31401   0.44327   0.89935   0.00000  Uiso   1.00
C1349  C     0.10263   0.62710   0.75525   0.00000  Uiso   1.00
C1350  C     0.13047   0.62646   0.71311   0.00000  Uiso   1.00
H1351  H     0.16824   0.60953   0.72015   0.00000  Uiso   1.00
H1352  H     0.10547   0.61053   0.68465   0.00000  Uiso   1.00
H1353  H     0.13813   0.65868   0.70254   0.00000  Uiso   1.00
H1354  H     0.09031   0.59528   0.76231   0.00000  Uiso   1.00
H1355  H     0.06571   0.64523   0.74775   0.00000  Uiso   1.00
C1356  C     0.23071   0.37290   0.91141   0.00000  Uiso   1.00
C1357  C     0.20286   0.37354   0.95355   0.00000  Uiso   1.00
H1358  H     0.22786   0.38947   0.98202   0.00000  Uiso   1.00
H1359  H     0.16510   0.39047   0.94651   0.00000  Uiso   1.00
H1360  H     0.19521   0.34132   0.96413   0.00000  Uiso   1.00
H1361  H     0.26762   0.35477   0.91892   0.00000  Uiso   1.00
H1362  H     0.24302   0.40472   0.90436   0.00000  Uiso   1.00
I1363  I     0.25982   0.56176   0.95929   0.00000  Uiso   1.00
I1364  I     0.07352   0.43824   0.70737   0.00000  Uiso   1.00
C1365  C     0.50222   0.42011   0.83361   0.00000  Uiso   1.00
C1366  C     0.49778   0.57989   0.83306   0.00000  Uiso   1.00
C1367  C     0.40059   0.50042   0.82190   0.00000  Uiso   1.00
C1368  C     0.59941   0.49958   0.84477   0.00000  Uiso   1.00
C1369  C     0.34697   0.51009   0.81881   0.00000  Uiso   1.00
C1370  C     0.65303   0.48991   0.84785   0.00000  Uiso   1.00
C1371  C     0.47446   0.35577   0.79695   0.00000  Uiso   1.00
C1372  C     0.52554   0.64423   0.86971   0.00000  Uiso   1.00
C1373  C     0.47026   0.64645   0.79567   0.00000  Uiso   1.00
C1374  C     0.52974   0.35355   0.87099   0.00000  Uiso   1.00
C1375  C     0.49662   0.62410   0.83273   0.00000  Uiso   1.00
C1376  C     0.50338   0.37590   0.83393   0.00000  Uiso   1.00
C1377  C     0.53482   0.52355   0.69550   0.00000  Uiso   1.00
C1378  C     0.46518   0.47645   0.97116   0.00000  Uiso   1.00
C1379  C     0.53516   0.52363   0.98130   0.00000  Uiso   1.00
C1380  C     0.46484   0.47637   0.68537   0.00000  Uiso   1.00
H1381  H     0.45361   0.37342   0.76934   0.00000  Uiso   1.00
H1382  H     0.54639   0.62658   0.89732   0.00000  Uiso   1.00
H1383  H     0.56240   0.54251   0.71737   0.00000  Uiso   1.00
H1384  H     0.43760   0.45749   0.94930   0.00000  Uiso   1.00
N1385  N     0.49999   0.49999   0.95240   0.00000  Uiso   1.00
N1386  N     0.50001   0.50001   0.71427   0.00000  Uiso   1.00
O1387  O     0.50000   0.43892   0.87154   0.00000  Uiso   1.00
O1388  O     0.50000   0.56108   0.79513   0.00000  Uiso   1.00
O1389  O     0.50000   0.43893   0.79510   0.00000  Uiso   1.00
O1390  O     0.50000   0.56107   0.87157   0.00000  Uiso   1.00
O1391  O     0.42392   0.50000   0.86261   0.00000  Uiso   1.00
O1392  O     0.57608   0.50000   0.80405   0.00000  Uiso   1.00
O1393  O     0.42392   0.50000   0.78617   0.00000  Uiso   1.00
O1394  O     0.57608   0.50000   0.88050   0.00000  Uiso   1.00
Zn1395 Zn    0.50000   0.49999   0.88437   0.00000  Uiso   1.00
Zn1396 Zn    0.50000   0.50001   0.78229   0.00000  Uiso   1.00
C1397  C     0.66436   0.55189   0.79656   0.00000  Uiso   1.00
C1398  C     0.34269   0.58783   0.83045   0.00000  Uiso   1.00
H1399  H     0.65235   0.58469   0.85873   0.00000  Uiso   1.00
H1400  H     0.38487   0.58835   0.84459   0.00000  Uiso   1.00
H1401  H     0.66591   0.61780   0.81304   0.00000  Uiso   1.00
H1402  H     0.35266   0.55673   0.76732   0.00000  Uiso   1.00
H1403  H     0.62291   0.55392   0.78155   0.00000  Uiso   1.00
C1404  C     0.33564   0.44811   0.87011   0.00000  Uiso   1.00
C1405  C     0.65731   0.41217   0.83622   0.00000  Uiso   1.00
H1406  H     0.61513   0.41165   0.82208   0.00000  Uiso   1.00
H1407  H     0.34765   0.41531   0.80793   0.00000  Uiso   1.00
H1408  H     0.33409   0.38220   0.85362   0.00000  Uiso   1.00
H1409  H     0.37709   0.44608   0.88511   0.00000  Uiso   1.00
H1410  H     0.64734   0.44327   0.89935   0.00000  Uiso   1.00
C1411  C     0.43596   0.62710   0.75525   0.00000  Uiso   1.00
C1412  C     0.46380   0.62646   0.71311   0.00000  Uiso   1.00
H1413  H     0.50157   0.60953   0.72015   0.00000  Uiso   1.00
H1414  H     0.43881   0.61053   0.68465   0.00000  Uiso   1.00
H1415  H     0.47146   0.65868   0.70254   0.00000  Uiso   1.00
H1416  H     0.42365   0.59528   0.76231   0.00000  Uiso   1.00
H1417  H     0.39905   0.64523   0.74775   0.00000  Uiso   1.00
C1418  C     0.56404   0.37290   0.91141   0.00000  Uiso   1.00
C1419  C     0.53620   0.37354   0.95355   0.00000  Uiso   1.00
H1420  H     0.56119   0.38947   0.98202   0.00000  Uiso   1.00
H1421  H     0.49843   0.39047   0.94651   0.00000  Uiso   1.00
H1422  H     0.52854   0.34132   0.96413   0.00000  Uiso   1.00
H1423  H     0.60095   0.35477   0.91892   0.00000  Uiso   1.00
H1424  H     0.57635   0.40472   0.90436   0.00000  Uiso   1.00
I1425  I     0.59315   0.56176   0.95929   0.00000  Uiso   1.00
I1426  I     0.40685   0.43824   0.70737   0.00000  Uiso   1.00
C1427  C     0.83555   0.42011   0.83361   0.00000  Uiso   1.00
C1428  C     0.83112   0.57989   0.83306   0.00000  Uiso   1.00
C1429  C     0.73392   0.50042   0.82190   0.00000  Uiso   1.00
C1430  C     0.93275   0.49958   0.84477   0.00000  Uiso   1.00
C1431  C     0.68031   0.51009   0.81881   0.00000  Uiso   1.00
C1432  C     0.98636   0.48991   0.84785   0.00000  Uiso   1.00
C1433  C     0.80780   0.35577   0.79695   0.00000  Uiso   1.00
C1434  C     0.85887   0.64423   0.86971   0.00000  Uiso   1.00
C1435  C     0.80359   0.64645   0.79567   0.00000  Uiso   1.00
C1436  C     0.86307   0.35355   0.87099   0.00000  Uiso   1.00
C1437  C     0.82995   0.62410   0.83273   0.00000  Uiso   1.00
C1438  C     0.83672   0.37590   0.83393   0.00000  Uiso   1.00
C1439  C     0.86815   0.52355   0.69550   0.00000  Uiso   1.00
C1440  C     0.79851   0.47645   0.97116   0.00000  Uiso   1.00
C1441  C     0.86849   0.52363   0.98130   0.00000  Uiso   1.00
C1442  C     0.79818   0.47637   0.68537   0.00000  Uiso   1.00
H1443  H     0.78694   0.37342   0.76934   0.00000  Uiso   1.00
H1444  H     0.87972   0.62658   0.89732   0.00000  Uiso   1.00
H1445  H     0.89574   0.54251   0.71737   0.00000  Uiso   1.00
H1446  H     0.77093   0.45749   0.94930   0.00000  Uiso   1.00
N1447  N     0.83332   0.49999   0.95240   0.00000  Uiso   1.00
N1448  N     0.83335   0.50001   0.71427   0.00000  Uiso   1.00
O1449  O     0.83333   0.43892   0.87154   0.00000  Uiso   1.00
O1450  O     0.83334   0.56108   0.79513   0.00000  Uiso   1.00
O1451  O     0.83333   0.43893   0.79510   0.00000  Uiso   1.00
O1452  O     0.83334   0.56107   0.87157   0.00000  Uiso   1.00
O1453  O     0.75725   0.50000   0.86261   0.00000  Uiso   1.00
O1454  O     0.90942   0.50000   0.80405   0.00000  Uiso   1.00
O1455  O     0.75725   0.50000   0.78617   0.00000  Uiso   1.00
O1456  O     0.90942   0.50000   0.88050   0.00000  Uiso   1.00
Zn1457 Zn    0.83333   0.49999   0.88437   0.00000  Uiso   1.00
Zn1458 Zn    0.83333   0.50001   0.78229   0.00000  Uiso   1.00
C1459  C     0.99770   0.55189   0.79656   0.00000  Uiso   1.00
C1460  C     0.67602   0.58783   0.83045   0.00000  Uiso   1.00
H1461  H     0.98569   0.58469   0.85873   0.00000  Uiso   1.00
H1462  H     0.71820   0.58835   0.84459   0.00000  Uiso   1.00
H1463  H     0.99924   0.61780   0.81304   0.00000  Uiso   1.00
H1464  H     0.68599   0.55673   0.76732   0.00000  Uiso   1.00
H1465  H     0.95624   0.55392   0.78155   0.00000  Uiso   1.00
C1466  C     0.66897   0.44811   0.87011   0.00000  Uiso   1.00
C1467  C     0.99064   0.41217   0.83622   0.00000  Uiso   1.00
H1468  H     0.94846   0.41165   0.82208   0.00000  Uiso   1.00
H1469  H     0.68098   0.41531   0.80793   0.00000  Uiso   1.00
H1470  H     0.66743   0.38220   0.85362   0.00000  Uiso   1.00
H1471  H     0.71042   0.44608   0.88511   0.00000  Uiso   1.00
H1472  H     0.98067   0.44327   0.89935   0.00000  Uiso   1.00
C1473  C     0.76929   0.62710   0.75525   0.00000  Uiso   1.00
C1474  C     0.79714   0.62646   0.71311   0.00000  Uiso   1.00
H1475  H     0.83490   0.60953   0.72015   0.00000  Uiso   1.00
H1476  H     0.77214   0.61053   0.68465   0.00000  Uiso   1.00
H1477  H     0.80479   0.65868   0.70254   0.00000  Uiso   1.00
H1478  H     0.75698   0.59528   0.76231   0.00000  Uiso   1.00
H1479  H     0.73238   0.64523   0.74775   0.00000  Uiso   1.00
C1480  C     0.89737   0.37290   0.91141   0.00000  Uiso   1.00
C1481  C     0.86953   0.37354   0.95355   0.00000  Uiso   1.00
H1482  H     0.89453   0.38947   0.98202   0.00000  Uiso   1.00
H1483  H     0.83176   0.39047   0.94651   0.00000  Uiso   1.00
H1484  H     0.86187   0.34132   0.96413   0.00000  Uiso   1.00
H1485  H     0.93429   0.35477   0.91892   0.00000  Uiso   1.00
H1486  H     0.90969   0.40472   0.90436   0.00000  Uiso   1.00
I1487  I     0.92648   0.56176   0.95929   0.00000  Uiso   1.00
I1488  I     0.74018   0.43824   0.70737   0.00000  Uiso   1.00
C1489  C     0.16888   0.75344   0.83361   0.00000  Uiso   1.00
C1490  C     0.16445   0.91323   0.83306   0.00000  Uiso   1.00
C1491  C     0.06725   0.83375   0.82190   0.00000  Uiso   1.00
C1492  C     0.26608   0.83291   0.84477   0.00000  Uiso   1.00
C1493  C     0.01364   0.84343   0.81881   0.00000  Uiso   1.00
C1494  C     0.31969   0.82324   0.84785   0.00000  Uiso   1.00
C1495  C     0.14113   0.68911   0.79695   0.00000  Uiso   1.00
C1496  C     0.19220   0.97756   0.86971   0.00000  Uiso   1.00
C1497  C     0.13693   0.97978   0.79567   0.00000  Uiso   1.00
C1498  C     0.19641   0.68688   0.87099   0.00000  Uiso   1.00
C1499  C     0.16328   0.95744   0.83273   0.00000  Uiso   1.00
C1500  C     0.17005   0.70923   0.83393   0.00000  Uiso   1.00
C1501  C     0.20148   0.85688   0.69550   0.00000  Uiso   1.00
C1502  C     0.13185   0.80979   0.97116   0.00000  Uiso   1.00
C1503  C     0.20182   0.85697   0.98130   0.00000  Uiso   1.00
C1504  C     0.13151   0.80970   0.68537   0.00000  Uiso   1.00
H1505  H     0.12028   0.70676   0.76934   0.00000  Uiso   1.00
H1506  H     0.21306   0.95991   0.89732   0.00000  Uiso   1.00
H1507  H     0.22907   0.87584   0.71737   0.00000  Uiso   1.00
H1508  H     0.10426   0.79083   0.94930   0.00000  Uiso   1.00
N1509  N     0.16665   0.83332   0.95240   0.00000  Uiso   1.00
N1510  N     0.16668   0.83334   0.71427   0.00000  Uiso   1.00
O1511  O     0.16666   0.77225   0.87154   0.00000  Uiso   1.00
O1512  O     0.16667   0.89442   0.79513   0.00000  Uiso   1.00
O1513  O     0.16666   0.77226   0.79510   0.00000  Uiso   1.00
O1514  O     0.16667   0.89441   0.87157   0.00000  Uiso   1.00
O1515  O     0.09058   0.83333   0.86261   0.00000  Uiso   1.00
O1516  O     0.24275   0.83334   0.80405   0.00000  Uiso   1.00
O1517  O     0.09058   0.83334   0.78617   0.00000  Uiso   1.00
O1518  O     0.24275   0.83333   0.88050   0.00000  Uiso   1.00
Zn1519 Zn    0.16667   0.83333   0.88437   0.00000  Uiso   1.00
Zn1520 Zn    0.16667   0.83334   0.78229   0.00000  Uiso   1.00
C1521  C     0.33103   0.88523   0.79656   0.00000  Uiso   1.00
C1522  C     0.00936   0.92116   0.83045   0.00000  Uiso   1.00
H1523  H     0.31902   0.91803   0.85873   0.00000  Uiso   1.00
H1524  H     0.05154   0.92169   0.84459   0.00000  Uiso   1.00
H1525  H     0.33257   0.95113   0.81304   0.00000  Uiso   1.00
H1526  H     0.01933   0.89006   0.76732   0.00000  Uiso   1.00
H1527  H     0.28958   0.88725   0.78155   0.00000  Uiso   1.00
C1528  C     0.00230   0.78144   0.87011   0.00000  Uiso   1.00
C1529  C     0.32398   0.74550   0.83622   0.00000  Uiso   1.00
H1530  H     0.28180   0.74498   0.82208   0.00000  Uiso   1.00
H1531  H     0.01431   0.74864   0.80793   0.00000  Uiso   1.00
H1532  H     0.00076   0.71554   0.85362   0.00000  Uiso   1.00
H1533  H     0.04376   0.77941   0.88511   0.00000  Uiso   1.00
H1534  H     0.31401   0.77661   0.89935   0.00000  Uiso   1.00
C1535  C     0.10263   0.96043   0.75525   0.00000  Uiso   1.00
C1536  C     0.13047   0.95980   0.71311   0.00000  Uiso   1.00
H1537  H     0.16824   0.94287   0.72015   0.00000  Uiso   1.00
H1538  H     0.10547   0.94386   0.68465   0.00000  Uiso   1.00
H1539  H     0.13813   0.99201   0.70254   0.00000  Uiso   1.00
H1540  H     0.09031   0.92861   0.76231   0.00000  Uiso   1.00
H1541  H     0.06571   0.97856   0.74775   0.00000  Uiso   1.00
C1542  C     0.23071   0.70623   0.91141   0.00000  Uiso   1.00
C1543  C     0.20286   0.70687   0.95355   0.00000  Uiso   1.00
H1544  H     0.22786   0.72281   0.98202   0.00000  Uiso   1.00
H1545  H     0.16510   0.72380   0.94651   0.00000  Uiso   1.00
H1546  H     0.19521   0.67466   0.96413   0.00000  Uiso   1.00
H1547  H     0.26762   0.68811   0.91892   0.00000  Uiso   1.00
H1548  H     0.24302   0.73806   0.90436   0.00000  Uiso   1.00
I1549  I     0.25982   0.89509   0.95929   0.00000  Uiso   1.00
I1550  I     0.07352   0.77157   0.70737   0.00000  Uiso   1.00
C1551  C     0.50222   0.75344   0.83361   0.00000  Uiso   1.00
C1552  C     0.49778   0.91323   0.83306   0.00000  Uiso   1.00
C1553  C     0.40059   0.83375   0.82190   0.00000  Uiso   1.00
C1554  C     0.59941   0.83291   0.84477   0.00000  Uiso   1.00
C1555  C     0.34697   0.84343   0.81881   0.00000  Uiso   1.00
C1556  C     0.65303   0.82324   0.84785   0.00000  Uiso   1.00
C1557  C     0.47446   0.68911   0.79695   0.00000  Uiso   1.00
C1558  C     0.52554   0.97756   0.86971   0.00000  Uiso   1.00
C1559  C     0.47026   0.97978   0.79567   0.00000  Uiso   1.00
C1560  C     0.52974   0.68688   0.87099   0.00000  Uiso   1.00
C1561  C     0.49662   0.95744   0.83273   0.00000  Uiso   1.00
C1562  C     0.50338   0.70923   0.83393   0.00000  Uiso   1.00
C1563  C     0.53482   0.85688   0.69550   0.00000  Uiso   1.00
C1564  C     0.46518   0.80979   0.97116   0.00000  Uiso   1.00
C1565  C     0.53516   0.85697   0.98130   0.00000  Uiso   1.00
C1566  C     0.46484   0.80970   0.68537   0.00000  Uiso   1.00
H1567  H     0.45361   0.70676   0.76934   0.00000  Uiso   1.00
H1568  H     0.54639   0.95991   0.89732   0.00000  Uiso   1.00
H1569  H     0.56240   0.87584   0.71737   0.00000  Uiso   1.00
H1570  H     0.43760   0.79083   0.94930   0.00000  Uiso   1.00
N1571  N     0.49999   0.83332   0.95240   0.00000  Uiso   1.00
N1572  N     0.50001   0.83334   0.71427   0.00000  Uiso   1.00
O1573  O     0.50000   0.77225   0.87154   0.00000  Uiso   1.00
O1574  O     0.50000   0.89442   0.79513   0.00000  Uiso   1.00
O1575  O     0.50000   0.77226   0.79510   0.00000  Uiso   1.00
O1576  O     0.50000   0.89441   0.87157   0.00000  Uiso   1.00
O1577  O     0.42392   0.83333   0.86261   0.00000  Uiso   1.00
O1578  O     0.57608   0.83334   0.80405   0.00000  Uiso   1.00
O1579  O     0.42392   0.83334   0.78617   0.00000  Uiso   1.00
O1580  O     0.57608   0.83333   0.88050   0.00000  Uiso   1.00
Zn1581 Zn    0.50000   0.83333   0.88437   0.00000  Uiso   1.00
Zn1582 Zn    0.50000   0.83334   0.78229   0.00000  Uiso   1.00
C1583  C     0.66436   0.88523   0.79656   0.00000  Uiso   1.00
C1584  C     0.34269   0.92116   0.83045   0.00000  Uiso   1.00
H1585  H     0.65235   0.91803   0.85873   0.00000  Uiso   1.00
H1586  H     0.38487   0.92169   0.84459   0.00000  Uiso   1.00
H1587  H     0.66591   0.95113   0.81304   0.00000  Uiso   1.00
H1588  H     0.35266   0.89006   0.76732   0.00000  Uiso   1.00
H1589  H     0.62291   0.88725   0.78155   0.00000  Uiso   1.00
C1590  C     0.33564   0.78144   0.87011   0.00000  Uiso   1.00
C1591  C     0.65731   0.74550   0.83622   0.00000  Uiso   1.00
H1592  H     0.61513   0.74498   0.82208   0.00000  Uiso   1.00
H1593  H     0.34765   0.74864   0.80793   0.00000  Uiso   1.00
H1594  H     0.33409   0.71554   0.85362   0.00000  Uiso   1.00
H1595  H     0.37709   0.77941   0.88511   0.00000  Uiso   1.00
H1596  H     0.64734   0.77661   0.89935   0.00000  Uiso   1.00
C1597  C     0.43596   0.96043   0.75525   0.00000  Uiso   1.00
C1598  C     0.46380   0.95980   0.71311   0.00000  Uiso   1.00
H1599  H     0.50157   0.94287   0.72015   0.00000  Uiso   1.00
H1600  H     0.43881   0.94386   0.68465   0.00000  Uiso   1.00
H1601  H     0.47146   0.99201   0.70254   0.00000  Uiso   1.00
H1602  H     0.42365   0.92861   0.76231   0.00000  Uiso   1.00
H1603  H     0.39905   0.97856   0.74775   0.00000  Uiso   1.00
C1604  C     0.56404   0.70623   0.91141   0.00000  Uiso   1.00
C1605  C     0.53620   0.70687   0.95355   0.00000  Uiso   1.00
H1606  H     0.56119   0.72281   0.98202   0.00000  Uiso   1.00
H1607  H     0.49843   0.72380   0.94651   0.00000  Uiso   1.00
H1608  H     0.52854   0.67466   0.96413   0.00000  Uiso   1.00
H1609  H     0.60095   0.68811   0.91892   0.00000  Uiso   1.00
H1610  H     0.57635   0.73806   0.90436   0.00000  Uiso   1.00
I1611  I     0.59315   0.89509   0.95929   0.00000  Uiso   1.00
I1612  I     0.40685   0.77157   0.70737   0.00000  Uiso   1.00
C1613  C     0.83555   0.75344   0.83361   0.00000  Uiso   1.00
C1614  C     0.83112   0.91323   0.83306   0.00000  Uiso   1.00
C1615  C     0.73392   0.83375   0.82190   0.00000  Uiso   1.00
C1616  C     0.93275   0.83291   0.84477   0.00000  Uiso   1.00
C1617  C     0.68031   0.84343   0.81881   0.00000  Uiso   1.00
C1618  C     0.98636   0.82324   0.84785   0.00000  Uiso   1.00
C1619  C     0.80780   0.68911   0.79695   0.00000  Uiso   1.00
C1620  C     0.85887   0.97756   0.86971   0.00000  Uiso   1.00
C1621  C     0.80359   0.97978   0.79567   0.00000  Uiso   1.00
C1622  C     0.86307   0.68688   0.87099   0.00000  Uiso   1.00
C1623  C     0.82995   0.95744   0.83273   0.00000  Uiso   1.00
C1624  C     0.83672   0.70923   0.83393   0.00000  Uiso   1.00
C1625  C     0.86815   0.85688   0.69550   0.00000  Uiso   1.00
C1626  C     0.79851   0.80979   0.97116   0.00000  Uiso   1.00
C1627  C     0.86849   0.85697   0.98130   0.00000  Uiso   1.00
C1628  C     0.79818   0.80970   0.68537   0.00000  Uiso   1.00
H1629  H     0.78694   0.70676   0.76934   0.00000  Uiso   1.00
H1630  H     0.87972   0.95991   0.89732   0.00000  Uiso   1.00
H1631  H     0.89574   0.87584   0.71737   0.00000  Uiso   1.00
H1632  H     0.77093   0.79083   0.94930   0.00000  Uiso   1.00
N1633  N     0.83332   0.83332   0.95240   0.00000  Uiso   1.00
N1634  N     0.83335   0.83334   0.71427   0.00000  Uiso   1.00
O1635  O     0.83333   0.77225   0.87154   0.00000  Uiso   1.00
O1636  O     0.83334   0.89442   0.79513   0.00000  Uiso   1.00
O1637  O     0.83333   0.77226   0.79510   0.00000  Uiso   1.00
O1638  O     0.83334   0.89441   0.87157   0.00000  Uiso   1.00
O1639  O     0.75725   0.83333   0.86261   0.00000  Uiso   1.00
O1640  O     0.90942   0.83334   0.80405   0.00000  Uiso   1.00
O1641  O     0.75725   0.83334   0.78617   0.00000  Uiso   1.00
O1642  O     0.90942   0.83333   0.88050   0.00000  Uiso   1.00
Zn1643 Zn    0.83333   0.83333   0.88437   0.00000  Uiso   1.00
Zn1644 Zn    0.83333   0.83334   0.78229   0.00000  Uiso   1.00
C1645  C     0.99770   0.88523   0.79656   0.00000  Uiso   1.00
C1646  C     0.67602   0.92116   0.83045   0.00000  Uiso   1.00
H1647  H     0.98569   0.91803   0.85873   0.00000  Uiso   1.00
H1648  H     0.71820   0.92169   0.84459   0.00000  Uiso   1.00
H1649  H     0.99924   0.95113   0.81304   0.00000  Uiso   1.00
H1650  H     0.68599   0.89006   0.76732   0.00000  Uiso   1.00
H1651  H     0.95624   0.88725   0.78155   0.00000  Uiso   1.00
C1652  C     0.66897   0.78144   0.87011   0.00000  Uiso   1.00
C1653  C     0.99064   0.74550   0.83622   0.00000  Uiso   1.00
H1654  H     0.94846   0.74498   0.82208   0.00000  Uiso   1.00
H1655  H     0.68098   0.74864   0.80793   0.00000  Uiso   1.00
H1656  H     0.66743   0.71554   0.85362   0.00000  Uiso   1.00
H1657  H     0.71042   0.77941   0.88511   0.00000  Uiso   1.00
H1658  H     0.98067   0.77661   0.89935   0.00000  Uiso   1.00
C1659  C     0.76929   0.96043   0.75525   0.00000  Uiso   1.00
C1660  C     0.79714   0.95980   0.71311   0.00000  Uiso   1.00
H1661  H     0.83490   0.94287   0.72015   0.00000  Uiso   1.00
H1662  H     0.77214   0.94386   0.68465   0.00000  Uiso   1.00
H1663  H     0.80479   0.99201   0.70254   0.00000  Uiso   1.00
H1664  H     0.75698   0.92861   0.76231   0.00000  Uiso   1.00
H1665  H     0.73238   0.97856   0.74775   0.00000  Uiso   1.00
C1666  C     0.89737   0.70623   0.91141   0.00000  Uiso   1.00
C1667  C     0.86953   0.70687   0.95355   0.00000  Uiso   1.00
H1668  H     0.89453   0.72281   0.98202   0.00000  Uiso   1.00
H1669  H     0.83176   0.72380   0.94651   0.00000  Uiso   1.00
H1670  H     0.86187   0.67466   0.96413   0.00000  Uiso   1.00
H1671  H     0.93429   0.68811   0.91892   0.00000  Uiso   1.00
H1672  H     0.90969   0.73806   0.90436   0.00000  Uiso   1.00
I1673  I     0.92648   0.89509   0.95929   0.00000  Uiso   1.00
I1674  I     0.74018   0.77157   0.70737   0.00000  Uiso   1.00
loop_
_geom_bond_atom_site_label_1
_geom_bond_atom_site_label_2
_geom_bond_distance
_geom_bond_site_symmetry_2
_ccdc_geom_bond_type
C1     O25     1.292   .     A
C1     C12     1.422   .     S
C1     O23     1.282   .     A
C2     O26     1.292   .     A
C2     C11     1.422   .     S
C2     O24     1.282   .     A
C3     O29     1.291   .     A
C3     O27     1.273   .     A
C3     C5      1.408   .     S
C4     O30     1.291   .     A
C4     O28     1.273   .     A
C4     C6      1.408   .     S
C5     C130    1.357   1_455 S
C5     C157    1.533   1_455 S
C6     C67     1.357   .     S
C6     C102    1.533   .     S
C7     C12     1.393   .     A
C7     H17     1.080   .     S
C7     C381    1.376   1_545 S
C8     C11     1.393   .     A
C8     H18     1.080   .     S
C8     C196    1.376   .     S
C9     C47     1.517   .     S
C9     C11     1.411   .     A
C9     C193    1.376   .     S
C10    C12     1.411   .     A
C10    C54     1.517   .     S
C10    C380    1.376   1_545 S
C13    N22     1.356   .     A
C13    H19     1.079   .     S
C13    C1131   1.413   1_554 S
C14    N21     1.356   .     A
C14    H20     1.079   .     S
C14    C574    1.413   .     S
C15    N21     1.382   .     A
C15    I61     2.112   .     S
C15    C571    1.413   .     S
C16    I62     2.112   .     S
C16    N22     1.382   .     A
C16    C1130   1.413   1_554 S
N21    Zn31    2.020   .     S
N22    Zn32    2.020   .     S
O23    Zn31    1.997   .     S
O24    Zn32    1.997   .     S
O25    Zn32    2.004   .     S
O26    Zn31    2.004   .     S
O27    Zn31    1.978   .     S
O28    Zn32    1.978   .     S
O29    Zn32    1.982   .     S
O30    Zn31    1.982   .     S
C33    H39     1.101   .     S
C33    C67     1.533   .     S
C33    C96     1.528   .     S
C33    H100    1.108   .     S
C34    H36     1.110   .     S
C34    C157    1.528   1_455 S
C34    H159    1.111   1_455 S
C34    H161    1.111   1_455 S
H35    C96     1.111   .     S
H37    C96     1.111   .     S
H38    C157    1.108   1_455 S
C40    H45     1.101   .     S
C40    C130    1.533   1_455 S
C40    C165    1.528   1_455 S
C40    H170    1.108   1_455 S
C41    H42     1.110   .     S
C41    C102    1.528   .     S
C41    H105    1.111   .     S
C41    H106    1.111   .     S
H43    C165    1.111   1_455 S
H44    C165    1.111   1_455 S
H46    C102    1.108   .     S
C47    H52     1.102   .     S
C47    C48     1.527   .     S
C47    H53     1.112   .     S
C48    H50     1.110   .     S
C48    H49     1.110   .     S
C48    H51     1.111   .     S
C54    H60     1.102   .     S
C54    H59     1.112   .     S
C54    C55     1.527   .     S
C55    H56     1.110   .     S
C55    H57     1.110   .     S
C55    H58     1.111   .     S
C63    O87     1.292   .     A
C63    C74     1.422   .     S
C63    O85     1.282   .     A
C64    O88     1.292   .     A
C64    C73     1.422   .     S
C64    O86     1.282   .     A
C65    O91     1.291   .     A
C65    O89     1.273   .     A
C65    C67     1.408   .     S
C66    O92     1.291   .     A
C66    O90     1.273   .     A
C66    C68     1.408   .     S
C68    C129    1.357   .     S
C68    C164    1.533   .     S
C69    C74     1.393   .     A
C69    H79     1.080   .     S
C69    C443    1.376   1_545 S
C70    C73     1.393   .     A
C70    H80     1.080   .     S
C70    C258    1.376   .     S
C71    C109    1.517   .     S
C71    C73     1.411   .     A
C71    C255    1.376   .     S
C72    C74     1.411   .     A
C72    C116    1.517   .     S
C72    C442    1.376   1_545 S
C75    N84     1.356   .     A
C75    H81     1.079   .     S
C75    C1193   1.413   1_554 S
C76    N83     1.356   .     A
C76    H82     1.079   .     S
C76    C636    1.413   .     S
C77    N83     1.382   .     A
C77    I123    2.112   .     S
C77    C633    1.413   .     S
C78    I124    2.112   .     S
C78    N84     1.382   .     A
C78    C1192   1.413   1_554 S
N83    Zn93    2.020   .     S
N84    Zn94    2.020   .     S
O85    Zn93    1.997   .     S
O86    Zn94    1.997   .     S
O87    Zn94    2.004   .     S
O88    Zn93    2.004   .     S
O89    Zn93    1.978   .     S
O90    Zn94    1.978   .     S
O91    Zn94    1.982   .     S
O92    Zn93    1.982   .     S
C95    H101    1.101   .     S
C95    C129    1.533   .     S
C95    C158    1.528   .     S
C95    H162    1.108   .     S
C96    H98     1.110   .     S
H97    C158    1.111   .     S
H99    C158    1.111   .     S
C102   H107    1.101   .     S
C103   H104    1.110   .     S
C103   C164    1.528   .     S
C103   H167    1.111   .     S
C103   H168    1.111   .     S
H108   C164    1.108   .     S
C109   H114    1.102   .     S
C109   C110    1.527   .     S
C109   H115    1.112   .     S
C110   H112    1.110   .     S
C110   H111    1.110   .     S
C110   H113    1.111   .     S
C116   H122    1.102   .     S
C116   H121    1.112   .     S
C116   C117    1.527   .     S
C117   H118    1.110   .     S
C117   H119    1.110   .     S
C117   H120    1.111   .     S
C125   O149    1.292   .     A
C125   C136    1.422   .     S
C125   O147    1.282   .     A
C126   O150    1.292   .     A
C126   C135    1.422   .     S
C126   O148    1.282   .     A
C127   O153    1.291   .     A
C127   O151    1.273   .     A
C127   C129    1.408   .     S
C128   O154    1.291   .     A
C128   O152    1.273   .     A
C128   C130    1.408   .     S
C130   C5      1.357   1_655 S
C130   C40     1.533   1_655 S
C131   C136    1.393   .     A
C131   H141    1.080   .     S
C131   C505    1.376   1_545 S
C132   C135    1.393   .     A
C132   H142    1.080   .     S
C132   C320    1.376   .     S
C133   C171    1.517   .     S
C133   C135    1.411   .     A
C133   C317    1.376   .     S
C134   C136    1.411   .     A
C134   C178    1.517   .     S
C134   C504    1.376   1_545 S
C137   N146    1.356   .     A
C137   H143    1.079   .     S
C137   C1255   1.413   1_554 S
C138   N145    1.356   .     A
C138   H144    1.079   .     S
C138   C698    1.413   .     S
C139   N145    1.382   .     A
C139   I185    2.112   .     S
C139   C695    1.413   .     S
C140   I186    2.112   .     S
C140   N146    1.382   .     A
C140   C1254   1.413   1_554 S
N145   Zn155   2.020   .     S
N146   Zn156   2.020   .     S
O147   Zn155   1.997   .     S
O148   Zn156   1.997   .     S
O149   Zn156   2.004   .     S
O150   Zn155   2.004   .     S
O151   Zn155   1.978   .     S
O152   Zn156   1.978   .     S
O153   Zn156   1.982   .     S
O154   Zn155   1.982   .     S
C157   H163    1.101   .     S
C157   C5      1.533   1_655 S
C157   C34     1.528   1_655 S
C157   H38     1.108   1_655 S
C158   H160    1.110   .     S
H159   C34     1.111   1_655 S
H161   C34     1.111   1_655 S
C164   H169    1.101   .     S
C165   H166    1.110   .     S
C165   C40     1.528   1_655 S
C165   H43     1.111   1_655 S
C165   H44     1.111   1_655 S
H170   C40     1.108   1_655 S
C171   H176    1.102   .     S
C171   C172    1.527   .     S
C171   H177    1.112   .     S
C172   H174    1.110   .     S
C172   H173    1.110   .     S
C172   H175    1.111   .     S
C178   H184    1.102   .     S
C178   H183    1.112   .     S
C178   C179    1.527   .     S
C179   H180    1.110   .     S
C179   H181    1.110   .     S
C179   H182    1.111   .     S
C187   O211    1.292   .     A
C187   C198    1.422   .     S
C187   O209    1.282   .     A
C188   O212    1.292   .     A
C188   C197    1.422   .     S
C188   O210    1.282   .     A
C189   O215    1.291   .     A
C189   O213    1.273   .     A
C189   C191    1.408   .     S
C190   O216    1.291   .     A
C190   O214    1.273   .     A
C190   C192    1.408   .     S
C191   C316    1.357   1_455 S
C191   C343    1.533   1_455 S
C192   C253    1.357   .     S
C192   C288    1.533   .     S
C193   C198    1.393   .     A
C193   H203    1.080   .     S
C194   C197    1.393   .     A
C194   H204    1.080   .     S
C194   C382    1.376   .     S
C195   C233    1.517   .     S
C195   C197    1.411   .     A
C195   C379    1.376   .     S
C196   C198    1.411   .     A
C196   C240    1.517   .     S
C199   N208    1.356   .     A
C199   H205    1.079   .     S
C199   C1317   1.413   1_554 S
C200   N207    1.356   .     A
C200   H206    1.079   .     S
C200   C760    1.413   .     S
C201   N207    1.382   .     A
C201   I247    2.112   .     S
C201   C757    1.413   .     S
C202   I248    2.112   .     S
C202   N208    1.382   .     A
C202   C1316   1.413   1_554 S
N207   Zn217   2.020   .     S
N208   Zn218   2.020   .     S
O209   Zn217   1.997   .     S
O210   Zn218   1.997   .     S
O211   Zn218   2.004   .     S
O212   Zn217   2.004   .     S
O213   Zn217   1.978   .     S
O214   Zn218   1.978   .     S
O215   Zn218   1.982   .     S
O216   Zn217   1.982   .     S
C219   H225    1.101   .     S
C219   C253    1.533   .     S
C219   C282    1.528   .     S
C219   H286    1.108   .     S
C220   H222    1.110   .     S
C220   C343    1.528   1_455 S
C220   H345    1.111   1_455 S
C220   H347    1.111   1_455 S
H221   C282    1.111   .     S
H223   C282    1.111   .     S
H224   C343    1.108   1_455 S
C226   H231    1.101   .     S
C226   C316    1.533   1_455 S
C226   C351    1.528   1_455 S
C226   H356    1.108   1_455 S
C227   H228    1.110   .     S
C227   C288    1.528   .     S
C227   H291    1.111   .     S
C227   H292    1.111   .     S
H229   C351    1.111   1_455 S
H230   C351    1.111   1_455 S
H232   C288    1.108   .     S
C233   H238    1.102   .     S
C233   C234    1.527   .     S
C233   H239    1.112   .     S
C234   H236    1.110   .     S
C234   H235    1.110   .     S
C234   H237    1.111   .     S
C240   H246    1.102   .     S
C240   H245    1.112   .     S
C240   C241    1.527   .     S
C241   H242    1.110   .     S
C241   H243    1.110   .     S
C241   H244    1.111   .     S
C249   O273    1.292   .     A
C249   C260    1.422   .     S
C249   O271    1.282   .     A
C250   O274    1.292   .     A
C250   C259    1.422   .     S
C250   O272    1.282   .     A
C251   O277    1.291   .     A
C251   O275    1.273   .     A
C251   C253    1.408   .     S
C252   O278    1.291   .     A
C252   O276    1.273   .     A
C252   C254    1.408   .     S
C254   C315    1.357   .     S
C254   C350    1.533   .     S
C255   C260    1.393   .     A
C255   H265    1.080   .     S
C256   C259    1.393   .     A
C256   H266    1.080   .     S
C256   C444    1.376   .     S
C257   C295    1.517   .     S
C257   C259    1.411   .     A
C257   C441    1.376   .     S
C258   C260    1.411   .     A
C258   C302    1.517   .     S
C261   N270    1.356   .     A
C261   H267    1.079   .     S
C261   C1379   1.413   1_554 S
C262   N269    1.356   .     A
C262   H268    1.079   .     S
C262   C822    1.413   .     S
C263   N269    1.382   .     A
C263   I309    2.112   .     S
C263   C819    1.413   .     S
C264   I310    2.112   .     S
C264   N270    1.382   .     A
C264   C1378   1.413   1_554 S
N269   Zn279   2.020   .     S
N270   Zn280   2.020   .     S
O271   Zn279   1.997   .     S
O272   Zn280   1.997   .     S
O273   Zn280   2.004   .     S
O274   Zn279   2.004   .     S
O275   Zn279   1.978   .     S
O276   Zn280   1.978   .     S
O277   Zn280   1.982   .     S
O278   Zn279   1.982   .     S
C281   H287    1.101   .     S
C281   C315    1.533   .     S
C281   C344    1.528   .     S
C281   H348    1.108   .     S
C282   H284    1.110   .     S
H283   C344    1.111   .     S
H285   C344    1.111   .     S
C288   H293    1.101   .     S
C289   H290    1.110   .     S
C289   C350    1.528   .     S
C289   H353    1.111   .     S
C289   H354    1.111   .     S
H294   C350    1.108   .     S
C295   H300    1.102   .     S
C295   C296    1.527   .     S
C295   H301    1.112   .     S
C296   H298    1.110   .     S
C296   H297    1.110   .     S
C296   H299    1.111   .     S
C302   H308    1.102   .     S
C302   H307    1.112   .     S
C302   C303    1.527   .     S
C303   H304    1.110   .     S
C303   H305    1.110   .     S
C303   H306    1.111   .     S
C311   O335    1.292   .     A
C311   C322    1.422   .     S
C311   O333    1.282   .     A
C312   O336    1.292   .     A
C312   C321    1.422   .     S
C312   O334    1.282   .     A
C313   O339    1.291   .     A
C313   O337    1.273   .     A
C313   C315    1.408   .     S
C314   O340    1.291   .     A
C314   O338    1.273   .     A
C314   C316    1.408   .     S
C316   C191    1.357   1_655 S
C316   C226    1.533   1_655 S
C317   C322    1.393   .     A
C317   H327    1.080   .     S
C318   C321    1.393   .     A
C318   H328    1.080   .     S
C318   C506    1.376   .     S
C319   C357    1.517   .     S
C319   C321    1.411   .     A
C319   C503    1.376   .     S
C320   C322    1.411   .     A
C320   C364    1.517   .     S
C323   N332    1.356   .     A
C323   H329    1.079   .     S
C323   C1441   1.413   1_554 S
C324   N331    1.356   .     A
C324   H330    1.079   .     S
C324   C884    1.413   .     S
C325   N331    1.382   .     A
C325   I371    2.112   .     S
C325   C881    1.413   .     S
C326   I372    2.112   .     S
C326   N332    1.382   .     A
C326   C1440   1.413   1_554 S
N331   Zn341   2.020   .     S
N332   Zn342   2.020   .     S
O333   Zn341   1.997   .     S
O334   Zn342   1.997   .     S
O335   Zn342   2.004   .     S
O336   Zn341   2.004   .     S
O337   Zn341   1.978   .     S
O338   Zn342   1.978   .     S
O339   Zn342   1.982   .     S
O340   Zn341   1.982   .     S
C343   H349    1.101   .     S
C343   C191    1.533   1_655 S
C343   C220    1.528   1_655 S
C343   H224    1.108   1_655 S
C344   H346    1.110   .     S
H345   C220    1.111   1_655 S
H347   C220    1.111   1_655 S
C350   H355    1.101   .     S
C351   H352    1.110   .     S
C351   C226    1.528   1_655 S
C351   H229    1.111   1_655 S
C351   H230    1.111   1_655 S
H356   C226    1.108   1_655 S
C357   H362    1.102   .     S
C357   C358    1.527   .     S
C357   H363    1.112   .     S
C358   H360    1.110   .     S
C358   H359    1.110   .     S
C358   H361    1.111   .     S
C364   H370    1.102   .     S
C364   H369    1.112   .     S
C364   C365    1.527   .     S
C365   H366    1.110   .     S
C365   H367    1.110   .     S
C365   H368    1.111   .     S
C373   O397    1.292   .     A
C373   C384    1.422   .     S
C373   O395    1.282   .     A
C374   O398    1.292   .     A
C374   C383    1.422   .     S
C374   O396    1.282   .     A
C375   O401    1.291   .     A
C375   O399    1.273   .     A
C375   C377    1.408   .     S
C376   O402    1.291   .     A
C376   O400    1.273   .     A
C376   C378    1.408   .     S
C377   C502    1.357   1_455 S
C377   C529    1.533   1_455 S
C378   C439    1.357   .     S
C378   C474    1.533   .     S
C379   C384    1.393   .     A
C379   H389    1.080   .     S
C380   C383    1.393   .     A
C380   H390    1.080   .     S
C380   C10     1.376   1_565 S
C381   C419    1.517   .     S
C381   C383    1.411   .     A
C381   C7      1.376   1_565 S
C382   C384    1.411   .     A
C382   C426    1.517   .     S
C385   N394    1.356   .     A
C385   H391    1.079   .     S
C385   C1503   1.413   1_554 S
C386   N393    1.356   .     A
C386   H392    1.079   .     S
C386   C946    1.413   .     S
C387   N393    1.382   .     A
C387   I433    2.112   .     S
C387   C943    1.413   .     S
C388   I434    2.112   .     S
C388   N394    1.382   .     A
C388   C1502   1.413   1_554 S
N393   Zn403   2.020   .     S
N394   Zn404   2.020   .     S
O395   Zn403   1.997   .     S
O396   Zn404   1.997   .     S
O397   Zn404   2.004   .     S
O398   Zn403   2.004   .     S
O399   Zn403   1.978   .     S
O400   Zn404   1.978   .     S
O401   Zn404   1.982   .     S
O402   Zn403   1.982   .     S
C405   H411    1.101   .     S
C405   C439    1.533   .     S
C405   C468    1.528   .     S
C405   H472    1.108   .     S
C406   H408    1.110   .     S
C406   C529    1.528   1_455 S
C406   H531    1.111   1_455 S
C406   H533    1.111   1_455 S
H407   C468    1.111   .     S
H409   C468    1.111   .     S
H410   C529    1.108   1_455 S
C412   H417    1.101   .     S
C412   C502    1.533   1_455 S
C412   C537    1.528   1_455 S
C412   H542    1.108   1_455 S
C413   H414    1.110   .     S
C413   C474    1.528   .     S
C413   H477    1.111   .     S
C413   H478    1.111   .     S
H415   C537    1.111   1_455 S
H416   C537    1.111   1_455 S
H418   C474    1.108   .     S
C419   H424    1.102   .     S
C419   C420    1.527   .     S
C419   H425    1.112   .     S
C420   H422    1.110   .     S
C420   H421    1.110   .     S
C420   H423    1.111   .     S
C426   H432    1.102   .     S
C426   H431    1.112   .     S
C426   C427    1.527   .     S
C427   H428    1.110   .     S
C427   H429    1.110   .     S
C427   H430    1.111   .     S
C435   O459    1.292   .     A
C435   C446    1.422   .     S
C435   O457    1.282   .     A
C436   O460    1.292   .     A
C436   C445    1.422   .     S
C436   O458    1.282   .     A
C437   O463    1.291   .     A
C437   O461    1.273   .     A
C437   C439    1.408   .     S
C438   O464    1.291   .     A
C438   O462    1.273   .     A
C438   C440    1.408   .     S
C440   C501    1.357   .     S
C440   C536    1.533   .     S
C441   C446    1.393   .     A
C441   H451    1.080   .     S
C442   C445    1.393   .     A
C442   H452    1.080   .     S
C442   C72     1.376   1_565 S
C443   C481    1.517   .     S
C443   C445    1.411   .     A
C443   C69     1.376   1_565 S
C444   C446    1.411   .     A
C444   C488    1.517   .     S
C447   N456    1.356   .     A
C447   H453    1.079   .     S
C447   C1565   1.413   1_554 S
C448   N455    1.356   .     A
C448   H454    1.079   .     S
C448   C1008   1.413   .     S
C449   N455    1.382   .     A
C449   I495    2.112   .     S
C449   C1005   1.413   .     S
C450   I496    2.112   .     S
C450   N456    1.382   .     A
C450   C1564   1.413   1_554 S
N455   Zn465   2.020   .     S
N456   Zn466   2.020   .     S
O457   Zn465   1.997   .     S
O458   Zn466   1.997   .     S
O459   Zn466   2.004   .     S
O460   Zn465   2.004   .     S
O461   Zn465   1.978   .     S
O462   Zn466   1.978   .     S
O463   Zn466   1.982   .     S
O464   Zn465   1.982   .     S
C467   H473    1.101   .     S
C467   C501    1.533   .     S
C467   C530    1.528   .     S
C467   H534    1.108   .     S
C468   H470    1.110   .     S
H469   C530    1.111   .     S
H471   C530    1.111   .     S
C474   H479    1.101   .     S
C475   H476    1.110   .     S
C475   C536    1.528   .     S
C475   H539    1.111   .     S
C475   H540    1.111   .     S
H480   C536    1.108   .     S
C481   H486    1.102   .     S
C481   C482    1.527   .     S
C481   H487    1.112   .     S
C482   H484    1.110   .     S
C482   H483    1.110   .     S
C482   H485    1.111   .     S
C488   H494    1.102   .     S
C488   H493    1.112   .     S
C488   C489    1.527   .     S
C489   H490    1.110   .     S
C489   H491    1.110   .     S
C489   H492    1.111   .     S
C497   O521    1.292   .     A
C497   C508    1.422   .     S
C497   O519    1.282   .     A
C498   O522    1.292   .     A
C498   C507    1.422   .     S
C498   O520    1.282   .     A
C499   O525    1.291   .     A
C499   O523    1.273   .     A
C499   C501    1.408   .     S
C500   O526    1.291   .     A
C500   O524    1.273   .     A
C500   C502    1.408   .     S
C502   C377    1.357   1_655 S
C502   C412    1.533   1_655 S
C503   C508    1.393   .     A
C503   H513    1.080   .     S
C504   C507    1.393   .     A
C504   H514    1.080   .     S
C504   C134    1.376   1_565 S
C505   C543    1.517   .     S
C505   C507    1.411   .     A
C505   C131    1.376   1_565 S
C506   C508    1.411   .     A
C506   C550    1.517   .     S
C509   N518    1.356   .     A
C509   H515    1.079   .     S
C509   C1627   1.413   1_554 S
C510   N517    1.356   .     A
C510   H516    1.079   .     S
C510   C1070   1.413   .     S
C511   N517    1.382   .     A
C511   I557    2.112   .     S
C511   C1067   1.413   .     S
C512   I558    2.112   .     S
C512   N518    1.382   .     A
C512   C1626   1.413   1_554 S
N517   Zn527   2.020   .     S
N518   Zn528   2.020   .     S
O519   Zn527   1.997   .     S
O520   Zn528   1.997   .     S
O521   Zn528   2.004   .     S
O522   Zn527   2.004   .     S
O523   Zn527   1.978   .     S
O524   Zn528   1.978   .     S
O525   Zn528   1.982   .     S
O526   Zn527   1.982   .     S
C529   H535    1.101   .     S
C529   C377    1.533   1_655 S
C529   C406    1.528   1_655 S
C529   H410    1.108   1_655 S
C530   H532    1.110   .     S
H531   C406    1.111   1_655 S
H533   C406    1.111   1_655 S
C536   H541    1.101   .     S
C537   H538    1.110   .     S
C537   C412    1.528   1_655 S
C537   H415    1.111   1_655 S
C537   H416    1.111   1_655 S
H542   C412    1.108   1_655 S
C543   H548    1.102   .     S
C543   C544    1.527   .     S
C543   H549    1.112   .     S
C544   H546    1.110   .     S
C544   H545    1.110   .     S
C544   H547    1.111   .     S
C550   H556    1.102   .     S
C550   H555    1.112   .     S
C550   C551    1.527   .     S
C551   H552    1.110   .     S
C551   H553    1.110   .     S
C551   H554    1.111   .     S
C559   O583    1.292   .     A
C559   C570    1.422   .     S
C559   O581    1.282   .     A
C560   O584    1.292   .     A
C560   C569    1.422   .     S
C560   O582    1.282   .     A
C561   O587    1.291   .     A
C561   O585    1.273   .     A
C561   C563    1.408   .     S
C562   O588    1.291   .     A
C562   O586    1.273   .     A
C562   C564    1.408   .     S
C563   C688    1.357   1_455 S
C563   C715    1.533   1_455 S
C564   C625    1.357   .     S
C564   C660    1.533   .     S
C565   C570    1.393   .     A
C565   H575    1.080   .     S
C565   C939    1.376   1_545 S
C566   C569    1.393   .     A
C566   H576    1.080   .     S
C566   C754    1.376   .     S
C567   C605    1.517   .     S
C567   C569    1.411   .     A
C567   C751    1.376   .     S
C568   C570    1.411   .     A
C568   C612    1.517   .     S
C568   C938    1.376   1_545 S
C571   N580    1.356   .     A
C571   H577    1.079   .     S
C572   N579    1.356   .     A
C572   H578    1.079   .     S
C572   C1132   1.413   .     S
C573   N579    1.382   .     A
C573   I619    2.112   .     S
C573   C1129   1.413   .     S
C574   I620    2.112   .     S
C574   N580    1.382   .     A
N579   Zn589   2.020   .     S
N580   Zn590   2.020   .     S
O581   Zn589   1.997   .     S
O582   Zn590   1.997   .     S
O583   Zn590   2.004   .     S
O584   Zn589   2.004   .     S
O585   Zn589   1.978   .     S
O586   Zn590   1.978   .     S
O587   Zn590   1.982   .     S
O588   Zn589   1.982   .     S
C591   H597    1.101   .     S
C591   C625    1.533   .     S
C591   C654    1.528   .     S
C591   H658    1.108   .     S
C592   H594    1.110   .     S
C592   C715    1.528   1_455 S
C592   H717    1.111   1_455 S
C592   H719    1.111   1_455 S
H593   C654    1.111   .     S
H595   C654    1.111   .     S
H596   C715    1.108   1_455 S
C598   H603    1.101   .     S
C598   C688    1.533   1_455 S
C598   C723    1.528   1_455 S
C598   H728    1.108   1_455 S
C599   H600    1.110   .     S
C599   C660    1.528   .     S
C599   H663    1.111   .     S
C599   H664    1.111   .     S
H601   C723    1.111   1_455 S
H602   C723    1.111   1_455 S
H604   C660    1.108   .     S
C605   H610    1.102   .     S
C605   C606    1.527   .     S
C605   H611    1.112   .     S
C606   H608    1.110   .     S
C606   H607    1.110   .     S
C606   H609    1.111   .     S
C612   H618    1.102   .     S
C612   H617    1.112   .     S
C612   C613    1.527   .     S
C613   H614    1.110   .     S
C613   H615    1.110   .     S
C613   H616    1.111   .     S
C621   O645    1.292   .     A
C621   C632    1.422   .     S
C621   O643    1.282   .     A
C622   O646    1.292   .     A
C622   C631    1.422   .     S
C622   O644    1.282   .     A
C623   O649    1.291   .     A
C623   O647    1.273   .     A
C623   C625    1.408   .     S
C624   O650    1.291   .     A
C624   O648    1.273   .     A
C624   C626    1.408   .     S
C626   C687    1.357   .     S
C626   C722    1.533   .     S
C627   C632    1.393   .     A
C627   H637    1.080   .     S
C627   C1001   1.376   1_545 S
C628   C631    1.393   .     A
C628   H638    1.080   .     S
C628   C816    1.376   .     S
C629   C667    1.517   .     S
C629   C631    1.411   .     A
C629   C813    1.376   .     S
C630   C632    1.411   .     A
C630   C674    1.517   .     S
C630   C1000   1.376   1_545 S
C633   N642    1.356   .     A
C633   H639    1.079   .     S
C634   N641    1.356   .     A
C634   H640    1.079   .     S
C634   C1194   1.413   .     S
C635   N641    1.382   .     A
C635   I681    2.112   .     S
C635   C1191   1.413   .     S
C636   I682    2.112   .     S
C636   N642    1.382   .     A
N641   Zn651   2.020   .     S
N642   Zn652   2.020   .     S
O643   Zn651   1.997   .     S
O644   Zn652   1.997   .     S
O645   Zn652   2.004   .     S
O646   Zn651   2.004   .     S
O647   Zn651   1.978   .     S
O648   Zn652   1.978   .     S
O649   Zn652   1.982   .     S
O650   Zn651   1.982   .     S
C653   H659    1.101   .     S
C653   C687    1.533   .     S
C653   C716    1.528   .     S
C653   H720    1.108   .     S
C654   H656    1.110   .     S
H655   C716    1.111   .     S
H657   C716    1.111   .     S
C660   H665    1.101   .     S
C661   H662    1.110   .     S
C661   C722    1.528   .     S
C661   H725    1.111   .     S
C661   H726    1.111   .     S
H666   C722    1.108   .     S
C667   H672    1.102   .     S
C667   C668    1.527   .     S
C667   H673    1.112   .     S
C668   H670    1.110   .     S
C668   H669    1.110   .     S
C668   H671    1.111   .     S
C674   H680    1.102   .     S
C674   H679    1.112   .     S
C674   C675    1.527   .     S
C675   H676    1.110   .     S
C675   H677    1.110   .     S
C675   H678    1.111   .     S
C683   O707    1.292   .     A
C683   C694    1.422   .     S
C683   O705    1.282   .     A
C684   O708    1.292   .     A
C684   C693    1.422   .     S
C684   O706    1.282   .     A
C685   O711    1.291   .     A
C685   O709    1.273   .     A
C685   C687    1.408   .     S
C686   O712    1.291   .     A
C686   O710    1.273   .     A
C686   C688    1.408   .     S
C688   C563    1.357   1_655 S
C688   C598    1.533   1_655 S
C689   C694    1.393   .     A
C689   H699    1.080   .     S
C689   C1063   1.376   1_545 S
C690   C693    1.393   .     A
C690   H700    1.080   .     S
C690   C878    1.376   .     S
C691   C729    1.517   .     S
C691   C693    1.411   .     A
C691   C875    1.376   .     S
C692   C694    1.411   .     A
C692   C736    1.517   .     S
C692   C1062   1.376   1_545 S
C695   N704    1.356   .     A
C695   H701    1.079   .     S
C696   N703    1.356   .     A
C696   H702    1.079   .     S
C696   C1256   1.413   .     S
C697   N703    1.382   .     A
C697   I743    2.112   .     S
C697   C1253   1.413   .     S
C698   I744    2.112   .     S
C698   N704    1.382   .     A
N703   Zn713   2.020   .     S
N704   Zn714   2.020   .     S
O705   Zn713   1.997   .     S
O706   Zn714   1.997   .     S
O707   Zn714   2.004   .     S
O708   Zn713   2.004   .     S
O709   Zn713   1.978   .     S
O710   Zn714   1.978   .     S
O711   Zn714   1.982   .     S
O712   Zn713   1.982   .     S
C715   H721    1.101   .     S
C715   C563    1.533   1_655 S
C715   C592    1.528   1_655 S
C715   H596    1.108   1_655 S
C716   H718    1.110   .     S
H717   C592    1.111   1_655 S
H719   C592    1.111   1_655 S
C722   H727    1.101   .     S
C723   H724    1.110   .     S
C723   C598    1.528   1_655 S
C723   H601    1.111   1_655 S
C723   H602    1.111   1_655 S
H728   C598    1.108   1_655 S
C729   H734    1.102   .     S
C729   C730    1.527   .     S
C729   H735    1.112   .     S
C730   H732    1.110   .     S
C730   H731    1.110   .     S
C730   H733    1.111   .     S
C736   H742    1.102   .     S
C736   H741    1.112   .     S
C736   C737    1.527   .     S
C737   H738    1.110   .     S
C737   H739    1.110   .     S
C737   H740    1.111   .     S
C745   O769    1.292   .     A
C745   C756    1.422   .     S
C745   O767    1.282   .     A
C746   O770    1.292   .     A
C746   C755    1.422   .     S
C746   O768    1.282   .     A
C747   O773    1.291   .     A
C747   O771    1.273   .     A
C747   C749    1.408   .     S
C748   O774    1.291   .     A
C748   O772    1.273   .     A
C748   C750    1.408   .     S
C749   C874    1.357   1_455 S
C749   C901    1.533   1_455 S
C750   C811    1.357   .     S
C750   C846    1.533   .     S
C751   C756    1.393   .     A
C751   H761    1.080   .     S
C752   C755    1.393   .     A
C752   H762    1.080   .     S
C752   C940    1.376   .     S
C753   C791    1.517   .     S
C753   C755    1.411   .     A
C753   C937    1.376   .     S
C754   C756    1.411   .     A
C754   C798    1.517   .     S
C757   N766    1.356   .     A
C757   H763    1.079   .     S
C758   N765    1.356   .     A
C758   H764    1.079   .     S
C758   C1318   1.413   .     S
C759   N765    1.382   .     A
C759   I805    2.112   .     S
C759   C1315   1.413   .     S
C760   I806    2.112   .     S
C760   N766    1.382   .     A
N765   Zn775   2.020   .     S
N766   Zn776   2.020   .     S
O767   Zn775   1.997   .     S
O768   Zn776   1.997   .     S
O769   Zn776   2.004   .     S
O770   Zn775   2.004   .     S
O771   Zn775   1.978   .     S
O772   Zn776   1.978   .     S
O773   Zn776   1.982   .     S
O774   Zn775   1.982   .     S
C777   H783    1.101   .     S
C777   C811    1.533   .     S
C777   C840    1.528   .     S
C777   H844    1.108   .     S
C778   H780    1.110   .     S
C778   C901    1.528   1_455 S
C778   H903    1.111   1_455 S
C778   H905    1.111   1_455 S
H779   C840    1.111   .     S
H781   C840    1.111   .     S
H782   C901    1.108   1_455 S
C784   H789    1.101   .     S
C784   C874    1.533   1_455 S
C784   C909    1.528   1_455 S
C784   H914    1.108   1_455 S
C785   H786    1.110   .     S
C785   C846    1.528   .     S
C785   H849    1.111   .     S
C785   H850    1.111   .     S
H787   C909    1.111   1_455 S
H788   C909    1.111   1_455 S
H790   C846    1.108   .     S
C791   H796    1.102   .     S
C791   C792    1.527   .     S
C791   H797    1.112   .     S
C792   H794    1.110   .     S
C792   H793    1.110   .     S
C792   H795    1.111   .     S
C798   H804    1.102   .     S
C798   H803    1.112   .     S
C798   C799    1.527   .     S
C799   H800    1.110   .     S
C799   H801    1.110   .     S
C799   H802    1.111   .     S
C807   O831    1.292   .     A
C807   C818    1.422   .     S
C807   O829    1.282   .     A
C808   O832    1.292   .     A
C808   C817    1.422   .     S
C808   O830    1.282   .     A
C809   O835    1.291   .     A
C809   O833    1.273   .     A
C809   C811    1.408   .     S
C810   O836    1.291   .     A
C810   O834    1.273   .     A
C810   C812    1.408   .     S
C812   C873    1.357   .     S
C812   C908    1.533   .     S
C813   C818    1.393   .     A
C813   H823    1.080   .     S
C814   C817    1.393   .     A
C814   H824    1.080   .     S
C814   C1002   1.376   .     S
C815   C853    1.517   .     S
C815   C817    1.411   .     A
C815   C999    1.376   .     S
C816   C818    1.411   .     A
C816   C860    1.517   .     S
C819   N828    1.356   .     A
C819   H825    1.079   .     S
C820   N827    1.356   .     A
C820   H826    1.079   .     S
C820   C1380   1.413   .     S
C821   N827    1.382   .     A
C821   I867    2.112   .     S
C821   C1377   1.413   .     S
C822   I868    2.112   .     S
C822   N828    1.382   .     A
N827   Zn837   2.020   .     S
N828   Zn838   2.020   .     S
O829   Zn837   1.997   .     S
O830   Zn838   1.997   .     S
O831   Zn838   2.004   .     S
O832   Zn837   2.004   .     S
O833   Zn837   1.978   .     S
O834   Zn838   1.978   .     S
O835   Zn838   1.982   .     S
O836   Zn837   1.982   .     S
C839   H845    1.101   .     S
C839   C873    1.533   .     S
C839   C902    1.528   .     S
C839   H906    1.108   .     S
C840   H842    1.110   .     S
H841   C902    1.111   .     S
H843   C902    1.111   .     S
C846   H851    1.101   .     S
C847   H848    1.110   .     S
C847   C908    1.528   .     S
C847   H911    1.111   .     S
C847   H912    1.111   .     S
H852   C908    1.108   .     S
C853   H858    1.102   .     S
C853   C854    1.527   .     S
C853   H859    1.112   .     S
C854   H856    1.110   .     S
C854   H855    1.110   .     S
C854   H857    1.111   .     S
C860   H866    1.102   .     S
C860   H865    1.112   .     S
C860   C861    1.527   .     S
C861   H862    1.110   .     S
C861   H863    1.110   .     S
C861   H864    1.111   .     S
C869   O893    1.292   .     A
C869   C880    1.422   .     S
C869   O891    1.282   .     A
C870   O894    1.292   .     A
C870   C879    1.422   .     S
C870   O892    1.282   .     A
C871   O897    1.291   .     A
C871   O895    1.273   .     A
C871   C873    1.408   .     S
C872   O898    1.291   .     A
C872   O896    1.273   .     A
C872   C874    1.408   .     S
C874   C749    1.357   1_655 S
C874   C784    1.533   1_655 S
C875   C880    1.393   .     A
C875   H885    1.080   .     S
C876   C879    1.393   .     A
C876   H886    1.080   .     S
C876   C1064   1.376   .     S
C877   C915    1.517   .     S
C877   C879    1.411   .     A
C877   C1061   1.376   .     S
C878   C880    1.411   .     A
C878   C922    1.517   .     S
C881   N890    1.356   .     A
C881   H887    1.079   .     S
C882   N889    1.356   .     A
C882   H888    1.079   .     S
C882   C1442   1.413   .     S
C883   N889    1.382   .     A
C883   I929    2.112   .     S
C883   C1439   1.413   .     S
C884   I930    2.112   .     S
C884   N890    1.382   .     A
N889   Zn899   2.020   .     S
N890   Zn900   2.020   .     S
O891   Zn899   1.997   .     S
O892   Zn900   1.997   .     S
O893   Zn900   2.004   .     S
O894   Zn899   2.004   .     S
O895   Zn899   1.978   .     S
O896   Zn900   1.978   .     S
O897   Zn900   1.982   .     S
O898   Zn899   1.982   .     S
C901   H907    1.101   .     S
C901   C749    1.533   1_655 S
C901   C778    1.528   1_655 S
C901   H782    1.108   1_655 S
C902   H904    1.110   .     S
H903   C778    1.111   1_655 S
H905   C778    1.111   1_655 S
C908   H913    1.101   .     S
C909   H910    1.110   .     S
C909   C784    1.528   1_655 S
C909   H787    1.111   1_655 S
C909   H788    1.111   1_655 S
H914   C784    1.108   1_655 S
C915   H920    1.102   .     S
C915   C916    1.527   .     S
C915   H921    1.112   .     S
C916   H918    1.110   .     S
C916   H917    1.110   .     S
C916   H919    1.111   .     S
C922   H928    1.102   .     S
C922   H927    1.112   .     S
C922   C923    1.527   .     S
C923   H924    1.110   .     S
C923   H925    1.110   .     S
C923   H926    1.111   .     S
C931   O955    1.292   .     A
C931   C942    1.422   .     S
C931   O953    1.282   .     A
C932   O956    1.292   .     A
C932   C941    1.422   .     S
C932   O954    1.282   .     A
C933   O959    1.291   .     A
C933   O957    1.273   .     A
C933   C935    1.408   .     S
C934   O960    1.291   .     A
C934   O958    1.273   .     A
C934   C936    1.408   .     S
C935   C1060   1.357   1_455 S
C935   C1087   1.533   1_455 S
C936   C997    1.357   .     S
C936   C1032   1.533   .     S
C937   C942    1.393   .     A
C937   H947    1.080   .     S
C938   C941    1.393   .     A
C938   H948    1.080   .     S
C938   C568    1.376   1_565 S
C939   C977    1.517   .     S
C939   C941    1.411   .     A
C939   C565    1.376   1_565 S
C940   C942    1.411   .     A
C940   C984    1.517   .     S
C943   N952    1.356   .     A
C943   H949    1.079   .     S
C944   N951    1.356   .     A
C944   H950    1.079   .     S
C944   C1504   1.413   .     S
C945   N951    1.382   .     A
C945   I991    2.112   .     S
C945   C1501   1.413   .     S
C946   I992    2.112   .     S
C946   N952    1.382   .     A
N951   Zn961   2.020   .     S
N952   Zn962   2.020   .     S
O953   Zn961   1.997   .     S
O954   Zn962   1.997   .     S
O955   Zn962   2.004   .     S
O956   Zn961   2.004   .     S
O957   Zn961   1.978   .     S
O958   Zn962   1.978   .     S
O959   Zn962   1.982   .     S
O960   Zn961   1.982   .     S
C963   H969    1.101   .     S
C963   C997    1.533   .     S
C963   C1026   1.528   .     S
C963   H1030   1.108   .     S
C964   H966    1.110   .     S
C964   C1087   1.528   1_455 S
C964   H1089   1.111   1_455 S
C964   H1091   1.111   1_455 S
H965   C1026   1.111   .     S
H967   C1026   1.111   .     S
H968   C1087   1.108   1_455 S
C970   H975    1.101   .     S
C970   C1060   1.533   1_455 S
C970   C1095   1.528   1_455 S
C970   H1100   1.108   1_455 S
C971   H972    1.110   .     S
C971   C1032   1.528   .     S
C971   H1035   1.111   .     S
C971   H1036   1.111   .     S
H973   C1095   1.111   1_455 S
H974   C1095   1.111   1_455 S
H976   C1032   1.108   .     S
C977   H982    1.102   .     S
C977   C978    1.527   .     S
C977   H983    1.112   .     S
C978   H980    1.110   .     S
C978   H979    1.110   .     S
C978   H981    1.111   .     S
C984   H990    1.102   .     S
C984   H989    1.112   .     S
C984   C985    1.527   .     S
C985   H986    1.110   .     S
C985   H987    1.110   .     S
C985   H988    1.111   .     S
C993   O1017   1.292   .     A
C993   C1004   1.422   .     S
C993   O1015   1.282   .     A
C994   O1018   1.292   .     A
C994   C1003   1.422   .     S
C994   O1016   1.282   .     A
C995   O1021   1.291   .     A
C995   O1019   1.273   .     A
C995   C997    1.408   .     S
C996   O1022   1.291   .     A
C996   O1020   1.273   .     A
C996   C998    1.408   .     S
C998   C1059   1.357   .     S
C998   C1094   1.533   .     S
C999   C1004   1.393   .     A
C999   H1009   1.080   .     S
C1000  C1003   1.393   .     A
C1000  H1010   1.080   .     S
C1000  C630    1.376   1_565 S
C1001  C1039   1.517   .     S
C1001  C1003   1.411   .     A
C1001  C627    1.376   1_565 S
C1002  C1004   1.411   .     A
C1002  C1046   1.517   .     S
C1005  N1014   1.356   .     A
C1005  H1011   1.079   .     S
C1006  N1013   1.356   .     A
C1006  H1012   1.079   .     S
C1006  C1566   1.413   .     S
C1007  N1013   1.382   .     A
C1007  I1053   2.112   .     S
C1007  C1563   1.413   .     S
C1008  I1054   2.112   .     S
C1008  N1014   1.382   .     A
N1013  Zn1023  2.020   .     S
N1014  Zn1024  2.020   .     S
O1015  Zn1023  1.997   .     S
O1016  Zn1024  1.997   .     S
O1017  Zn1024  2.004   .     S
O1018  Zn1023  2.004   .     S
O1019  Zn1023  1.978   .     S
O1020  Zn1024  1.978   .     S
O1021  Zn1024  1.982   .     S
O1022  Zn1023  1.982   .     S
C1025  H1031   1.101   .     S
C1025  C1059   1.533   .     S
C1025  C1088   1.528   .     S
C1025  H1092   1.108   .     S
C1026  H1028   1.110   .     S
H1027  C1088   1.111   .     S
H1029  C1088   1.111   .     S
C1032  H1037   1.101   .     S
C1033  H1034   1.110   .     S
C1033  C1094   1.528   .     S
C1033  H1097   1.111   .     S
C1033  H1098   1.111   .     S
H1038  C1094   1.108   .     S
C1039  H1044   1.102   .     S
C1039  C1040   1.527   .     S
C1039  H1045   1.112   .     S
C1040  H1042   1.110   .     S
C1040  H1041   1.110   .     S
C1040  H1043   1.111   .     S
C1046  H1052   1.102   .     S
C1046  H1051   1.112   .     S
C1046  C1047   1.527   .     S
C1047  H1048   1.110   .     S
C1047  H1049   1.110   .     S
C1047  H1050   1.111   .     S
C1055  O1079   1.292   .     A
C1055  C1066   1.422   .     S
C1055  O1077   1.282   .     A
C1056  O1080   1.292   .     A
C1056  C1065   1.422   .     S
C1056  O1078   1.282   .     A
C1057  O1083   1.291   .     A
C1057  O1081   1.273   .     A
C1057  C1059   1.408   .     S
C1058  O1084   1.291   .     A
C1058  O1082   1.273   .     A
C1058  C1060   1.408   .     S
C1060  C935    1.357   1_655 S
C1060  C970    1.533   1_655 S
C1061  C1066   1.393   .     A
C1061  H1071   1.080   .     S
C1062  C1065   1.393   .     A
C1062  H1072   1.080   .     S
C1062  C692    1.376   1_565 S
C1063  C1101   1.517   .     S
C1063  C1065   1.411   .     A
C1063  C689    1.376   1_565 S
C1064  C1066   1.411   .     A
C1064  C1108   1.517   .     S
C1067  N1076   1.356   .     A
C1067  H1073   1.079   .     S
C1068  N1075   1.356   .     A
C1068  H1074   1.079   .     S
C1068  C1628   1.413   .     S
C1069  N1075   1.382   .     A
C1069  I1115   2.112   .     S
C1069  C1625   1.413   .     S
C1070  I1116   2.112   .     S
C1070  N1076   1.382   .     A
N1075  Zn1085  2.020   .     S
N1076  Zn1086  2.020   .     S
O1077  Zn1085  1.997   .     S
O1078  Zn1086  1.997   .     S
O1079  Zn1086  2.004   .     S
O1080  Zn1085  2.004   .     S
O1081  Zn1085  1.978   .     S
O1082  Zn1086  1.978   .     S
O1083  Zn1086  1.982   .     S
O1084  Zn1085  1.982   .     S
C1087  H1093   1.101   .     S
C1087  C935    1.533   1_655 S
C1087  C964    1.528   1_655 S
C1087  H968    1.108   1_655 S
C1088  H1090   1.110   .     S
H1089  C964    1.111   1_655 S
H1091  C964    1.111   1_655 S
C1094  H1099   1.101   .     S
C1095  H1096   1.110   .     S
C1095  C970    1.528   1_655 S
C1095  H973    1.111   1_655 S
C1095  H974    1.111   1_655 S
H1100  C970    1.108   1_655 S
C1101  H1106   1.102   .     S
C1101  C1102   1.527   .     S
C1101  H1107   1.112   .     S
C1102  H1104   1.110   .     S
C1102  H1103   1.110   .     S
C1102  H1105   1.111   .     S
C1108  H1114   1.102   .     S
C1108  H1113   1.112   .     S
C1108  C1109   1.527   .     S
C1109  H1110   1.110   .     S
C1109  H1111   1.110   .     S
C1109  H1112   1.111   .     S
C1117  O1141   1.292   .     A
C1117  C1128   1.422   .     S
C1117  O1139   1.282   .     A
C1118  O1142   1.292   .     A
C1118  C1127   1.422   .     S
C1118  O1140   1.282   .     A
C1119  O1145   1.291   .     A
C1119  O1143   1.273   .     A
C1119  C1121   1.408   .     S
C1120  O1146   1.291   .     A
C1120  O1144   1.273   .     A
C1120  C1122   1.408   .     S
C1121  C1246   1.357   1_455 S
C1121  C1273   1.533   1_455 S
C1122  C1183   1.357   .     S
C1122  C1218   1.533   .     S
C1123  C1128   1.393   .     A
C1123  H1133   1.080   .     S
C1123  C1497   1.376   1_545 S
C1124  C1127   1.393   .     A
C1124  H1134   1.080   .     S
C1124  C1312   1.376   .     S
C1125  C1163   1.517   .     S
C1125  C1127   1.411   .     A
C1125  C1309   1.376   .     S
C1126  C1128   1.411   .     A
C1126  C1170   1.517   .     S
C1126  C1496   1.376   1_545 S
C1129  N1138   1.356   .     A
C1129  H1135   1.079   .     S
C1130  N1137   1.356   .     A
C1130  H1136   1.079   .     S
C1130  C16     1.413   1_556 S
C1131  N1137   1.382   .     A
C1131  I1177   2.112   .     S
C1131  C13     1.413   1_556 S
C1132  I1178   2.112   .     S
C1132  N1138   1.382   .     A
N1137  Zn1147  2.020   .     S
N1138  Zn1148  2.020   .     S
O1139  Zn1147  1.997   .     S
O1140  Zn1148  1.997   .     S
O1141  Zn1148  2.004   .     S
O1142  Zn1147  2.004   .     S
O1143  Zn1147  1.978   .     S
O1144  Zn1148  1.978   .     S
O1145  Zn1148  1.982   .     S
O1146  Zn1147  1.982   .     S
C1149  H1155   1.101   .     S
C1149  C1183   1.533   .     S
C1149  C1212   1.528   .     S
C1149  H1216   1.108   .     S
C1150  H1152   1.110   .     S
C1150  C1273   1.528   1_455 S
C1150  H1275   1.111   1_455 S
C1150  H1277   1.111   1_455 S
H1151  C1212   1.111   .     S
H1153  C1212   1.111   .     S
H1154  C1273   1.108   1_455 S
C1156  H1161   1.101   .     S
C1156  C1246   1.533   1_455 S
C1156  C1281   1.528   1_455 S
C1156  H1286   1.108   1_455 S
C1157  H1158   1.110   .     S
C1157  C1218   1.528   .     S
C1157  H1221   1.111   .     S
C1157  H1222   1.111   .     S
H1159  C1281   1.111   1_455 S
H1160  C1281   1.111   1_455 S
H1162  C1218   1.108   .     S
C1163  H1168   1.102   .     S
C1163  C1164   1.527   .     S
C1163  H1169   1.112   .     S
C1164  H1166   1.110   .     S
C1164  H1165   1.110   .     S
C1164  H1167   1.111   .     S
C1170  H1176   1.102   .     S
C1170  H1175   1.112   .     S
C1170  C1171   1.527   .     S
C1171  H1172   1.110   .     S
C1171  H1173   1.110   .     S
C1171  H1174   1.111   .     S
C1179  O1203   1.292   .     A
C1179  C1190   1.422   .     S
C1179  O1201   1.282   .     A
C1180  O1204   1.292   .     A
C1180  C1189   1.422   .     S
C1180  O1202   1.282   .     A
C1181  O1207   1.291   .     A
C1181  O1205   1.273   .     A
C1181  C1183   1.408   .     S
C1182  O1208   1.291   .     A
C1182  O1206   1.273   .     A
C1182  C1184   1.408   .     S
C1184  C1245   1.357   .     S
C1184  C1280   1.533   .     S
C1185  C1190   1.393   .     A
C1185  H1195   1.080   .     S
C1185  C1559   1.376   1_545 S
C1186  C1189   1.393   .     A
C1186  H1196   1.080   .     S
C1186  C1374   1.376   .     S
C1187  C1225   1.517   .     S
C1187  C1189   1.411   .     A
C1187  C1371   1.376   .     S
C1188  C1190   1.411   .     A
C1188  C1232   1.517   .     S
C1188  C1558   1.376   1_545 S
C1191  N1200   1.356   .     A
C1191  H1197   1.079   .     S
C1192  N1199   1.356   .     A
C1192  H1198   1.079   .     S
C1192  C78     1.413   1_556 S
C1193  N1199   1.382   .     A
C1193  I1239   2.112   .     S
C1193  C75     1.413   1_556 S
C1194  I1240   2.112   .     S
C1194  N1200   1.382   .     A
N1199  Zn1209  2.020   .     S
N1200  Zn1210  2.020   .     S
O1201  Zn1209  1.997   .     S
O1202  Zn1210  1.997   .     S
O1203  Zn1210  2.004   .     S
O1204  Zn1209  2.004   .     S
O1205  Zn1209  1.978   .     S
O1206  Zn1210  1.978   .     S
O1207  Zn1210  1.982   .     S
O1208  Zn1209  1.982   .     S
C1211  H1217   1.101   .     S
C1211  C1245   1.533   .     S
C1211  C1274   1.528   .     S
C1211  H1278   1.108   .     S
C1212  H1214   1.110   .     S
H1213  C1274   1.111   .     S
H1215  C1274   1.111   .     S
C1218  H1223   1.101   .     S
C1219  H1220   1.110   .     S
C1219  C1280   1.528   .     S
C1219  H1283   1.111   .     S
C1219  H1284   1.111   .     S
H1224  C1280   1.108   .     S
C1225  H1230   1.102   .     S
C1225  C1226   1.527   .     S
C1225  H1231   1.112   .     S
C1226  H1228   1.110   .     S
C1226  H1227   1.110   .     S
C1226  H1229   1.111   .     S
C1232  H1238   1.102   .     S
C1232  H1237   1.112   .     S
C1232  C1233   1.527   .     S
C1233  H1234   1.110   .     S
C1233  H1235   1.110   .     S
C1233  H1236   1.111   .     S
C1241  O1265   1.292   .     A
C1241  C1252   1.422   .     S
C1241  O1263   1.282   .     A
C1242  O1266   1.292   .     A
C1242  C1251   1.422   .     S
C1242  O1264   1.282   .     A
C1243  O1269   1.291   .     A
C1243  O1267   1.273   .     A
C1243  C1245   1.408   .     S
C1244  O1270   1.291   .     A
C1244  O1268   1.273   .     A
C1244  C1246   1.408   .     S
C1246  C1121   1.357   1_655 S
C1246  C1156   1.533   1_655 S
C1247  C1252   1.393   .     A
C1247  H1257   1.080   .     S
C1247  C1621   1.376   1_545 S
C1248  C1251   1.393   .     A
C1248  H1258   1.080   .     S
C1248  C1436   1.376   .     S
C1249  C1287   1.517   .     S
C1249  C1251   1.411   .     A
C1249  C1433   1.376   .     S
C1250  C1252   1.411   .     A
C1250  C1294   1.517   .     S
C1250  C1620   1.376   1_545 S
C1253  N1262   1.356   .     A
C1253  H1259   1.079   .     S
C1254  N1261   1.356   .     A
C1254  H1260   1.079   .     S
C1254  C140    1.413   1_556 S
C1255  N1261   1.382   .     A
C1255  I1301   2.112   .     S
C1255  C137    1.413   1_556 S
C1256  I1302   2.112   .     S
C1256  N1262   1.382   .     A
N1261  Zn1271  2.020   .     S
N1262  Zn1272  2.020   .     S
O1263  Zn1271  1.997   .     S
O1264  Zn1272  1.997   .     S
O1265  Zn1272  2.004   .     S
O1266  Zn1271  2.004   .     S
O1267  Zn1271  1.978   .     S
O1268  Zn1272  1.978   .     S
O1269  Zn1272  1.982   .     S
O1270  Zn1271  1.982   .     S
C1273  H1279   1.101   .     S
C1273  C1121   1.533   1_655 S
C1273  C1150   1.528   1_655 S
C1273  H1154   1.108   1_655 S
C1274  H1276   1.110   .     S
H1275  C1150   1.111   1_655 S
H1277  C1150   1.111   1_655 S
C1280  H1285   1.101   .     S
C1281  H1282   1.110   .     S
C1281  C1156   1.528   1_655 S
C1281  H1159   1.111   1_655 S
C1281  H1160   1.111   1_655 S
H1286  C1156   1.108   1_655 S
C1287  H1292   1.102   .     S
C1287  C1288   1.527   .     S
C1287  H1293   1.112   .     S
C1288  H1290   1.110   .     S
C1288  H1289   1.110   .     S
C1288  H1291   1.111   .     S
C1294  H1300   1.102   .     S
C1294  H1299   1.112   .     S
C1294  C1295   1.527   .     S
C1295  H1296   1.110   .     S
C1295  H1297   1.110   .     S
C1295  H1298   1.111   .     S
C1303  O1327   1.292   .     A
C1303  C1314   1.422   .     S
C1303  O1325   1.282   .     A
C1304  O1328   1.292   .     A
C1304  C1313   1.422   .     S
C1304  O1326   1.282   .     A
C1305  O1331   1.291   .     A
C1305  O1329   1.273   .     A
C1305  C1307   1.408   .     S
C1306  O1332   1.291   .     A
C1306  O1330   1.273   .     A
C1306  C1308   1.408   .     S
C1307  C1432   1.357   1_455 S
C1307  C1459   1.533   1_455 S
C1308  C1369   1.357   .     S
C1308  C1404   1.533   .     S
C1309  C1314   1.393   .     A
C1309  H1319   1.080   .     S
C1310  C1313   1.393   .     A
C1310  H1320   1.080   .     S
C1310  C1498   1.376   .     S
C1311  C1349   1.517   .     S
C1311  C1313   1.411   .     A
C1311  C1495   1.376   .     S
C1312  C1314   1.411   .     A
C1312  C1356   1.517   .     S
C1315  N1324   1.356   .     A
C1315  H1321   1.079   .     S
C1316  N1323   1.356   .     A
C1316  H1322   1.079   .     S
C1316  C202    1.413   1_556 S
C1317  N1323   1.382   .     A
C1317  I1363   2.112   .     S
C1317  C199    1.413   1_556 S
C1318  I1364   2.112   .     S
C1318  N1324   1.382   .     A
N1323  Zn1333  2.020   .     S
N1324  Zn1334  2.020   .     S
O1325  Zn1333  1.997   .     S
O1326  Zn1334  1.997   .     S
O1327  Zn1334  2.004   .     S
O1328  Zn1333  2.004   .     S
O1329  Zn1333  1.978   .     S
O1330  Zn1334  1.978   .     S
O1331  Zn1334  1.982   .     S
O1332  Zn1333  1.982   .     S
C1335  H1341   1.101   .     S
C1335  C1369   1.533   .     S
C1335  C1398   1.528   .     S
C1335  H1402   1.108   .     S
C1336  H1338   1.110   .     S
C1336  C1459   1.528   1_455 S
C1336  H1461   1.111   1_455 S
C1336  H1463   1.111   1_455 S
H1337  C1398   1.111   .     S
H1339  C1398   1.111   .     S
H1340  C1459   1.108   1_455 S
C1342  H1347   1.101   .     S
C1342  C1432   1.533   1_455 S
C1342  C1467   1.528   1_455 S
C1342  H1472   1.108   1_455 S
C1343  H1344   1.110   .     S
C1343  C1404   1.528   .     S
C1343  H1407   1.111   .     S
C1343  H1408   1.111   .     S
H1345  C1467   1.111   1_455 S
H1346  C1467   1.111   1_455 S
H1348  C1404   1.108   .     S
C1349  H1354   1.102   .     S
C1349  C1350   1.527   .     S
C1349  H1355   1.112   .     S
C1350  H1352   1.110   .     S
C1350  H1351   1.110   .     S
C1350  H1353   1.111   .     S
C1356  H1362   1.102   .     S
C1356  H1361   1.112   .     S
C1356  C1357   1.527   .     S
C1357  H1358   1.110   .     S
C1357  H1359   1.110   .     S
C1357  H1360   1.111   .     S
C1365  O1389   1.292   .     A
C1365  C1376   1.422   .     S
C1365  O1387   1.282   .     A
C1366  O1390   1.292   .     A
C1366  C1375   1.422   .     S
C1366  O1388   1.282   .     A
C1367  O1393   1.291   .     A
C1367  O1391   1.273   .     A
C1367  C1369   1.408   .     S
C1368  O1394   1.291   .     A
C1368  O1392   1.273   .     A
C1368  C1370   1.408   .     S
C1370  C1431   1.357   .     S
C1370  C1466   1.533   .     S
C1371  C1376   1.393   .     A
C1371  H1381   1.080   .     S
C1372  C1375   1.393   .     A
C1372  H1382   1.080   .     S
C1372  C1560   1.376   .     S
C1373  C1411   1.517   .     S
C1373  C1375   1.411   .     A
C1373  C1557   1.376   .     S
C1374  C1376   1.411   .     A
C1374  C1418   1.517   .     S
C1377  N1386   1.356   .     A
C1377  H1383   1.079   .     S
C1378  N1385   1.356   .     A
C1378  H1384   1.079   .     S
C1378  C264    1.413   1_556 S
C1379  N1385   1.382   .     A
C1379  I1425   2.112   .     S
C1379  C261    1.413   1_556 S
C1380  I1426   2.112   .     S
C1380  N1386   1.382   .     A
N1385  Zn1395  2.020   .     S
N1386  Zn1396  2.020   .     S
O1387  Zn1395  1.997   .     S
O1388  Zn1396  1.997   .     S
O1389  Zn1396  2.004   .     S
O1390  Zn1395  2.004   .     S
O1391  Zn1395  1.978   .     S
O1392  Zn1396  1.978   .     S
O1393  Zn1396  1.982   .     S
O1394  Zn1395  1.982   .     S
C1397  H1403   1.101   .     S
C1397  C1431   1.533   .     S
C1397  C1460   1.528   .     S
C1397  H1464   1.108   .     S
C1398  H1400   1.110   .     S
H1399  C1460   1.111   .     S
H1401  C1460   1.111   .     S
C1404  H1409   1.101   .     S
C1405  H1406   1.110   .     S
C1405  C1466   1.528   .     S
C1405  H1469   1.111   .     S
C1405  H1470   1.111   .     S
H1410  C1466   1.108   .     S
C1411  H1416   1.102   .     S
C1411  C1412   1.527   .     S
C1411  H1417   1.112   .     S
C1412  H1414   1.110   .     S
C1412  H1413   1.110   .     S
C1412  H1415   1.111   .     S
C1418  H1424   1.102   .     S
C1418  H1423   1.112   .     S
C1418  C1419   1.527   .     S
C1419  H1420   1.110   .     S
C1419  H1421   1.110   .     S
C1419  H1422   1.111   .     S
C1427  O1451   1.292   .     A
C1427  C1438   1.422   .     S
C1427  O1449   1.282   .     A
C1428  O1452   1.292   .     A
C1428  C1437   1.422   .     S
C1428  O1450   1.282   .     A
C1429  O1455   1.291   .     A
C1429  O1453   1.273   .     A
C1429  C1431   1.408   .     S
C1430  O1456   1.291   .     A
C1430  O1454   1.273   .     A
C1430  C1432   1.408   .     S
C1432  C1307   1.357   1_655 S
C1432  C1342   1.533   1_655 S
C1433  C1438   1.393   .     A
C1433  H1443   1.080   .     S
C1434  C1437   1.393   .     A
C1434  H1444   1.080   .     S
C1434  C1622   1.376   .     S
C1435  C1473   1.517   .     S
C1435  C1437   1.411   .     A
C1435  C1619   1.376   .     S
C1436  C1438   1.411   .     A
C1436  C1480   1.517   .     S
C1439  N1448   1.356   .     A
C1439  H1445   1.079   .     S
C1440  N1447   1.356   .     A
C1440  H1446   1.079   .     S
C1440  C326    1.413   1_556 S
C1441  N1447   1.382   .     A
C1441  I1487   2.112   .     S
C1441  C323    1.413   1_556 S
C1442  I1488   2.112   .     S
C1442  N1448   1.382   .     A
N1447  Zn1457  2.020   .     S
N1448  Zn1458  2.020   .     S
O1449  Zn1457  1.997   .     S
O1450  Zn1458  1.997   .     S
O1451  Zn1458  2.004   .     S
O1452  Zn1457  2.004   .     S
O1453  Zn1457  1.978   .     S
O1454  Zn1458  1.978   .     S
O1455  Zn1458  1.982   .     S
O1456  Zn1457  1.982   .     S
C1459  H1465   1.101   .     S
C1459  C1307   1.533   1_655 S
C1459  C1336   1.528   1_655 S
C1459  H1340   1.108   1_655 S
C1460  H1462   1.110   .     S
H1461  C1336   1.111   1_655 S
H1463  C1336   1.111   1_655 S
C1466  H1471   1.101   .     S
C1467  H1468   1.110   .     S
C1467  C1342   1.528   1_655 S
C1467  H1345   1.111   1_655 S
C1467  H1346   1.111   1_655 S
H1472  C1342   1.108   1_655 S
C1473  H1478   1.102   .     S
C1473  C1474   1.527   .     S
C1473  H1479   1.112   .     S
C1474  H1476   1.110   .     S
C1474  H1475   1.110   .     S
C1474  H1477   1.111   .     S
C1480  H1486   1.102   .     S
C1480  H1485   1.112   .     S
C1480  C1481   1.527   .     S
C1481  H1482   1.110   .     S
C1481  H1483   1.110   .     S
C1481  H1484   1.111   .     S
C1489  O1513   1.292   .     A
C1489  C1500   1.422   .     S
C1489  O1511   1.282   .     A
C1490  O1514   1.292   .     A
C1490  C1499   1.422   .     S
C1490  O1512   1.282   .     A
C1491  O1517   1.291   .     A
C1491  O1515   1.273   .     A
C1491  C1493   1.408   .     S
C1492  O1518   1.291   .     A
C1492  O1516   1.273   .     A
C1492  C1494   1.408   .     S
C1493  C1618   1.357   1_455 S
C1493  C1645   1.533   1_455 S
C1494  C1555   1.357   .     S
C1494  C1590   1.533   .     S
C1495  C1500   1.393   .     A
C1495  H1505   1.080   .     S
C1496  C1499   1.393   .     A
C1496  H1506   1.080   .     S
C1496  C1126   1.376   1_565 S
C1497  C1535   1.517   .     S
C1497  C1499   1.411   .     A
C1497  C1123   1.376   1_565 S
C1498  C1500   1.411   .     A
C1498  C1542   1.517   .     S
C1501  N1510   1.356   .     A
C1501  H1507   1.079   .     S
C1502  N1509   1.356   .     A
C1502  H1508   1.079   .     S
C1502  C388    1.413   1_556 S
C1503  N1509   1.382   .     A
C1503  I1549   2.112   .     S
C1503  C385    1.413   1_556 S
C1504  I1550   2.112   .     S
C1504  N1510   1.382   .     A
N1509  Zn1519  2.020   .     S
N1510  Zn1520  2.020   .     S
O1511  Zn1519  1.997   .     S
O1512  Zn1520  1.997   .     S
O1513  Zn1520  2.004   .     S
O1514  Zn1519  2.004   .     S
O1515  Zn1519  1.978   .     S
O1516  Zn1520  1.978   .     S
O1517  Zn1520  1.982   .     S
O1518  Zn1519  1.982   .     S
C1521  H1527   1.101   .     S
C1521  C1555   1.533   .     S
C1521  C1584   1.528   .     S
C1521  H1588   1.108   .     S
C1522  H1524   1.110   .     S
C1522  C1645   1.528   1_455 S
C1522  H1647   1.111   1_455 S
C1522  H1649   1.111   1_455 S
H1523  C1584   1.111   .     S
H1525  C1584   1.111   .     S
H1526  C1645   1.108   1_455 S
C1528  H1533   1.101   .     S
C1528  C1618   1.533   1_455 S
C1528  C1653   1.528   1_455 S
C1528  H1658   1.108   1_455 S
C1529  H1530   1.110   .     S
C1529  C1590   1.528   .     S
C1529  H1593   1.111   .     S
C1529  H1594   1.111   .     S
H1531  C1653   1.111   1_455 S
H1532  C1653   1.111   1_455 S
H1534  C1590   1.108   .     S
C1535  H1540   1.102   .     S
C1535  C1536   1.527   .     S
C1535  H1541   1.112   .     S
C1536  H1538   1.110   .     S
C1536  H1537   1.110   .     S
C1536  H1539   1.111   .     S
C1542  H1548   1.102   .     S
C1542  H1547   1.112   .     S
C1542  C1543   1.527   .     S
C1543  H1544   1.110   .     S
C1543  H1545   1.110   .     S
C1543  H1546   1.111   .     S
C1551  O1575   1.292   .     A
C1551  C1562   1.422   .     S
C1551  O1573   1.282   .     A
C1552  O1576   1.292   .     A
C1552  C1561   1.422   .     S
C1552  O1574   1.282   .     A
C1553  O1579   1.291   .     A
C1553  O1577   1.273   .     A
C1553  C1555   1.408   .     S
C1554  O1580   1.291   .     A
C1554  O1578   1.273   .     A
C1554  C1556   1.408   .     S
C1556  C1617   1.357   .     S
C1556  C1652   1.533   .     S
C1557  C1562   1.393   .     A
C1557  H1567   1.080   .     S
C1558  C1561   1.393   .     A
C1558  H1568   1.080   .     S
C1558  C1188   1.376   1_565 S
C1559  C1597   1.517   .     S
C1559  C1561   1.411   .     A
C1559  C1185   1.376   1_565 S
C1560  C1562   1.411   .     A
C1560  C1604   1.517   .     S
C1563  N1572   1.356   .     A
C1563  H1569   1.079   .     S
C1564  N1571   1.356   .     A
C1564  H1570   1.079   .     S
C1564  C450    1.413   1_556 S
C1565  N1571   1.382   .     A
C1565  I1611   2.112   .     S
C1565  C447    1.413   1_556 S
C1566  I1612   2.112   .     S
C1566  N1572   1.382   .     A
N1571  Zn1581  2.020   .     S
N1572  Zn1582  2.020   .     S
O1573  Zn1581  1.997   .     S
O1574  Zn1582  1.997   .     S
O1575  Zn1582  2.004   .     S
O1576  Zn1581  2.004   .     S
O1577  Zn1581  1.978   .     S
O1578  Zn1582  1.978   .     S
O1579  Zn1582  1.982   .     S
O1580  Zn1581  1.982   .     S
C1583  H1589   1.101   .     S
C1583  C1617   1.533   .     S
C1583  C1646   1.528   .     S
C1583  H1650   1.108   .     S
C1584  H1586   1.110   .     S
H1585  C1646   1.111   .     S
H1587  C1646   1.111   .     S
C1590  H1595   1.101   .     S
C1591  H1592   1.110   .     S
C1591  C1652   1.528   .     S
C1591  H1655   1.111   .     S
C1591  H1656   1.111   .     S
H1596  C1652   1.108   .     S
C1597  H1602   1.102   .     S
C1597  C1598   1.527   .     S
C1597  H1603   1.112   .     S
C1598  H1600   1.110   .     S
C1598  H1599   1.110   .     S
C1598  H1601   1.111   .     S
C1604  H1610   1.102   .     S
C1604  H1609   1.112   .     S
C1604  C1605   1.527   .     S
C1605  H1606   1.110   .     S
C1605  H1607   1.110   .     S
C1605  H1608   1.111   .     S
C1613  O1637   1.292   .     A
C1613  C1624   1.422   .     S
C1613  O1635   1.282   .     A
C1614  O1638   1.292   .     A
C1614  C1623   1.422   .     S
C1614  O1636   1.282   .     A
C1615  O1641   1.291   .     A
C1615  O1639   1.273   .     A
C1615  C1617   1.408   .     S
C1616  O1642   1.291   .     A
C1616  O1640   1.273   .     A
C1616  C1618   1.408   .     S
C1618  C1493   1.357   1_655 S
C1618  C1528   1.533   1_655 S
C1619  C1624   1.393   .     A
C1619  H1629   1.080   .     S
C1620  C1623   1.393   .     A
C1620  H1630   1.080   .     S
C1620  C1250   1.376   1_565 S
C1621  C1659   1.517   .     S
C1621  C1623   1.411   .     A
C1621  C1247   1.376   1_565 S
C1622  C1624   1.411   .     A
C1622  C1666   1.517   .     S
C1625  N1634   1.356   .     A
C1625  H1631   1.079   .     S
C1626  N1633   1.356   .     A
C1626  H1632   1.079   .     S
C1626  C512    1.413   1_556 S
C1627  N1633   1.382   .     A
C1627  I1673   2.112   .     S
C1627  C509    1.413   1_556 S
C1628  I1674   2.112   .     S
C1628  N1634   1.382   .     A
N1633  Zn1643  2.020   .     S
N1634  Zn1644  2.020   .     S
O1635  Zn1643  1.997   .     S
O1636  Zn1644  1.997   .     S
O1637  Zn1644  2.004   .     S
O1638  Zn1643  2.004   .     S
O1639  Zn1643  1.978   .     S
O1640  Zn1644  1.978   .     S
O1641  Zn1644  1.982   .     S
O1642  Zn1643  1.982   .     S
C1645  H1651   1.101   .     S
C1645  C1493   1.533   1_655 S
C1645  C1522   1.528   1_655 S
C1645  H1526   1.108   1_655 S
C1646  H1648   1.110   .     S
H1647  C1522   1.111   1_655 S
H1649  C1522   1.111   1_655 S
C1652  H1657   1.101   .     S
C1653  H1654   1.110   .     S
C1653  C1528   1.528   1_655 S
C1653  H1531   1.111   1_655 S
C1653  H1532   1.111   1_655 S
H1658  C1528   1.108   1_655 S
C1659  H1664   1.102   .     S
C1659  C1660   1.527   .     S
C1659  H1665   1.112   .     S
C1660  H1662   1.110   .     S
C1660  H1661   1.110   .     S
C1660  H1663   1.111   .     S
C1666  H1672   1.102   .     S
C1666  H1671   1.112   .     S
C1666  C1667   1.527   .     S
C1667  H1668   1.110   .     S
C1667  H1669   1.110   .     S
C1667  H1670   1.111   .     S
