data_str_m3_o1_o17_pcu_sym.125
_audit_creation_date              2020-01-03
_audit_creation_method            'Materials Studio'
_symmetry_space_group_name_H-M    'P1'
_symmetry_Int_Tables_number       1
_symmetry_cell_setting            triclinic
loop_
_symmetry_equiv_pos_as_xyz
  x,y,z
_cell_length_a                    32.1686
_cell_length_b                    29.7458
_cell_length_c                    30.0131
_cell_angle_alpha                 90.2044
_cell_angle_beta                  91.7608
_cell_angle_gamma                 90.0337
loop_
_atom_site_label
_atom_site_type_symbol
_atom_site_fract_x
_atom_site_fract_y
_atom_site_fract_z
_atom_site_U_iso_or_equiv
_atom_site_adp_type
_atom_site_occupancy
C1     C     0.08670   0.16666   0.25002   0.00000  Uiso   1.00
C2     C     0.24664   0.16667   0.24998   0.00000  Uiso   1.00
C3     C     0.14920   0.08697   0.02273   0.00000  Uiso   1.00
C4     C     0.18413   0.24637   0.47727   0.00000  Uiso   1.00
C5     C     0.02128   0.12568   0.25086   0.00000  Uiso   1.00
C6     C     0.31205   0.20765   0.24914   0.00000  Uiso   1.00
C7     C     0.31205   0.12569   0.25067   0.00000  Uiso   1.00
C8     C     0.02128   0.20765   0.24933   0.00000  Uiso   1.00
C9     C     0.29083   0.16667   0.24990   0.00000  Uiso   1.00
C10    C     0.04250   0.16666   0.25010   0.00000  Uiso   1.00
C11    C     0.19294   0.02404   0.27820   0.00000  Uiso   1.00
C12    C     0.14039   0.30929   0.22180   0.00000  Uiso   1.00
C13    C     0.14031   0.02379   0.22190   0.00000  Uiso   1.00
C14    C     0.19302   0.30955   0.27810   0.00000  Uiso   1.00
C15    C     0.16678   0.16661   0.16338   0.00000  Uiso   1.00
C16    C     0.16656   0.16672   0.33661   0.00000  Uiso   1.00
C17    C     0.17456   0.20652   0.40790   0.00000  Uiso   1.00
C18    C     0.15877   0.12681   0.09210   0.00000  Uiso   1.00
C19    C     0.16623   0.16674   0.38457   0.00000  Uiso   1.00
C20    C     0.16710   0.16659   0.11543   0.00000  Uiso   1.00
C21    C     0.15769   0.12684   0.40694   0.00000  Uiso   1.00
C22    C     0.17565   0.20649   0.09306   0.00000  Uiso   1.00
C23    C     0.15754   0.12615   0.45319   0.00000  Uiso   1.00
C24    C     0.17579   0.20718   0.04681   0.00000  Uiso   1.00
C25    C     0.16647   0.16652   0.47679   0.00000  Uiso   1.00
C26    C     0.16686   0.16682   0.02321   0.00000  Uiso   1.00
C27    C     0.17504   0.20666   0.45394   0.00000  Uiso   1.00
C28    C     0.15830   0.12668   0.04606   0.00000  Uiso   1.00
C29    C     0.14876   0.08635   0.47644   0.00000  Uiso   1.00
C30    C     0.18457   0.24699   0.02356   0.00000  Uiso   1.00
H31    H     0.18102   0.23738   0.39032   0.00000  Uiso   1.00
H32    H     0.15232   0.09595   0.10968   0.00000  Uiso   1.00
H33    H     0.15097   0.09657   0.38800   0.00000  Uiso   1.00
H34    H     0.18237   0.23677   0.11200   0.00000  Uiso   1.00
H35    H     0.14228   0.05635   0.04053   0.00000  Uiso   1.00
H36    H     0.19106   0.27698   0.45947   0.00000  Uiso   1.00
H37    H     0.03738   0.09371   0.25163   0.00000  Uiso   1.00
H38    H     0.29595   0.23963   0.24837   0.00000  Uiso   1.00
H39    H     0.29595   0.09371   0.25114   0.00000  Uiso   1.00
H40    H     0.03738   0.23963   0.24886   0.00000  Uiso   1.00
N41    N     0.16667   0.28573   0.25000   0.00000  Uiso   1.00
N42    N     0.16667   0.04760   0.25000   0.00000  Uiso   1.00
O43    O     0.10559   0.20487   0.24999   0.00000  Uiso   1.00
O44    O     0.22774   0.12846   0.25000   0.00000  Uiso   1.00
O45    O     0.22774   0.20487   0.25000   0.00000  Uiso   1.00
O46    O     0.10559   0.12846   0.24999   0.00000  Uiso   1.00
O47    O     0.16666   0.20489   0.18392   0.00000  Uiso   1.00
O48    O     0.16667   0.12844   0.31607   0.00000  Uiso   1.00
O49    O     0.16667   0.20489   0.31607   0.00000  Uiso   1.00
O50    O     0.16666   0.12844   0.18392   0.00000  Uiso   1.00
Zn51   Zn    0.16667   0.21771   0.25000   0.00000  Uiso   1.00
Zn52   Zn    0.16667   0.11563   0.25000   0.00000  Uiso   1.00
Br53   Br    0.13569   0.03020   0.44726   0.00000  Uiso   1.00
Br54   Br    0.19764   0.30314   0.05274   0.00000  Uiso   1.00
Br55   Br    0.23009   0.05555   0.31879   0.00000  Uiso   1.00
Br56   Br    0.10325   0.27778   0.18121   0.00000  Uiso   1.00
Br57   Br    0.10234   0.05493   0.18222   0.00000  Uiso   1.00
Br58   Br    0.23099   0.27841   0.31778   0.00000  Uiso   1.00
C59    C     0.42003   0.16666   0.25002   0.00000  Uiso   1.00
C60    C     0.57997   0.16667   0.24998   0.00000  Uiso   1.00
C61    C     0.48254   0.08697   0.02273   0.00000  Uiso   1.00
C62    C     0.51746   0.24637   0.47727   0.00000  Uiso   1.00
C63    C     0.35462   0.12568   0.25086   0.00000  Uiso   1.00
C64    C     0.64538   0.20765   0.24914   0.00000  Uiso   1.00
C65    C     0.64538   0.12569   0.25067   0.00000  Uiso   1.00
C66    C     0.35462   0.20765   0.24933   0.00000  Uiso   1.00
C67    C     0.62416   0.16667   0.24990   0.00000  Uiso   1.00
C68    C     0.37584   0.16666   0.25010   0.00000  Uiso   1.00
C69    C     0.52627   0.02404   0.27820   0.00000  Uiso   1.00
C70    C     0.47373   0.30929   0.22180   0.00000  Uiso   1.00
C71    C     0.47364   0.02379   0.22190   0.00000  Uiso   1.00
C72    C     0.52636   0.30955   0.27810   0.00000  Uiso   1.00
C73    C     0.50011   0.16661   0.16338   0.00000  Uiso   1.00
C74    C     0.49989   0.16672   0.33661   0.00000  Uiso   1.00
C75    C     0.50790   0.20652   0.40790   0.00000  Uiso   1.00
C76    C     0.49210   0.12681   0.09210   0.00000  Uiso   1.00
C77    C     0.49957   0.16674   0.38457   0.00000  Uiso   1.00
C78    C     0.50043   0.16659   0.11543   0.00000  Uiso   1.00
C79    C     0.49102   0.12684   0.40694   0.00000  Uiso   1.00
C80    C     0.50898   0.20649   0.09306   0.00000  Uiso   1.00
C81    C     0.49088   0.12615   0.45319   0.00000  Uiso   1.00
C82    C     0.50912   0.20718   0.04681   0.00000  Uiso   1.00
C83    C     0.49981   0.16652   0.47679   0.00000  Uiso   1.00
C84    C     0.50019   0.16682   0.02321   0.00000  Uiso   1.00
C85    C     0.50837   0.20666   0.45394   0.00000  Uiso   1.00
C86    C     0.49163   0.12668   0.04606   0.00000  Uiso   1.00
C87    C     0.48209   0.08635   0.47644   0.00000  Uiso   1.00
C88    C     0.51791   0.24699   0.02356   0.00000  Uiso   1.00
H89    H     0.51435   0.23738   0.39032   0.00000  Uiso   1.00
H90    H     0.48565   0.09595   0.10968   0.00000  Uiso   1.00
H91    H     0.48430   0.09657   0.38800   0.00000  Uiso   1.00
H92    H     0.51570   0.23677   0.11200   0.00000  Uiso   1.00
H93    H     0.47561   0.05635   0.04053   0.00000  Uiso   1.00
H94    H     0.52439   0.27698   0.45947   0.00000  Uiso   1.00
H95    H     0.37072   0.09371   0.25163   0.00000  Uiso   1.00
H96    H     0.62928   0.23963   0.24837   0.00000  Uiso   1.00
H97    H     0.62929   0.09371   0.25114   0.00000  Uiso   1.00
H98    H     0.37071   0.23963   0.24886   0.00000  Uiso   1.00
N99    N     0.50000   0.28573   0.25000   0.00000  Uiso   1.00
N100   N     0.50000   0.04760   0.25000   0.00000  Uiso   1.00
O101   O     0.43892   0.20487   0.24999   0.00000  Uiso   1.00
O102   O     0.56108   0.12846   0.25000   0.00000  Uiso   1.00
O103   O     0.56108   0.20487   0.25000   0.00000  Uiso   1.00
O104   O     0.43892   0.12846   0.24999   0.00000  Uiso   1.00
O105   O     0.49999   0.20489   0.18392   0.00000  Uiso   1.00
O106   O     0.50001   0.12844   0.31607   0.00000  Uiso   1.00
O107   O     0.50001   0.20489   0.31607   0.00000  Uiso   1.00
O108   O     0.49999   0.12844   0.18392   0.00000  Uiso   1.00
Zn109  Zn    0.50000   0.21771   0.25000   0.00000  Uiso   1.00
Zn110  Zn    0.50000   0.11563   0.25000   0.00000  Uiso   1.00
Br111  Br    0.46903   0.03020   0.44726   0.00000  Uiso   1.00
Br112  Br    0.53097   0.30314   0.05274   0.00000  Uiso   1.00
Br113  Br    0.56342   0.05555   0.31879   0.00000  Uiso   1.00
Br114  Br    0.43658   0.27778   0.18121   0.00000  Uiso   1.00
Br115  Br    0.43568   0.05493   0.18222   0.00000  Uiso   1.00
Br116  Br    0.56432   0.27841   0.31778   0.00000  Uiso   1.00
C117   C     0.75336   0.16666   0.25002   0.00000  Uiso   1.00
C118   C     0.91330   0.16667   0.24998   0.00000  Uiso   1.00
C119   C     0.81587   0.08697   0.02273   0.00000  Uiso   1.00
C120   C     0.85080   0.24637   0.47727   0.00000  Uiso   1.00
C121   C     0.68795   0.12568   0.25086   0.00000  Uiso   1.00
C122   C     0.97871   0.20765   0.24914   0.00000  Uiso   1.00
C123   C     0.97872   0.12569   0.25067   0.00000  Uiso   1.00
C124   C     0.68795   0.20765   0.24933   0.00000  Uiso   1.00
C125   C     0.95750   0.16667   0.24990   0.00000  Uiso   1.00
C126   C     0.70917   0.16666   0.25010   0.00000  Uiso   1.00
C127   C     0.85961   0.02404   0.27820   0.00000  Uiso   1.00
C128   C     0.80706   0.30929   0.22180   0.00000  Uiso   1.00
C129   C     0.80697   0.02379   0.22190   0.00000  Uiso   1.00
C130   C     0.85969   0.30955   0.27810   0.00000  Uiso   1.00
C131   C     0.83344   0.16661   0.16338   0.00000  Uiso   1.00
C132   C     0.83322   0.16672   0.33661   0.00000  Uiso   1.00
C133   C     0.84123   0.20652   0.40790   0.00000  Uiso   1.00
C134   C     0.82544   0.12681   0.09210   0.00000  Uiso   1.00
C135   C     0.83290   0.16674   0.38457   0.00000  Uiso   1.00
C136   C     0.83377   0.16659   0.11543   0.00000  Uiso   1.00
C137   C     0.82435   0.12684   0.40694   0.00000  Uiso   1.00
C138   C     0.84231   0.20649   0.09306   0.00000  Uiso   1.00
C139   C     0.82421   0.12615   0.45319   0.00000  Uiso   1.00
C140   C     0.84246   0.20718   0.04681   0.00000  Uiso   1.00
C141   C     0.83314   0.16652   0.47679   0.00000  Uiso   1.00
C142   C     0.83352   0.16682   0.02321   0.00000  Uiso   1.00
C143   C     0.84170   0.20666   0.45394   0.00000  Uiso   1.00
C144   C     0.82496   0.12668   0.04606   0.00000  Uiso   1.00
C145   C     0.81543   0.08635   0.47644   0.00000  Uiso   1.00
C146   C     0.85124   0.24699   0.02356   0.00000  Uiso   1.00
H147   H     0.84768   0.23738   0.39032   0.00000  Uiso   1.00
H148   H     0.81898   0.09595   0.10968   0.00000  Uiso   1.00
H149   H     0.81763   0.09657   0.38800   0.00000  Uiso   1.00
H150   H     0.84903   0.23677   0.11200   0.00000  Uiso   1.00
H151   H     0.80894   0.05635   0.04053   0.00000  Uiso   1.00
H152   H     0.85772   0.27698   0.45947   0.00000  Uiso   1.00
H153   H     0.70405   0.09371   0.25163   0.00000  Uiso   1.00
H154   H     0.96262   0.23963   0.24837   0.00000  Uiso   1.00
H155   H     0.96262   0.09371   0.25114   0.00000  Uiso   1.00
H156   H     0.70405   0.23963   0.24886   0.00000  Uiso   1.00
N157   N     0.83333   0.28573   0.25000   0.00000  Uiso   1.00
N158   N     0.83333   0.04760   0.25000   0.00000  Uiso   1.00
O159   O     0.77226   0.20487   0.24999   0.00000  Uiso   1.00
O160   O     0.89441   0.12846   0.25000   0.00000  Uiso   1.00
O161   O     0.89441   0.20487   0.25000   0.00000  Uiso   1.00
O162   O     0.77226   0.12846   0.24999   0.00000  Uiso   1.00
O163   O     0.83333   0.20489   0.18392   0.00000  Uiso   1.00
O164   O     0.83334   0.12844   0.31607   0.00000  Uiso   1.00
O165   O     0.83334   0.20489   0.31607   0.00000  Uiso   1.00
O166   O     0.83333   0.12844   0.18392   0.00000  Uiso   1.00
Zn167  Zn    0.83333   0.21771   0.25000   0.00000  Uiso   1.00
Zn168  Zn    0.83333   0.11563   0.25000   0.00000  Uiso   1.00
Br169  Br    0.80236   0.03020   0.44726   0.00000  Uiso   1.00
Br170  Br    0.86431   0.30314   0.05274   0.00000  Uiso   1.00
Br171  Br    0.89675   0.05555   0.31879   0.00000  Uiso   1.00
Br172  Br    0.76991   0.27778   0.18121   0.00000  Uiso   1.00
Br173  Br    0.76901   0.05493   0.18222   0.00000  Uiso   1.00
Br174  Br    0.89766   0.27841   0.31778   0.00000  Uiso   1.00
C175   C     0.08670   0.49999   0.25002   0.00000  Uiso   1.00
C176   C     0.24664   0.50001   0.24998   0.00000  Uiso   1.00
C177   C     0.14920   0.42030   0.02273   0.00000  Uiso   1.00
C178   C     0.18413   0.57970   0.47727   0.00000  Uiso   1.00
C179   C     0.02128   0.45902   0.25086   0.00000  Uiso   1.00
C180   C     0.31205   0.54098   0.24914   0.00000  Uiso   1.00
C181   C     0.31205   0.45902   0.25067   0.00000  Uiso   1.00
C182   C     0.02128   0.54098   0.24933   0.00000  Uiso   1.00
C183   C     0.29083   0.50001   0.24990   0.00000  Uiso   1.00
C184   C     0.04250   0.49999   0.25010   0.00000  Uiso   1.00
C185   C     0.19294   0.35737   0.27820   0.00000  Uiso   1.00
C186   C     0.14039   0.64263   0.22180   0.00000  Uiso   1.00
C187   C     0.14031   0.35712   0.22190   0.00000  Uiso   1.00
C188   C     0.19302   0.64288   0.27810   0.00000  Uiso   1.00
C189   C     0.16678   0.49994   0.16338   0.00000  Uiso   1.00
C190   C     0.16656   0.50006   0.33661   0.00000  Uiso   1.00
C191   C     0.17456   0.53986   0.40790   0.00000  Uiso   1.00
C192   C     0.15877   0.46014   0.09210   0.00000  Uiso   1.00
C193   C     0.16623   0.50008   0.38457   0.00000  Uiso   1.00
C194   C     0.16710   0.49993   0.11543   0.00000  Uiso   1.00
C195   C     0.15769   0.46017   0.40694   0.00000  Uiso   1.00
C196   C     0.17565   0.53983   0.09306   0.00000  Uiso   1.00
C197   C     0.15754   0.45949   0.45319   0.00000  Uiso   1.00
C198   C     0.17579   0.54051   0.04681   0.00000  Uiso   1.00
C199   C     0.16647   0.49985   0.47679   0.00000  Uiso   1.00
C200   C     0.16686   0.50015   0.02321   0.00000  Uiso   1.00
C201   C     0.17504   0.53999   0.45394   0.00000  Uiso   1.00
C202   C     0.15830   0.46001   0.04606   0.00000  Uiso   1.00
C203   C     0.14876   0.41968   0.47644   0.00000  Uiso   1.00
C204   C     0.18457   0.58032   0.02356   0.00000  Uiso   1.00
H205   H     0.18102   0.57071   0.39032   0.00000  Uiso   1.00
H206   H     0.15232   0.42929   0.10968   0.00000  Uiso   1.00
H207   H     0.15097   0.42990   0.38800   0.00000  Uiso   1.00
H208   H     0.18237   0.57010   0.11200   0.00000  Uiso   1.00
H209   H     0.14228   0.38969   0.04053   0.00000  Uiso   1.00
H210   H     0.19106   0.61031   0.45947   0.00000  Uiso   1.00
H211   H     0.03738   0.42704   0.25163   0.00000  Uiso   1.00
H212   H     0.29595   0.57296   0.24837   0.00000  Uiso   1.00
H213   H     0.29595   0.42704   0.25114   0.00000  Uiso   1.00
H214   H     0.03738   0.57296   0.24886   0.00000  Uiso   1.00
N215   N     0.16667   0.61907   0.25000   0.00000  Uiso   1.00
N216   N     0.16667   0.38093   0.25000   0.00000  Uiso   1.00
O217   O     0.10559   0.53821   0.24999   0.00000  Uiso   1.00
O218   O     0.22774   0.46179   0.25000   0.00000  Uiso   1.00
O219   O     0.22774   0.53821   0.25000   0.00000  Uiso   1.00
O220   O     0.10559   0.46179   0.24999   0.00000  Uiso   1.00
O221   O     0.16666   0.53823   0.18392   0.00000  Uiso   1.00
O222   O     0.16667   0.46177   0.31607   0.00000  Uiso   1.00
O223   O     0.16667   0.53823   0.31607   0.00000  Uiso   1.00
O224   O     0.16666   0.46177   0.18392   0.00000  Uiso   1.00
Zn225  Zn    0.16667   0.55104   0.25000   0.00000  Uiso   1.00
Zn226  Zn    0.16667   0.44896   0.25000   0.00000  Uiso   1.00
Br227  Br    0.13569   0.36353   0.44726   0.00000  Uiso   1.00
Br228  Br    0.19764   0.63647   0.05274   0.00000  Uiso   1.00
Br229  Br    0.23009   0.38888   0.31879   0.00000  Uiso   1.00
Br230  Br    0.10325   0.61112   0.18121   0.00000  Uiso   1.00
Br231  Br    0.10234   0.38826   0.18222   0.00000  Uiso   1.00
Br232  Br    0.23099   0.61174   0.31778   0.00000  Uiso   1.00
C233   C     0.42003   0.49999   0.25002   0.00000  Uiso   1.00
C234   C     0.57997   0.50001   0.24998   0.00000  Uiso   1.00
C235   C     0.48254   0.42030   0.02273   0.00000  Uiso   1.00
C236   C     0.51746   0.57970   0.47727   0.00000  Uiso   1.00
C237   C     0.35462   0.45902   0.25086   0.00000  Uiso   1.00
C238   C     0.64538   0.54098   0.24914   0.00000  Uiso   1.00
C239   C     0.64538   0.45902   0.25067   0.00000  Uiso   1.00
C240   C     0.35462   0.54098   0.24933   0.00000  Uiso   1.00
C241   C     0.62416   0.50001   0.24990   0.00000  Uiso   1.00
C242   C     0.37584   0.49999   0.25010   0.00000  Uiso   1.00
C243   C     0.52627   0.35737   0.27820   0.00000  Uiso   1.00
C244   C     0.47373   0.64263   0.22180   0.00000  Uiso   1.00
C245   C     0.47364   0.35712   0.22190   0.00000  Uiso   1.00
C246   C     0.52636   0.64288   0.27810   0.00000  Uiso   1.00
C247   C     0.50011   0.49994   0.16338   0.00000  Uiso   1.00
C248   C     0.49989   0.50006   0.33661   0.00000  Uiso   1.00
C249   C     0.50790   0.53986   0.40790   0.00000  Uiso   1.00
C250   C     0.49210   0.46014   0.09210   0.00000  Uiso   1.00
C251   C     0.49957   0.50008   0.38457   0.00000  Uiso   1.00
C252   C     0.50043   0.49993   0.11543   0.00000  Uiso   1.00
C253   C     0.49102   0.46017   0.40694   0.00000  Uiso   1.00
C254   C     0.50898   0.53983   0.09306   0.00000  Uiso   1.00
C255   C     0.49088   0.45949   0.45319   0.00000  Uiso   1.00
C256   C     0.50912   0.54051   0.04681   0.00000  Uiso   1.00
C257   C     0.49981   0.49985   0.47679   0.00000  Uiso   1.00
C258   C     0.50019   0.50015   0.02321   0.00000  Uiso   1.00
C259   C     0.50837   0.53999   0.45394   0.00000  Uiso   1.00
C260   C     0.49163   0.46001   0.04606   0.00000  Uiso   1.00
C261   C     0.48209   0.41968   0.47644   0.00000  Uiso   1.00
C262   C     0.51791   0.58032   0.02356   0.00000  Uiso   1.00
H263   H     0.51435   0.57071   0.39032   0.00000  Uiso   1.00
H264   H     0.48565   0.42929   0.10968   0.00000  Uiso   1.00
H265   H     0.48430   0.42990   0.38800   0.00000  Uiso   1.00
H266   H     0.51570   0.57010   0.11200   0.00000  Uiso   1.00
H267   H     0.47561   0.38969   0.04053   0.00000  Uiso   1.00
H268   H     0.52439   0.61031   0.45947   0.00000  Uiso   1.00
H269   H     0.37072   0.42704   0.25163   0.00000  Uiso   1.00
H270   H     0.62928   0.57296   0.24837   0.00000  Uiso   1.00
H271   H     0.62929   0.42704   0.25114   0.00000  Uiso   1.00
H272   H     0.37071   0.57296   0.24886   0.00000  Uiso   1.00
N273   N     0.50000   0.61907   0.25000   0.00000  Uiso   1.00
N274   N     0.50000   0.38093   0.25000   0.00000  Uiso   1.00
O275   O     0.43892   0.53821   0.24999   0.00000  Uiso   1.00
O276   O     0.56108   0.46179   0.25000   0.00000  Uiso   1.00
O277   O     0.56108   0.53821   0.25000   0.00000  Uiso   1.00
O278   O     0.43892   0.46179   0.24999   0.00000  Uiso   1.00
O279   O     0.49999   0.53823   0.18392   0.00000  Uiso   1.00
O280   O     0.50001   0.46177   0.31607   0.00000  Uiso   1.00
O281   O     0.50001   0.53823   0.31607   0.00000  Uiso   1.00
O282   O     0.49999   0.46177   0.18392   0.00000  Uiso   1.00
Zn283  Zn    0.50000   0.55104   0.25000   0.00000  Uiso   1.00
Zn284  Zn    0.50000   0.44896   0.25000   0.00000  Uiso   1.00
Br285  Br    0.46903   0.36353   0.44726   0.00000  Uiso   1.00
Br286  Br    0.53097   0.63647   0.05274   0.00000  Uiso   1.00
Br287  Br    0.56342   0.38888   0.31879   0.00000  Uiso   1.00
Br288  Br    0.43658   0.61112   0.18121   0.00000  Uiso   1.00
Br289  Br    0.43568   0.38826   0.18222   0.00000  Uiso   1.00
Br290  Br    0.56432   0.61174   0.31778   0.00000  Uiso   1.00
C291   C     0.75336   0.49999   0.25002   0.00000  Uiso   1.00
C292   C     0.91330   0.50001   0.24998   0.00000  Uiso   1.00
C293   C     0.81587   0.42030   0.02273   0.00000  Uiso   1.00
C294   C     0.85080   0.57970   0.47727   0.00000  Uiso   1.00
C295   C     0.68795   0.45902   0.25086   0.00000  Uiso   1.00
C296   C     0.97871   0.54098   0.24914   0.00000  Uiso   1.00
C297   C     0.97872   0.45902   0.25067   0.00000  Uiso   1.00
C298   C     0.68795   0.54098   0.24933   0.00000  Uiso   1.00
C299   C     0.95750   0.50001   0.24990   0.00000  Uiso   1.00
C300   C     0.70917   0.49999   0.25010   0.00000  Uiso   1.00
C301   C     0.85961   0.35737   0.27820   0.00000  Uiso   1.00
C302   C     0.80706   0.64263   0.22180   0.00000  Uiso   1.00
C303   C     0.80697   0.35712   0.22190   0.00000  Uiso   1.00
C304   C     0.85969   0.64288   0.27810   0.00000  Uiso   1.00
C305   C     0.83344   0.49994   0.16338   0.00000  Uiso   1.00
C306   C     0.83322   0.50006   0.33661   0.00000  Uiso   1.00
C307   C     0.84123   0.53986   0.40790   0.00000  Uiso   1.00
C308   C     0.82544   0.46014   0.09210   0.00000  Uiso   1.00
C309   C     0.83290   0.50008   0.38457   0.00000  Uiso   1.00
C310   C     0.83377   0.49993   0.11543   0.00000  Uiso   1.00
C311   C     0.82435   0.46017   0.40694   0.00000  Uiso   1.00
C312   C     0.84231   0.53983   0.09306   0.00000  Uiso   1.00
C313   C     0.82421   0.45949   0.45319   0.00000  Uiso   1.00
C314   C     0.84246   0.54051   0.04681   0.00000  Uiso   1.00
C315   C     0.83314   0.49985   0.47679   0.00000  Uiso   1.00
C316   C     0.83352   0.50015   0.02321   0.00000  Uiso   1.00
C317   C     0.84170   0.53999   0.45394   0.00000  Uiso   1.00
C318   C     0.82496   0.46001   0.04606   0.00000  Uiso   1.00
C319   C     0.81543   0.41968   0.47644   0.00000  Uiso   1.00
C320   C     0.85124   0.58032   0.02356   0.00000  Uiso   1.00
H321   H     0.84768   0.57071   0.39032   0.00000  Uiso   1.00
H322   H     0.81898   0.42929   0.10968   0.00000  Uiso   1.00
H323   H     0.81763   0.42990   0.38800   0.00000  Uiso   1.00
H324   H     0.84903   0.57010   0.11200   0.00000  Uiso   1.00
H325   H     0.80894   0.38969   0.04053   0.00000  Uiso   1.00
H326   H     0.85772   0.61031   0.45947   0.00000  Uiso   1.00
H327   H     0.70405   0.42704   0.25163   0.00000  Uiso   1.00
H328   H     0.96262   0.57296   0.24837   0.00000  Uiso   1.00
H329   H     0.96262   0.42704   0.25114   0.00000  Uiso   1.00
H330   H     0.70405   0.57296   0.24886   0.00000  Uiso   1.00
N331   N     0.83333   0.61907   0.25000   0.00000  Uiso   1.00
N332   N     0.83333   0.38093   0.25000   0.00000  Uiso   1.00
O333   O     0.77226   0.53821   0.24999   0.00000  Uiso   1.00
O334   O     0.89441   0.46179   0.25000   0.00000  Uiso   1.00
O335   O     0.89441   0.53821   0.25000   0.00000  Uiso   1.00
O336   O     0.77226   0.46179   0.24999   0.00000  Uiso   1.00
O337   O     0.83333   0.53823   0.18392   0.00000  Uiso   1.00
O338   O     0.83334   0.46177   0.31607   0.00000  Uiso   1.00
O339   O     0.83334   0.53823   0.31607   0.00000  Uiso   1.00
O340   O     0.83333   0.46177   0.18392   0.00000  Uiso   1.00
Zn341  Zn    0.83333   0.55104   0.25000   0.00000  Uiso   1.00
Zn342  Zn    0.83333   0.44896   0.25000   0.00000  Uiso   1.00
Br343  Br    0.80236   0.36353   0.44726   0.00000  Uiso   1.00
Br344  Br    0.86431   0.63647   0.05274   0.00000  Uiso   1.00
Br345  Br    0.89675   0.38888   0.31879   0.00000  Uiso   1.00
Br346  Br    0.76991   0.61112   0.18121   0.00000  Uiso   1.00
Br347  Br    0.76901   0.38826   0.18222   0.00000  Uiso   1.00
Br348  Br    0.89766   0.61174   0.31778   0.00000  Uiso   1.00
C349   C     0.08670   0.83333   0.25002   0.00000  Uiso   1.00
C350   C     0.24664   0.83334   0.24998   0.00000  Uiso   1.00
C351   C     0.14920   0.75363   0.02273   0.00000  Uiso   1.00
C352   C     0.18413   0.91303   0.47727   0.00000  Uiso   1.00
C353   C     0.02128   0.79235   0.25086   0.00000  Uiso   1.00
C354   C     0.31205   0.87432   0.24914   0.00000  Uiso   1.00
C355   C     0.31205   0.79235   0.25067   0.00000  Uiso   1.00
C356   C     0.02128   0.87431   0.24933   0.00000  Uiso   1.00
C357   C     0.29083   0.83334   0.24990   0.00000  Uiso   1.00
C358   C     0.04250   0.83333   0.25010   0.00000  Uiso   1.00
C359   C     0.19294   0.69071   0.27820   0.00000  Uiso   1.00
C360   C     0.14039   0.97596   0.22180   0.00000  Uiso   1.00
C361   C     0.14031   0.69045   0.22190   0.00000  Uiso   1.00
C362   C     0.19302   0.97621   0.27810   0.00000  Uiso   1.00
C363   C     0.16678   0.83328   0.16338   0.00000  Uiso   1.00
C364   C     0.16656   0.83339   0.33661   0.00000  Uiso   1.00
C365   C     0.17456   0.87319   0.40790   0.00000  Uiso   1.00
C366   C     0.15877   0.79348   0.09210   0.00000  Uiso   1.00
C367   C     0.16623   0.83341   0.38457   0.00000  Uiso   1.00
C368   C     0.16710   0.83326   0.11543   0.00000  Uiso   1.00
C369   C     0.15769   0.79351   0.40694   0.00000  Uiso   1.00
C370   C     0.17565   0.87316   0.09306   0.00000  Uiso   1.00
C371   C     0.15754   0.79282   0.45319   0.00000  Uiso   1.00
C372   C     0.17579   0.87385   0.04681   0.00000  Uiso   1.00
C373   C     0.16647   0.83318   0.47679   0.00000  Uiso   1.00
C374   C     0.16686   0.83348   0.02321   0.00000  Uiso   1.00
C375   C     0.17504   0.87332   0.45394   0.00000  Uiso   1.00
C376   C     0.15830   0.79334   0.04606   0.00000  Uiso   1.00
C377   C     0.14876   0.75301   0.47644   0.00000  Uiso   1.00
C378   C     0.18457   0.91365   0.02356   0.00000  Uiso   1.00
H379   H     0.18102   0.90405   0.39032   0.00000  Uiso   1.00
H380   H     0.15232   0.76262   0.10968   0.00000  Uiso   1.00
H381   H     0.15097   0.76323   0.38800   0.00000  Uiso   1.00
H382   H     0.18237   0.90343   0.11200   0.00000  Uiso   1.00
H383   H     0.14228   0.72302   0.04053   0.00000  Uiso   1.00
H384   H     0.19106   0.94365   0.45947   0.00000  Uiso   1.00
H385   H     0.03738   0.76038   0.25163   0.00000  Uiso   1.00
H386   H     0.29595   0.90629   0.24837   0.00000  Uiso   1.00
H387   H     0.29595   0.76037   0.25114   0.00000  Uiso   1.00
H388   H     0.03738   0.90629   0.24886   0.00000  Uiso   1.00
N389   N     0.16667   0.95240   0.25000   0.00000  Uiso   1.00
N390   N     0.16667   0.71427   0.25000   0.00000  Uiso   1.00
O391   O     0.10559   0.87154   0.24999   0.00000  Uiso   1.00
O392   O     0.22774   0.79513   0.25000   0.00000  Uiso   1.00
O393   O     0.22774   0.87154   0.25000   0.00000  Uiso   1.00
O394   O     0.10559   0.79513   0.24999   0.00000  Uiso   1.00
O395   O     0.16666   0.87156   0.18392   0.00000  Uiso   1.00
O396   O     0.16667   0.79511   0.31607   0.00000  Uiso   1.00
O397   O     0.16667   0.87156   0.31607   0.00000  Uiso   1.00
O398   O     0.16666   0.79511   0.18392   0.00000  Uiso   1.00
Zn399  Zn    0.16667   0.88437   0.25000   0.00000  Uiso   1.00
Zn400  Zn    0.16667   0.78229   0.25000   0.00000  Uiso   1.00
Br401  Br    0.13569   0.69686   0.44726   0.00000  Uiso   1.00
Br402  Br    0.19764   0.96980   0.05274   0.00000  Uiso   1.00
Br403  Br    0.23009   0.72222   0.31879   0.00000  Uiso   1.00
Br404  Br    0.10325   0.94445   0.18121   0.00000  Uiso   1.00
Br405  Br    0.10234   0.72159   0.18222   0.00000  Uiso   1.00
Br406  Br    0.23099   0.94507   0.31778   0.00000  Uiso   1.00
C407   C     0.42003   0.83333   0.25002   0.00000  Uiso   1.00
C408   C     0.57997   0.83334   0.24998   0.00000  Uiso   1.00
C409   C     0.48254   0.75363   0.02273   0.00000  Uiso   1.00
C410   C     0.51746   0.91303   0.47727   0.00000  Uiso   1.00
C411   C     0.35462   0.79235   0.25086   0.00000  Uiso   1.00
C412   C     0.64538   0.87432   0.24914   0.00000  Uiso   1.00
C413   C     0.64538   0.79235   0.25067   0.00000  Uiso   1.00
C414   C     0.35462   0.87431   0.24933   0.00000  Uiso   1.00
C415   C     0.62416   0.83334   0.24990   0.00000  Uiso   1.00
C416   C     0.37584   0.83333   0.25010   0.00000  Uiso   1.00
C417   C     0.52627   0.69071   0.27820   0.00000  Uiso   1.00
C418   C     0.47373   0.97596   0.22180   0.00000  Uiso   1.00
C419   C     0.47364   0.69045   0.22190   0.00000  Uiso   1.00
C420   C     0.52636   0.97621   0.27810   0.00000  Uiso   1.00
C421   C     0.50011   0.83328   0.16338   0.00000  Uiso   1.00
C422   C     0.49989   0.83339   0.33661   0.00000  Uiso   1.00
C423   C     0.50790   0.87319   0.40790   0.00000  Uiso   1.00
C424   C     0.49210   0.79348   0.09210   0.00000  Uiso   1.00
C425   C     0.49957   0.83341   0.38457   0.00000  Uiso   1.00
C426   C     0.50043   0.83326   0.11543   0.00000  Uiso   1.00
C427   C     0.49102   0.79351   0.40694   0.00000  Uiso   1.00
C428   C     0.50898   0.87316   0.09306   0.00000  Uiso   1.00
C429   C     0.49088   0.79282   0.45319   0.00000  Uiso   1.00
C430   C     0.50912   0.87385   0.04681   0.00000  Uiso   1.00
C431   C     0.49981   0.83318   0.47679   0.00000  Uiso   1.00
C432   C     0.50019   0.83348   0.02321   0.00000  Uiso   1.00
C433   C     0.50837   0.87332   0.45394   0.00000  Uiso   1.00
C434   C     0.49163   0.79334   0.04606   0.00000  Uiso   1.00
C435   C     0.48209   0.75301   0.47644   0.00000  Uiso   1.00
C436   C     0.51791   0.91365   0.02356   0.00000  Uiso   1.00
H437   H     0.51435   0.90405   0.39032   0.00000  Uiso   1.00
H438   H     0.48565   0.76262   0.10968   0.00000  Uiso   1.00
H439   H     0.48430   0.76323   0.38800   0.00000  Uiso   1.00
H440   H     0.51570   0.90343   0.11200   0.00000  Uiso   1.00
H441   H     0.47561   0.72302   0.04053   0.00000  Uiso   1.00
H442   H     0.52439   0.94365   0.45947   0.00000  Uiso   1.00
H443   H     0.37072   0.76038   0.25163   0.00000  Uiso   1.00
H444   H     0.62928   0.90629   0.24837   0.00000  Uiso   1.00
H445   H     0.62929   0.76037   0.25114   0.00000  Uiso   1.00
H446   H     0.37071   0.90629   0.24886   0.00000  Uiso   1.00
N447   N     0.50000   0.95240   0.25000   0.00000  Uiso   1.00
N448   N     0.50000   0.71427   0.25000   0.00000  Uiso   1.00
O449   O     0.43892   0.87154   0.24999   0.00000  Uiso   1.00
O450   O     0.56108   0.79513   0.25000   0.00000  Uiso   1.00
O451   O     0.56108   0.87154   0.25000   0.00000  Uiso   1.00
O452   O     0.43892   0.79513   0.24999   0.00000  Uiso   1.00
O453   O     0.49999   0.87156   0.18392   0.00000  Uiso   1.00
O454   O     0.50001   0.79511   0.31607   0.00000  Uiso   1.00
O455   O     0.50001   0.87156   0.31607   0.00000  Uiso   1.00
O456   O     0.49999   0.79511   0.18392   0.00000  Uiso   1.00
Zn457  Zn    0.50000   0.88437   0.25000   0.00000  Uiso   1.00
Zn458  Zn    0.50000   0.78229   0.25000   0.00000  Uiso   1.00
Br459  Br    0.46903   0.69686   0.44726   0.00000  Uiso   1.00
Br460  Br    0.53097   0.96980   0.05274   0.00000  Uiso   1.00
Br461  Br    0.56342   0.72222   0.31879   0.00000  Uiso   1.00
Br462  Br    0.43658   0.94445   0.18121   0.00000  Uiso   1.00
Br463  Br    0.43568   0.72159   0.18222   0.00000  Uiso   1.00
Br464  Br    0.56432   0.94507   0.31778   0.00000  Uiso   1.00
C465   C     0.75336   0.83333   0.25002   0.00000  Uiso   1.00
C466   C     0.91330   0.83334   0.24998   0.00000  Uiso   1.00
C467   C     0.81587   0.75363   0.02273   0.00000  Uiso   1.00
C468   C     0.85080   0.91303   0.47727   0.00000  Uiso   1.00
C469   C     0.68795   0.79235   0.25086   0.00000  Uiso   1.00
C470   C     0.97871   0.87432   0.24914   0.00000  Uiso   1.00
C471   C     0.97872   0.79235   0.25067   0.00000  Uiso   1.00
C472   C     0.68795   0.87431   0.24933   0.00000  Uiso   1.00
C473   C     0.95750   0.83334   0.24990   0.00000  Uiso   1.00
C474   C     0.70917   0.83333   0.25010   0.00000  Uiso   1.00
C475   C     0.85961   0.69071   0.27820   0.00000  Uiso   1.00
C476   C     0.80706   0.97596   0.22180   0.00000  Uiso   1.00
C477   C     0.80697   0.69045   0.22190   0.00000  Uiso   1.00
C478   C     0.85969   0.97621   0.27810   0.00000  Uiso   1.00
C479   C     0.83344   0.83328   0.16338   0.00000  Uiso   1.00
C480   C     0.83322   0.83339   0.33661   0.00000  Uiso   1.00
C481   C     0.84123   0.87319   0.40790   0.00000  Uiso   1.00
C482   C     0.82544   0.79348   0.09210   0.00000  Uiso   1.00
C483   C     0.83290   0.83341   0.38457   0.00000  Uiso   1.00
C484   C     0.83377   0.83326   0.11543   0.00000  Uiso   1.00
C485   C     0.82435   0.79351   0.40694   0.00000  Uiso   1.00
C486   C     0.84231   0.87316   0.09306   0.00000  Uiso   1.00
C487   C     0.82421   0.79282   0.45319   0.00000  Uiso   1.00
C488   C     0.84246   0.87385   0.04681   0.00000  Uiso   1.00
C489   C     0.83314   0.83318   0.47679   0.00000  Uiso   1.00
C490   C     0.83352   0.83348   0.02321   0.00000  Uiso   1.00
C491   C     0.84170   0.87332   0.45394   0.00000  Uiso   1.00
C492   C     0.82496   0.79334   0.04606   0.00000  Uiso   1.00
C493   C     0.81543   0.75301   0.47644   0.00000  Uiso   1.00
C494   C     0.85124   0.91365   0.02356   0.00000  Uiso   1.00
H495   H     0.84768   0.90405   0.39032   0.00000  Uiso   1.00
H496   H     0.81898   0.76262   0.10968   0.00000  Uiso   1.00
H497   H     0.81763   0.76323   0.38800   0.00000  Uiso   1.00
H498   H     0.84903   0.90343   0.11200   0.00000  Uiso   1.00
H499   H     0.80894   0.72302   0.04053   0.00000  Uiso   1.00
H500   H     0.85772   0.94365   0.45947   0.00000  Uiso   1.00
H501   H     0.70405   0.76038   0.25163   0.00000  Uiso   1.00
H502   H     0.96262   0.90629   0.24837   0.00000  Uiso   1.00
H503   H     0.96262   0.76037   0.25114   0.00000  Uiso   1.00
H504   H     0.70405   0.90629   0.24886   0.00000  Uiso   1.00
N505   N     0.83333   0.95240   0.25000   0.00000  Uiso   1.00
N506   N     0.83333   0.71427   0.25000   0.00000  Uiso   1.00
O507   O     0.77226   0.87154   0.24999   0.00000  Uiso   1.00
O508   O     0.89441   0.79513   0.25000   0.00000  Uiso   1.00
O509   O     0.89441   0.87154   0.25000   0.00000  Uiso   1.00
O510   O     0.77226   0.79513   0.24999   0.00000  Uiso   1.00
O511   O     0.83333   0.87156   0.18392   0.00000  Uiso   1.00
O512   O     0.83334   0.79511   0.31607   0.00000  Uiso   1.00
O513   O     0.83334   0.87156   0.31607   0.00000  Uiso   1.00
O514   O     0.83333   0.79511   0.18392   0.00000  Uiso   1.00
Zn515  Zn    0.83333   0.88437   0.25000   0.00000  Uiso   1.00
Zn516  Zn    0.83333   0.78229   0.25000   0.00000  Uiso   1.00
Br517  Br    0.80236   0.69686   0.44726   0.00000  Uiso   1.00
Br518  Br    0.86431   0.96980   0.05274   0.00000  Uiso   1.00
Br519  Br    0.89675   0.72222   0.31879   0.00000  Uiso   1.00
Br520  Br    0.76991   0.94445   0.18121   0.00000  Uiso   1.00
Br521  Br    0.76901   0.72159   0.18222   0.00000  Uiso   1.00
Br522  Br    0.89766   0.94507   0.31778   0.00000  Uiso   1.00
C523   C     0.08670   0.16666   0.75002   0.00000  Uiso   1.00
C524   C     0.24664   0.16667   0.74998   0.00000  Uiso   1.00
C525   C     0.14920   0.08697   0.52273   0.00000  Uiso   1.00
C526   C     0.18413   0.24637   0.97727   0.00000  Uiso   1.00
C527   C     0.02128   0.12568   0.75086   0.00000  Uiso   1.00
C528   C     0.31205   0.20765   0.74914   0.00000  Uiso   1.00
C529   C     0.31205   0.12569   0.75067   0.00000  Uiso   1.00
C530   C     0.02128   0.20765   0.74933   0.00000  Uiso   1.00
C531   C     0.29083   0.16667   0.74990   0.00000  Uiso   1.00
C532   C     0.04250   0.16666   0.75010   0.00000  Uiso   1.00
C533   C     0.19294   0.02404   0.77820   0.00000  Uiso   1.00
C534   C     0.14039   0.30929   0.72180   0.00000  Uiso   1.00
C535   C     0.14031   0.02379   0.72190   0.00000  Uiso   1.00
C536   C     0.19302   0.30955   0.77810   0.00000  Uiso   1.00
C537   C     0.16678   0.16661   0.66338   0.00000  Uiso   1.00
C538   C     0.16656   0.16672   0.83661   0.00000  Uiso   1.00
C539   C     0.17456   0.20652   0.90790   0.00000  Uiso   1.00
C540   C     0.15877   0.12681   0.59210   0.00000  Uiso   1.00
C541   C     0.16623   0.16674   0.88457   0.00000  Uiso   1.00
C542   C     0.16710   0.16659   0.61543   0.00000  Uiso   1.00
C543   C     0.15769   0.12684   0.90694   0.00000  Uiso   1.00
C544   C     0.17565   0.20649   0.59306   0.00000  Uiso   1.00
C545   C     0.15754   0.12615   0.95319   0.00000  Uiso   1.00
C546   C     0.17579   0.20718   0.54681   0.00000  Uiso   1.00
C547   C     0.16647   0.16652   0.97679   0.00000  Uiso   1.00
C548   C     0.16686   0.16682   0.52321   0.00000  Uiso   1.00
C549   C     0.17504   0.20666   0.95394   0.00000  Uiso   1.00
C550   C     0.15830   0.12668   0.54606   0.00000  Uiso   1.00
C551   C     0.14876   0.08635   0.97644   0.00000  Uiso   1.00
C552   C     0.18457   0.24699   0.52356   0.00000  Uiso   1.00
H553   H     0.18102   0.23738   0.89032   0.00000  Uiso   1.00
H554   H     0.15232   0.09595   0.60968   0.00000  Uiso   1.00
H555   H     0.15097   0.09657   0.88800   0.00000  Uiso   1.00
H556   H     0.18237   0.23677   0.61200   0.00000  Uiso   1.00
H557   H     0.14228   0.05635   0.54053   0.00000  Uiso   1.00
H558   H     0.19106   0.27698   0.95947   0.00000  Uiso   1.00
H559   H     0.03738   0.09371   0.75163   0.00000  Uiso   1.00
H560   H     0.29595   0.23963   0.74837   0.00000  Uiso   1.00
H561   H     0.29595   0.09371   0.75114   0.00000  Uiso   1.00
H562   H     0.03738   0.23963   0.74886   0.00000  Uiso   1.00
N563   N     0.16667   0.28573   0.75000   0.00000  Uiso   1.00
N564   N     0.16667   0.04760   0.75000   0.00000  Uiso   1.00
O565   O     0.10559   0.20487   0.74999   0.00000  Uiso   1.00
O566   O     0.22774   0.12846   0.75000   0.00000  Uiso   1.00
O567   O     0.22774   0.20487   0.75000   0.00000  Uiso   1.00
O568   O     0.10559   0.12846   0.74999   0.00000  Uiso   1.00
O569   O     0.16666   0.20489   0.68392   0.00000  Uiso   1.00
O570   O     0.16667   0.12844   0.81607   0.00000  Uiso   1.00
O571   O     0.16667   0.20489   0.81607   0.00000  Uiso   1.00
O572   O     0.16666   0.12844   0.68392   0.00000  Uiso   1.00
Zn573  Zn    0.16667   0.21771   0.75000   0.00000  Uiso   1.00
Zn574  Zn    0.16667   0.11563   0.75000   0.00000  Uiso   1.00
Br575  Br    0.13569   0.03020   0.94726   0.00000  Uiso   1.00
Br576  Br    0.19764   0.30314   0.55274   0.00000  Uiso   1.00
Br577  Br    0.23009   0.05555   0.81879   0.00000  Uiso   1.00
Br578  Br    0.10325   0.27778   0.68121   0.00000  Uiso   1.00
Br579  Br    0.10234   0.05493   0.68222   0.00000  Uiso   1.00
Br580  Br    0.23099   0.27841   0.81778   0.00000  Uiso   1.00
C581   C     0.42003   0.16666   0.75002   0.00000  Uiso   1.00
C582   C     0.57997   0.16667   0.74998   0.00000  Uiso   1.00
C583   C     0.48254   0.08697   0.52273   0.00000  Uiso   1.00
C584   C     0.51746   0.24637   0.97727   0.00000  Uiso   1.00
C585   C     0.35462   0.12568   0.75086   0.00000  Uiso   1.00
C586   C     0.64538   0.20765   0.74914   0.00000  Uiso   1.00
C587   C     0.64538   0.12569   0.75067   0.00000  Uiso   1.00
C588   C     0.35462   0.20765   0.74933   0.00000  Uiso   1.00
C589   C     0.62416   0.16667   0.74990   0.00000  Uiso   1.00
C590   C     0.37584   0.16666   0.75010   0.00000  Uiso   1.00
C591   C     0.52627   0.02404   0.77820   0.00000  Uiso   1.00
C592   C     0.47373   0.30929   0.72180   0.00000  Uiso   1.00
C593   C     0.47364   0.02379   0.72190   0.00000  Uiso   1.00
C594   C     0.52636   0.30955   0.77810   0.00000  Uiso   1.00
C595   C     0.50011   0.16661   0.66338   0.00000  Uiso   1.00
C596   C     0.49989   0.16672   0.83661   0.00000  Uiso   1.00
C597   C     0.50790   0.20652   0.90790   0.00000  Uiso   1.00
C598   C     0.49210   0.12681   0.59210   0.00000  Uiso   1.00
C599   C     0.49957   0.16674   0.88457   0.00000  Uiso   1.00
C600   C     0.50043   0.16659   0.61543   0.00000  Uiso   1.00
C601   C     0.49102   0.12684   0.90694   0.00000  Uiso   1.00
C602   C     0.50898   0.20649   0.59306   0.00000  Uiso   1.00
C603   C     0.49088   0.12615   0.95319   0.00000  Uiso   1.00
C604   C     0.50912   0.20718   0.54681   0.00000  Uiso   1.00
C605   C     0.49981   0.16652   0.97679   0.00000  Uiso   1.00
C606   C     0.50019   0.16682   0.52321   0.00000  Uiso   1.00
C607   C     0.50837   0.20666   0.95394   0.00000  Uiso   1.00
C608   C     0.49163   0.12668   0.54606   0.00000  Uiso   1.00
C609   C     0.48209   0.08635   0.97644   0.00000  Uiso   1.00
C610   C     0.51791   0.24699   0.52356   0.00000  Uiso   1.00
H611   H     0.51435   0.23738   0.89032   0.00000  Uiso   1.00
H612   H     0.48565   0.09595   0.60968   0.00000  Uiso   1.00
H613   H     0.48430   0.09657   0.88800   0.00000  Uiso   1.00
H614   H     0.51570   0.23677   0.61200   0.00000  Uiso   1.00
H615   H     0.47561   0.05635   0.54053   0.00000  Uiso   1.00
H616   H     0.52439   0.27698   0.95947   0.00000  Uiso   1.00
H617   H     0.37072   0.09371   0.75163   0.00000  Uiso   1.00
H618   H     0.62928   0.23963   0.74837   0.00000  Uiso   1.00
H619   H     0.62929   0.09371   0.75114   0.00000  Uiso   1.00
H620   H     0.37071   0.23963   0.74886   0.00000  Uiso   1.00
N621   N     0.50000   0.28573   0.75000   0.00000  Uiso   1.00
N622   N     0.50000   0.04760   0.75000   0.00000  Uiso   1.00
O623   O     0.43892   0.20487   0.74999   0.00000  Uiso   1.00
O624   O     0.56108   0.12846   0.75000   0.00000  Uiso   1.00
O625   O     0.56108   0.20487   0.75000   0.00000  Uiso   1.00
O626   O     0.43892   0.12846   0.74999   0.00000  Uiso   1.00
O627   O     0.49999   0.20489   0.68392   0.00000  Uiso   1.00
O628   O     0.50001   0.12844   0.81607   0.00000  Uiso   1.00
O629   O     0.50001   0.20489   0.81607   0.00000  Uiso   1.00
O630   O     0.49999   0.12844   0.68392   0.00000  Uiso   1.00
Zn631  Zn    0.50000   0.21771   0.75000   0.00000  Uiso   1.00
Zn632  Zn    0.50000   0.11563   0.75000   0.00000  Uiso   1.00
Br633  Br    0.46903   0.03020   0.94726   0.00000  Uiso   1.00
Br634  Br    0.53097   0.30314   0.55274   0.00000  Uiso   1.00
Br635  Br    0.56342   0.05555   0.81879   0.00000  Uiso   1.00
Br636  Br    0.43658   0.27778   0.68121   0.00000  Uiso   1.00
Br637  Br    0.43568   0.05493   0.68222   0.00000  Uiso   1.00
Br638  Br    0.56432   0.27841   0.81778   0.00000  Uiso   1.00
C639   C     0.75336   0.16666   0.75002   0.00000  Uiso   1.00
C640   C     0.91330   0.16667   0.74998   0.00000  Uiso   1.00
C641   C     0.81587   0.08697   0.52273   0.00000  Uiso   1.00
C642   C     0.85080   0.24637   0.97727   0.00000  Uiso   1.00
C643   C     0.68795   0.12568   0.75086   0.00000  Uiso   1.00
C644   C     0.97871   0.20765   0.74914   0.00000  Uiso   1.00
C645   C     0.97872   0.12569   0.75067   0.00000  Uiso   1.00
C646   C     0.68795   0.20765   0.74933   0.00000  Uiso   1.00
C647   C     0.95750   0.16667   0.74990   0.00000  Uiso   1.00
C648   C     0.70917   0.16666   0.75010   0.00000  Uiso   1.00
C649   C     0.85961   0.02404   0.77820   0.00000  Uiso   1.00
C650   C     0.80706   0.30929   0.72180   0.00000  Uiso   1.00
C651   C     0.80697   0.02379   0.72190   0.00000  Uiso   1.00
C652   C     0.85969   0.30955   0.77810   0.00000  Uiso   1.00
C653   C     0.83344   0.16661   0.66338   0.00000  Uiso   1.00
C654   C     0.83322   0.16672   0.83661   0.00000  Uiso   1.00
C655   C     0.84123   0.20652   0.90790   0.00000  Uiso   1.00
C656   C     0.82544   0.12681   0.59210   0.00000  Uiso   1.00
C657   C     0.83290   0.16674   0.88457   0.00000  Uiso   1.00
C658   C     0.83377   0.16659   0.61543   0.00000  Uiso   1.00
C659   C     0.82435   0.12684   0.90694   0.00000  Uiso   1.00
C660   C     0.84231   0.20649   0.59306   0.00000  Uiso   1.00
C661   C     0.82421   0.12615   0.95319   0.00000  Uiso   1.00
C662   C     0.84246   0.20718   0.54681   0.00000  Uiso   1.00
C663   C     0.83314   0.16652   0.97679   0.00000  Uiso   1.00
C664   C     0.83352   0.16682   0.52321   0.00000  Uiso   1.00
C665   C     0.84170   0.20666   0.95394   0.00000  Uiso   1.00
C666   C     0.82496   0.12668   0.54606   0.00000  Uiso   1.00
C667   C     0.81543   0.08635   0.97644   0.00000  Uiso   1.00
C668   C     0.85124   0.24699   0.52356   0.00000  Uiso   1.00
H669   H     0.84768   0.23738   0.89032   0.00000  Uiso   1.00
H670   H     0.81898   0.09595   0.60968   0.00000  Uiso   1.00
H671   H     0.81763   0.09657   0.88800   0.00000  Uiso   1.00
H672   H     0.84903   0.23677   0.61200   0.00000  Uiso   1.00
H673   H     0.80894   0.05635   0.54053   0.00000  Uiso   1.00
H674   H     0.85772   0.27698   0.95947   0.00000  Uiso   1.00
H675   H     0.70405   0.09371   0.75163   0.00000  Uiso   1.00
H676   H     0.96262   0.23963   0.74837   0.00000  Uiso   1.00
H677   H     0.96262   0.09371   0.75114   0.00000  Uiso   1.00
H678   H     0.70405   0.23963   0.74886   0.00000  Uiso   1.00
N679   N     0.83333   0.28573   0.75000   0.00000  Uiso   1.00
N680   N     0.83333   0.04760   0.75000   0.00000  Uiso   1.00
O681   O     0.77226   0.20487   0.74999   0.00000  Uiso   1.00
O682   O     0.89441   0.12846   0.75000   0.00000  Uiso   1.00
O683   O     0.89441   0.20487   0.75000   0.00000  Uiso   1.00
O684   O     0.77226   0.12846   0.74999   0.00000  Uiso   1.00
O685   O     0.83333   0.20489   0.68392   0.00000  Uiso   1.00
O686   O     0.83334   0.12844   0.81607   0.00000  Uiso   1.00
O687   O     0.83334   0.20489   0.81607   0.00000  Uiso   1.00
O688   O     0.83333   0.12844   0.68392   0.00000  Uiso   1.00
Zn689  Zn    0.83333   0.21771   0.75000   0.00000  Uiso   1.00
Zn690  Zn    0.83333   0.11563   0.75000   0.00000  Uiso   1.00
Br691  Br    0.80236   0.03020   0.94726   0.00000  Uiso   1.00
Br692  Br    0.86431   0.30314   0.55274   0.00000  Uiso   1.00
Br693  Br    0.89675   0.05555   0.81879   0.00000  Uiso   1.00
Br694  Br    0.76991   0.27778   0.68121   0.00000  Uiso   1.00
Br695  Br    0.76901   0.05493   0.68222   0.00000  Uiso   1.00
Br696  Br    0.89766   0.27841   0.81778   0.00000  Uiso   1.00
C697   C     0.08670   0.49999   0.75002   0.00000  Uiso   1.00
C698   C     0.24664   0.50001   0.74998   0.00000  Uiso   1.00
C699   C     0.14920   0.42030   0.52273   0.00000  Uiso   1.00
C700   C     0.18413   0.57970   0.97727   0.00000  Uiso   1.00
C701   C     0.02128   0.45902   0.75086   0.00000  Uiso   1.00
C702   C     0.31205   0.54098   0.74914   0.00000  Uiso   1.00
C703   C     0.31205   0.45902   0.75067   0.00000  Uiso   1.00
C704   C     0.02128   0.54098   0.74933   0.00000  Uiso   1.00
C705   C     0.29083   0.50001   0.74990   0.00000  Uiso   1.00
C706   C     0.04250   0.49999   0.75010   0.00000  Uiso   1.00
C707   C     0.19294   0.35737   0.77820   0.00000  Uiso   1.00
C708   C     0.14039   0.64263   0.72180   0.00000  Uiso   1.00
C709   C     0.14031   0.35712   0.72190   0.00000  Uiso   1.00
C710   C     0.19302   0.64288   0.77810   0.00000  Uiso   1.00
C711   C     0.16678   0.49994   0.66338   0.00000  Uiso   1.00
C712   C     0.16656   0.50006   0.83661   0.00000  Uiso   1.00
C713   C     0.17456   0.53986   0.90790   0.00000  Uiso   1.00
C714   C     0.15877   0.46014   0.59210   0.00000  Uiso   1.00
C715   C     0.16623   0.50008   0.88457   0.00000  Uiso   1.00
C716   C     0.16710   0.49993   0.61543   0.00000  Uiso   1.00
C717   C     0.15769   0.46017   0.90694   0.00000  Uiso   1.00
C718   C     0.17565   0.53983   0.59306   0.00000  Uiso   1.00
C719   C     0.15754   0.45949   0.95319   0.00000  Uiso   1.00
C720   C     0.17579   0.54051   0.54681   0.00000  Uiso   1.00
C721   C     0.16647   0.49985   0.97679   0.00000  Uiso   1.00
C722   C     0.16686   0.50015   0.52321   0.00000  Uiso   1.00
C723   C     0.17504   0.53999   0.95394   0.00000  Uiso   1.00
C724   C     0.15830   0.46001   0.54606   0.00000  Uiso   1.00
C725   C     0.14876   0.41968   0.97644   0.00000  Uiso   1.00
C726   C     0.18457   0.58032   0.52356   0.00000  Uiso   1.00
H727   H     0.18102   0.57071   0.89032   0.00000  Uiso   1.00
H728   H     0.15232   0.42929   0.60968   0.00000  Uiso   1.00
H729   H     0.15097   0.42990   0.88800   0.00000  Uiso   1.00
H730   H     0.18237   0.57010   0.61200   0.00000  Uiso   1.00
H731   H     0.14228   0.38969   0.54053   0.00000  Uiso   1.00
H732   H     0.19106   0.61031   0.95947   0.00000  Uiso   1.00
H733   H     0.03738   0.42704   0.75163   0.00000  Uiso   1.00
H734   H     0.29595   0.57296   0.74837   0.00000  Uiso   1.00
H735   H     0.29595   0.42704   0.75114   0.00000  Uiso   1.00
H736   H     0.03738   0.57296   0.74886   0.00000  Uiso   1.00
N737   N     0.16667   0.61907   0.75000   0.00000  Uiso   1.00
N738   N     0.16667   0.38093   0.75000   0.00000  Uiso   1.00
O739   O     0.10559   0.53821   0.74999   0.00000  Uiso   1.00
O740   O     0.22774   0.46179   0.75000   0.00000  Uiso   1.00
O741   O     0.22774   0.53821   0.75000   0.00000  Uiso   1.00
O742   O     0.10559   0.46179   0.74999   0.00000  Uiso   1.00
O743   O     0.16666   0.53823   0.68392   0.00000  Uiso   1.00
O744   O     0.16667   0.46177   0.81607   0.00000  Uiso   1.00
O745   O     0.16667   0.53823   0.81607   0.00000  Uiso   1.00
O746   O     0.16666   0.46177   0.68392   0.00000  Uiso   1.00
Zn747  Zn    0.16667   0.55104   0.75000   0.00000  Uiso   1.00
Zn748  Zn    0.16667   0.44896   0.75000   0.00000  Uiso   1.00
Br749  Br    0.13569   0.36353   0.94726   0.00000  Uiso   1.00
Br750  Br    0.19764   0.63647   0.55274   0.00000  Uiso   1.00
Br751  Br    0.23009   0.38888   0.81879   0.00000  Uiso   1.00
Br752  Br    0.10325   0.61112   0.68121   0.00000  Uiso   1.00
Br753  Br    0.10234   0.38826   0.68222   0.00000  Uiso   1.00
Br754  Br    0.23099   0.61174   0.81778   0.00000  Uiso   1.00
C755   C     0.42003   0.49999   0.75002   0.00000  Uiso   1.00
C756   C     0.57997   0.50001   0.74998   0.00000  Uiso   1.00
C757   C     0.48254   0.42030   0.52273   0.00000  Uiso   1.00
C758   C     0.51746   0.57970   0.97727   0.00000  Uiso   1.00
C759   C     0.35462   0.45902   0.75086   0.00000  Uiso   1.00
C760   C     0.64538   0.54098   0.74914   0.00000  Uiso   1.00
C761   C     0.64538   0.45902   0.75067   0.00000  Uiso   1.00
C762   C     0.35462   0.54098   0.74933   0.00000  Uiso   1.00
C763   C     0.62416   0.50001   0.74990   0.00000  Uiso   1.00
C764   C     0.37584   0.49999   0.75010   0.00000  Uiso   1.00
C765   C     0.52627   0.35737   0.77820   0.00000  Uiso   1.00
C766   C     0.47373   0.64263   0.72180   0.00000  Uiso   1.00
C767   C     0.47364   0.35712   0.72190   0.00000  Uiso   1.00
C768   C     0.52636   0.64288   0.77810   0.00000  Uiso   1.00
C769   C     0.50011   0.49994   0.66338   0.00000  Uiso   1.00
C770   C     0.49989   0.50006   0.83661   0.00000  Uiso   1.00
C771   C     0.50790   0.53986   0.90790   0.00000  Uiso   1.00
C772   C     0.49210   0.46014   0.59210   0.00000  Uiso   1.00
C773   C     0.49957   0.50008   0.88457   0.00000  Uiso   1.00
C774   C     0.50043   0.49993   0.61543   0.00000  Uiso   1.00
C775   C     0.49102   0.46017   0.90694   0.00000  Uiso   1.00
C776   C     0.50898   0.53983   0.59306   0.00000  Uiso   1.00
C777   C     0.49088   0.45949   0.95319   0.00000  Uiso   1.00
C778   C     0.50912   0.54051   0.54681   0.00000  Uiso   1.00
C779   C     0.49981   0.49985   0.97679   0.00000  Uiso   1.00
C780   C     0.50019   0.50015   0.52321   0.00000  Uiso   1.00
C781   C     0.50837   0.53999   0.95394   0.00000  Uiso   1.00
C782   C     0.49163   0.46001   0.54606   0.00000  Uiso   1.00
C783   C     0.48209   0.41968   0.97644   0.00000  Uiso   1.00
C784   C     0.51791   0.58032   0.52356   0.00000  Uiso   1.00
H785   H     0.51435   0.57071   0.89032   0.00000  Uiso   1.00
H786   H     0.48565   0.42929   0.60968   0.00000  Uiso   1.00
H787   H     0.48430   0.42990   0.88800   0.00000  Uiso   1.00
H788   H     0.51570   0.57010   0.61200   0.00000  Uiso   1.00
H789   H     0.47561   0.38969   0.54053   0.00000  Uiso   1.00
H790   H     0.52439   0.61031   0.95947   0.00000  Uiso   1.00
H791   H     0.37072   0.42704   0.75163   0.00000  Uiso   1.00
H792   H     0.62928   0.57296   0.74837   0.00000  Uiso   1.00
H793   H     0.62929   0.42704   0.75114   0.00000  Uiso   1.00
H794   H     0.37071   0.57296   0.74886   0.00000  Uiso   1.00
N795   N     0.50000   0.61907   0.75000   0.00000  Uiso   1.00
N796   N     0.50000   0.38093   0.75000   0.00000  Uiso   1.00
O797   O     0.43892   0.53821   0.74999   0.00000  Uiso   1.00
O798   O     0.56108   0.46179   0.75000   0.00000  Uiso   1.00
O799   O     0.56108   0.53821   0.75000   0.00000  Uiso   1.00
O800   O     0.43892   0.46179   0.74999   0.00000  Uiso   1.00
O801   O     0.49999   0.53823   0.68392   0.00000  Uiso   1.00
O802   O     0.50001   0.46177   0.81607   0.00000  Uiso   1.00
O803   O     0.50001   0.53823   0.81607   0.00000  Uiso   1.00
O804   O     0.49999   0.46177   0.68392   0.00000  Uiso   1.00
Zn805  Zn    0.50000   0.55104   0.75000   0.00000  Uiso   1.00
Zn806  Zn    0.50000   0.44896   0.75000   0.00000  Uiso   1.00
Br807  Br    0.46903   0.36353   0.94726   0.00000  Uiso   1.00
Br808  Br    0.53097   0.63647   0.55274   0.00000  Uiso   1.00
Br809  Br    0.56342   0.38888   0.81879   0.00000  Uiso   1.00
Br810  Br    0.43658   0.61112   0.68121   0.00000  Uiso   1.00
Br811  Br    0.43568   0.38826   0.68222   0.00000  Uiso   1.00
Br812  Br    0.56432   0.61174   0.81778   0.00000  Uiso   1.00
C813   C     0.75336   0.49999   0.75002   0.00000  Uiso   1.00
C814   C     0.91330   0.50001   0.74998   0.00000  Uiso   1.00
C815   C     0.81587   0.42030   0.52273   0.00000  Uiso   1.00
C816   C     0.85080   0.57970   0.97727   0.00000  Uiso   1.00
C817   C     0.68795   0.45902   0.75086   0.00000  Uiso   1.00
C818   C     0.97871   0.54098   0.74914   0.00000  Uiso   1.00
C819   C     0.97872   0.45902   0.75067   0.00000  Uiso   1.00
C820   C     0.68795   0.54098   0.74933   0.00000  Uiso   1.00
C821   C     0.95750   0.50001   0.74990   0.00000  Uiso   1.00
C822   C     0.70917   0.49999   0.75010   0.00000  Uiso   1.00
C823   C     0.85961   0.35737   0.77820   0.00000  Uiso   1.00
C824   C     0.80706   0.64263   0.72180   0.00000  Uiso   1.00
C825   C     0.80697   0.35712   0.72190   0.00000  Uiso   1.00
C826   C     0.85969   0.64288   0.77810   0.00000  Uiso   1.00
C827   C     0.83344   0.49994   0.66338   0.00000  Uiso   1.00
C828   C     0.83322   0.50006   0.83661   0.00000  Uiso   1.00
C829   C     0.84123   0.53986   0.90790   0.00000  Uiso   1.00
C830   C     0.82544   0.46014   0.59210   0.00000  Uiso   1.00
C831   C     0.83290   0.50008   0.88457   0.00000  Uiso   1.00
C832   C     0.83377   0.49993   0.61543   0.00000  Uiso   1.00
C833   C     0.82435   0.46017   0.90694   0.00000  Uiso   1.00
C834   C     0.84231   0.53983   0.59306   0.00000  Uiso   1.00
C835   C     0.82421   0.45949   0.95319   0.00000  Uiso   1.00
C836   C     0.84246   0.54051   0.54681   0.00000  Uiso   1.00
C837   C     0.83314   0.49985   0.97679   0.00000  Uiso   1.00
C838   C     0.83352   0.50015   0.52321   0.00000  Uiso   1.00
C839   C     0.84170   0.53999   0.95394   0.00000  Uiso   1.00
C840   C     0.82496   0.46001   0.54606   0.00000  Uiso   1.00
C841   C     0.81543   0.41968   0.97644   0.00000  Uiso   1.00
C842   C     0.85124   0.58032   0.52356   0.00000  Uiso   1.00
H843   H     0.84768   0.57071   0.89032   0.00000  Uiso   1.00
H844   H     0.81898   0.42929   0.60968   0.00000  Uiso   1.00
H845   H     0.81763   0.42990   0.88800   0.00000  Uiso   1.00
H846   H     0.84903   0.57010   0.61200   0.00000  Uiso   1.00
H847   H     0.80894   0.38969   0.54053   0.00000  Uiso   1.00
H848   H     0.85772   0.61031   0.95947   0.00000  Uiso   1.00
H849   H     0.70405   0.42704   0.75163   0.00000  Uiso   1.00
H850   H     0.96262   0.57296   0.74837   0.00000  Uiso   1.00
H851   H     0.96262   0.42704   0.75114   0.00000  Uiso   1.00
H852   H     0.70405   0.57296   0.74886   0.00000  Uiso   1.00
N853   N     0.83333   0.61907   0.75000   0.00000  Uiso   1.00
N854   N     0.83333   0.38093   0.75000   0.00000  Uiso   1.00
O855   O     0.77226   0.53821   0.74999   0.00000  Uiso   1.00
O856   O     0.89441   0.46179   0.75000   0.00000  Uiso   1.00
O857   O     0.89441   0.53821   0.75000   0.00000  Uiso   1.00
O858   O     0.77226   0.46179   0.74999   0.00000  Uiso   1.00
O859   O     0.83333   0.53823   0.68392   0.00000  Uiso   1.00
O860   O     0.83334   0.46177   0.81607   0.00000  Uiso   1.00
O861   O     0.83334   0.53823   0.81607   0.00000  Uiso   1.00
O862   O     0.83333   0.46177   0.68392   0.00000  Uiso   1.00
Zn863  Zn    0.83333   0.55104   0.75000   0.00000  Uiso   1.00
Zn864  Zn    0.83333   0.44896   0.75000   0.00000  Uiso   1.00
Br865  Br    0.80236   0.36353   0.94726   0.00000  Uiso   1.00
Br866  Br    0.86431   0.63647   0.55274   0.00000  Uiso   1.00
Br867  Br    0.89675   0.38888   0.81879   0.00000  Uiso   1.00
Br868  Br    0.76991   0.61112   0.68121   0.00000  Uiso   1.00
Br869  Br    0.76901   0.38826   0.68222   0.00000  Uiso   1.00
Br870  Br    0.89766   0.61174   0.81778   0.00000  Uiso   1.00
C871   C     0.08670   0.83333   0.75002   0.00000  Uiso   1.00
C872   C     0.24664   0.83334   0.74998   0.00000  Uiso   1.00
C873   C     0.14920   0.75363   0.52273   0.00000  Uiso   1.00
C874   C     0.18413   0.91303   0.97727   0.00000  Uiso   1.00
C875   C     0.02128   0.79235   0.75086   0.00000  Uiso   1.00
C876   C     0.31205   0.87432   0.74914   0.00000  Uiso   1.00
C877   C     0.31205   0.79235   0.75067   0.00000  Uiso   1.00
C878   C     0.02128   0.87431   0.74933   0.00000  Uiso   1.00
C879   C     0.29083   0.83334   0.74990   0.00000  Uiso   1.00
C880   C     0.04250   0.83333   0.75010   0.00000  Uiso   1.00
C881   C     0.19294   0.69071   0.77820   0.00000  Uiso   1.00
C882   C     0.14039   0.97596   0.72180   0.00000  Uiso   1.00
C883   C     0.14031   0.69045   0.72190   0.00000  Uiso   1.00
C884   C     0.19302   0.97621   0.77810   0.00000  Uiso   1.00
C885   C     0.16678   0.83328   0.66338   0.00000  Uiso   1.00
C886   C     0.16656   0.83339   0.83661   0.00000  Uiso   1.00
C887   C     0.17456   0.87319   0.90790   0.00000  Uiso   1.00
C888   C     0.15877   0.79348   0.59210   0.00000  Uiso   1.00
C889   C     0.16623   0.83341   0.88457   0.00000  Uiso   1.00
C890   C     0.16710   0.83326   0.61543   0.00000  Uiso   1.00
C891   C     0.15769   0.79351   0.90694   0.00000  Uiso   1.00
C892   C     0.17565   0.87316   0.59306   0.00000  Uiso   1.00
C893   C     0.15754   0.79282   0.95319   0.00000  Uiso   1.00
C894   C     0.17579   0.87385   0.54681   0.00000  Uiso   1.00
C895   C     0.16647   0.83318   0.97679   0.00000  Uiso   1.00
C896   C     0.16686   0.83348   0.52321   0.00000  Uiso   1.00
C897   C     0.17504   0.87332   0.95394   0.00000  Uiso   1.00
C898   C     0.15830   0.79334   0.54606   0.00000  Uiso   1.00
C899   C     0.14876   0.75301   0.97644   0.00000  Uiso   1.00
C900   C     0.18457   0.91365   0.52356   0.00000  Uiso   1.00
H901   H     0.18102   0.90405   0.89032   0.00000  Uiso   1.00
H902   H     0.15232   0.76262   0.60968   0.00000  Uiso   1.00
H903   H     0.15097   0.76323   0.88800   0.00000  Uiso   1.00
H904   H     0.18237   0.90343   0.61200   0.00000  Uiso   1.00
H905   H     0.14228   0.72302   0.54053   0.00000  Uiso   1.00
H906   H     0.19106   0.94365   0.95947   0.00000  Uiso   1.00
H907   H     0.03738   0.76038   0.75163   0.00000  Uiso   1.00
H908   H     0.29595   0.90629   0.74837   0.00000  Uiso   1.00
H909   H     0.29595   0.76037   0.75114   0.00000  Uiso   1.00
H910   H     0.03738   0.90629   0.74886   0.00000  Uiso   1.00
N911   N     0.16667   0.95240   0.75000   0.00000  Uiso   1.00
N912   N     0.16667   0.71427   0.75000   0.00000  Uiso   1.00
O913   O     0.10559   0.87154   0.74999   0.00000  Uiso   1.00
O914   O     0.22774   0.79513   0.75000   0.00000  Uiso   1.00
O915   O     0.22774   0.87154   0.75000   0.00000  Uiso   1.00
O916   O     0.10559   0.79513   0.74999   0.00000  Uiso   1.00
O917   O     0.16666   0.87156   0.68392   0.00000  Uiso   1.00
O918   O     0.16667   0.79511   0.81607   0.00000  Uiso   1.00
O919   O     0.16667   0.87156   0.81607   0.00000  Uiso   1.00
O920   O     0.16666   0.79511   0.68392   0.00000  Uiso   1.00
Zn921  Zn    0.16667   0.88437   0.75000   0.00000  Uiso   1.00
Zn922  Zn    0.16667   0.78229   0.75000   0.00000  Uiso   1.00
Br923  Br    0.13569   0.69686   0.94726   0.00000  Uiso   1.00
Br924  Br    0.19764   0.96980   0.55274   0.00000  Uiso   1.00
Br925  Br    0.23009   0.72222   0.81879   0.00000  Uiso   1.00
Br926  Br    0.10325   0.94445   0.68121   0.00000  Uiso   1.00
Br927  Br    0.10234   0.72159   0.68222   0.00000  Uiso   1.00
Br928  Br    0.23099   0.94507   0.81778   0.00000  Uiso   1.00
C929   C     0.42003   0.83333   0.75002   0.00000  Uiso   1.00
C930   C     0.57997   0.83334   0.74998   0.00000  Uiso   1.00
C931   C     0.48254   0.75363   0.52273   0.00000  Uiso   1.00
C932   C     0.51746   0.91303   0.97727   0.00000  Uiso   1.00
C933   C     0.35462   0.79235   0.75086   0.00000  Uiso   1.00
C934   C     0.64538   0.87432   0.74914   0.00000  Uiso   1.00
C935   C     0.64538   0.79235   0.75067   0.00000  Uiso   1.00
C936   C     0.35462   0.87431   0.74933   0.00000  Uiso   1.00
C937   C     0.62416   0.83334   0.74990   0.00000  Uiso   1.00
C938   C     0.37584   0.83333   0.75010   0.00000  Uiso   1.00
C939   C     0.52627   0.69071   0.77820   0.00000  Uiso   1.00
C940   C     0.47373   0.97596   0.72180   0.00000  Uiso   1.00
C941   C     0.47364   0.69045   0.72190   0.00000  Uiso   1.00
C942   C     0.52636   0.97621   0.77810   0.00000  Uiso   1.00
C943   C     0.50011   0.83328   0.66338   0.00000  Uiso   1.00
C944   C     0.49989   0.83339   0.83661   0.00000  Uiso   1.00
C945   C     0.50790   0.87319   0.90790   0.00000  Uiso   1.00
C946   C     0.49210   0.79348   0.59210   0.00000  Uiso   1.00
C947   C     0.49957   0.83341   0.88457   0.00000  Uiso   1.00
C948   C     0.50043   0.83326   0.61543   0.00000  Uiso   1.00
C949   C     0.49102   0.79351   0.90694   0.00000  Uiso   1.00
C950   C     0.50898   0.87316   0.59306   0.00000  Uiso   1.00
C951   C     0.49088   0.79282   0.95319   0.00000  Uiso   1.00
C952   C     0.50912   0.87385   0.54681   0.00000  Uiso   1.00
C953   C     0.49981   0.83318   0.97679   0.00000  Uiso   1.00
C954   C     0.50019   0.83348   0.52321   0.00000  Uiso   1.00
C955   C     0.50837   0.87332   0.95394   0.00000  Uiso   1.00
C956   C     0.49163   0.79334   0.54606   0.00000  Uiso   1.00
C957   C     0.48209   0.75301   0.97644   0.00000  Uiso   1.00
C958   C     0.51791   0.91365   0.52356   0.00000  Uiso   1.00
H959   H     0.51435   0.90405   0.89032   0.00000  Uiso   1.00
H960   H     0.48565   0.76262   0.60968   0.00000  Uiso   1.00
H961   H     0.48430   0.76323   0.88800   0.00000  Uiso   1.00
H962   H     0.51570   0.90343   0.61200   0.00000  Uiso   1.00
H963   H     0.47561   0.72302   0.54053   0.00000  Uiso   1.00
H964   H     0.52439   0.94365   0.95947   0.00000  Uiso   1.00
H965   H     0.37072   0.76038   0.75163   0.00000  Uiso   1.00
H966   H     0.62928   0.90629   0.74837   0.00000  Uiso   1.00
H967   H     0.62929   0.76037   0.75114   0.00000  Uiso   1.00
H968   H     0.37071   0.90629   0.74886   0.00000  Uiso   1.00
N969   N     0.50000   0.95240   0.75000   0.00000  Uiso   1.00
N970   N     0.50000   0.71427   0.75000   0.00000  Uiso   1.00
O971   O     0.43892   0.87154   0.74999   0.00000  Uiso   1.00
O972   O     0.56108   0.79513   0.75000   0.00000  Uiso   1.00
O973   O     0.56108   0.87154   0.75000   0.00000  Uiso   1.00
O974   O     0.43892   0.79513   0.74999   0.00000  Uiso   1.00
O975   O     0.49999   0.87156   0.68392   0.00000  Uiso   1.00
O976   O     0.50001   0.79511   0.81607   0.00000  Uiso   1.00
O977   O     0.50001   0.87156   0.81607   0.00000  Uiso   1.00
O978   O     0.49999   0.79511   0.68392   0.00000  Uiso   1.00
Zn979  Zn    0.50000   0.88437   0.75000   0.00000  Uiso   1.00
Zn980  Zn    0.50000   0.78229   0.75000   0.00000  Uiso   1.00
Br981  Br    0.46903   0.69686   0.94726   0.00000  Uiso   1.00
Br982  Br    0.53097   0.96980   0.55274   0.00000  Uiso   1.00
Br983  Br    0.56342   0.72222   0.81879   0.00000  Uiso   1.00
Br984  Br    0.43658   0.94445   0.68121   0.00000  Uiso   1.00
Br985  Br    0.43568   0.72159   0.68222   0.00000  Uiso   1.00
Br986  Br    0.56432   0.94507   0.81778   0.00000  Uiso   1.00
C987   C     0.75336   0.83333   0.75002   0.00000  Uiso   1.00
C988   C     0.91330   0.83334   0.74998   0.00000  Uiso   1.00
C989   C     0.81587   0.75363   0.52273   0.00000  Uiso   1.00
C990   C     0.85080   0.91303   0.97727   0.00000  Uiso   1.00
C991   C     0.68795   0.79235   0.75086   0.00000  Uiso   1.00
C992   C     0.97871   0.87432   0.74914   0.00000  Uiso   1.00
C993   C     0.97872   0.79235   0.75067   0.00000  Uiso   1.00
C994   C     0.68795   0.87431   0.74933   0.00000  Uiso   1.00
C995   C     0.95750   0.83334   0.74990   0.00000  Uiso   1.00
C996   C     0.70917   0.83333   0.75010   0.00000  Uiso   1.00
C997   C     0.85961   0.69071   0.77820   0.00000  Uiso   1.00
C998   C     0.80706   0.97596   0.72180   0.00000  Uiso   1.00
C999   C     0.80697   0.69045   0.72190   0.00000  Uiso   1.00
C1000  C     0.85969   0.97621   0.77810   0.00000  Uiso   1.00
C1001  C     0.83344   0.83328   0.66338   0.00000  Uiso   1.00
C1002  C     0.83322   0.83339   0.83661   0.00000  Uiso   1.00
C1003  C     0.84123   0.87319   0.90790   0.00000  Uiso   1.00
C1004  C     0.82544   0.79348   0.59210   0.00000  Uiso   1.00
C1005  C     0.83290   0.83341   0.88457   0.00000  Uiso   1.00
C1006  C     0.83377   0.83326   0.61543   0.00000  Uiso   1.00
C1007  C     0.82435   0.79351   0.90694   0.00000  Uiso   1.00
C1008  C     0.84231   0.87316   0.59306   0.00000  Uiso   1.00
C1009  C     0.82421   0.79282   0.95319   0.00000  Uiso   1.00
C1010  C     0.84246   0.87385   0.54681   0.00000  Uiso   1.00
C1011  C     0.83314   0.83318   0.97679   0.00000  Uiso   1.00
C1012  C     0.83352   0.83348   0.52321   0.00000  Uiso   1.00
C1013  C     0.84170   0.87332   0.95394   0.00000  Uiso   1.00
C1014  C     0.82496   0.79334   0.54606   0.00000  Uiso   1.00
C1015  C     0.81543   0.75301   0.97644   0.00000  Uiso   1.00
C1016  C     0.85124   0.91365   0.52356   0.00000  Uiso   1.00
H1017  H     0.84768   0.90405   0.89032   0.00000  Uiso   1.00
H1018  H     0.81898   0.76262   0.60968   0.00000  Uiso   1.00
H1019  H     0.81763   0.76323   0.88800   0.00000  Uiso   1.00
H1020  H     0.84903   0.90343   0.61200   0.00000  Uiso   1.00
H1021  H     0.80894   0.72302   0.54053   0.00000  Uiso   1.00
H1022  H     0.85772   0.94365   0.95947   0.00000  Uiso   1.00
H1023  H     0.70405   0.76038   0.75163   0.00000  Uiso   1.00
H1024  H     0.96262   0.90629   0.74837   0.00000  Uiso   1.00
H1025  H     0.96262   0.76037   0.75114   0.00000  Uiso   1.00
H1026  H     0.70405   0.90629   0.74886   0.00000  Uiso   1.00
N1027  N     0.83333   0.95240   0.75000   0.00000  Uiso   1.00
N1028  N     0.83333   0.71427   0.75000   0.00000  Uiso   1.00
O1029  O     0.77226   0.87154   0.74999   0.00000  Uiso   1.00
O1030  O     0.89441   0.79513   0.75000   0.00000  Uiso   1.00
O1031  O     0.89441   0.87154   0.75000   0.00000  Uiso   1.00
O1032  O     0.77226   0.79513   0.74999   0.00000  Uiso   1.00
O1033  O     0.83333   0.87156   0.68392   0.00000  Uiso   1.00
O1034  O     0.83334   0.79511   0.81607   0.00000  Uiso   1.00
O1035  O     0.83334   0.87156   0.81607   0.00000  Uiso   1.00
O1036  O     0.83333   0.79511   0.68392   0.00000  Uiso   1.00
Zn1037 Zn    0.83333   0.88437   0.75000   0.00000  Uiso   1.00
Zn1038 Zn    0.83333   0.78229   0.75000   0.00000  Uiso   1.00
Br1039 Br    0.80236   0.69686   0.94726   0.00000  Uiso   1.00
Br1040 Br    0.86431   0.96980   0.55274   0.00000  Uiso   1.00
Br1041 Br    0.89675   0.72222   0.81879   0.00000  Uiso   1.00
Br1042 Br    0.76991   0.94445   0.68121   0.00000  Uiso   1.00
Br1043 Br    0.76901   0.72159   0.68222   0.00000  Uiso   1.00
Br1044 Br    0.89766   0.94507   0.81778   0.00000  Uiso   1.00
loop_
_geom_bond_atom_site_label_1
_geom_bond_atom_site_label_2
_geom_bond_distance
_geom_bond_site_symmetry_2
_ccdc_geom_bond_type
C1     O46     1.289   .     A
C1     O43     1.289   .     A
C1     C10     1.422   .     S
C2     O45     1.289   .     A
C2     C9      1.422   .     S
C2     O44     1.289   .     A
C3     H35     1.084   .     S
C3     C28     1.397   .     A
C3     C551    1.389   1_554 S
C4     H36     1.084   .     S
C4     C27     1.397   .     A
C4     C552    1.389   .     S
C5     H37     1.083   .     S
C5     C10     1.397   .     A
C5     C123    1.369   1_455 S
C6     C9      1.397   .     A
C6     H38     1.083   .     S
C6     C66     1.369   .     S
C7     C9      1.398   .     A
C7     H39     1.083   .     S
C7     C63     1.369   .     S
C8     C10     1.398   .     A
C8     H40     1.083   .     S
C8     C122    1.369   1_455 S
C11    Br55    1.921   .     S
C11    N42     1.372   .     A
C11    C362    1.423   1_545 S
C12    N41     1.372   .     A
C12    Br56    1.921   .     S
C12    C187    1.423   .     S
C13    Br57    1.920   .     S
C13    N42     1.372   .     A
C13    C360    1.423   1_545 S
C14    N41     1.372   .     A
C14    Br58    1.920   .     S
C14    C185    1.423   .     S
C15    C20     1.440   .     S
C15    O50     1.294   .     A
C15    O47     1.293   .     A
C16    O48     1.293   .     A
C16    O49     1.294   .     A
C16    C19     1.440   .     S
C17    H31     1.083   .     S
C17    C27     1.382   .     A
C17    C19     1.394   .     A
C18    C28     1.382   .     A
C18    C20     1.394   .     A
C18    H32     1.083   .     S
C19    C21     1.397   .     A
C20    C22     1.397   .     A
C21    H33     1.081   .     S
C21    C23     1.388   .     A
C22    H34     1.081   .     S
C22    C24     1.388   .     A
C23    C29     1.410   .     A
C23    C25     1.417   .     A
C24    C26     1.417   .     A
C24    C30     1.410   .     A
C25    C27     1.410   .     A
C25    C548    1.393   .     S
C26    C28     1.410   .     A
C26    C547    1.393   1_554 S
C29    Br53    1.923   .     S
C29    C525    1.389   .     S
C30    Br54    1.923   .     S
C30    C526    1.389   1_554 S
N41    Zn51    2.024   .     S
N42    Zn52    2.024   .     S
O43    Zn51    2.001   .     S
O44    Zn52    2.001   .     S
O45    Zn51    2.002   .     S
O46    Zn52    2.002   .     S
O47    Zn51    2.018   .     S
O48    Zn52    2.018   .     S
O49    Zn51    2.021   .     S
O50    Zn52    2.021   .     S
C59    O104    1.289   .     A
C59    O101    1.289   .     A
C59    C68     1.422   .     S
C60    O103    1.289   .     A
C60    C67     1.422   .     S
C60    O102    1.289   .     A
C61    H93     1.084   .     S
C61    C86     1.397   .     A
C61    C609    1.389   1_554 S
C62    H94     1.084   .     S
C62    C85     1.397   .     A
C62    C610    1.389   .     S
C63    H95     1.083   .     S
C63    C68     1.397   .     A
C64    C67     1.397   .     A
C64    H96     1.083   .     S
C64    C124    1.369   .     S
C65    C67     1.398   .     A
C65    H97     1.083   .     S
C65    C121    1.369   .     S
C66    C68     1.398   .     A
C66    H98     1.083   .     S
C69    Br113   1.921   .     S
C69    N100    1.372   .     A
C69    C420    1.423   1_545 S
C70    N99     1.372   .     A
C70    Br114   1.921   .     S
C70    C245    1.423   .     S
C71    Br115   1.920   .     S
C71    N100    1.372   .     A
C71    C418    1.423   1_545 S
C72    N99     1.372   .     A
C72    Br116   1.920   .     S
C72    C243    1.423   .     S
C73    C78     1.440   .     S
C73    O108    1.294   .     A
C73    O105    1.293   .     A
C74    O106    1.293   .     A
C74    O107    1.294   .     A
C74    C77     1.440   .     S
C75    H89     1.083   .     S
C75    C85     1.382   .     A
C75    C77     1.394   .     A
C76    C86     1.382   .     A
C76    C78     1.394   .     A
C76    H90     1.083   .     S
C77    C79     1.397   .     A
C78    C80     1.397   .     A
C79    H91     1.081   .     S
C79    C81     1.388   .     A
C80    H92     1.081   .     S
C80    C82     1.388   .     A
C81    C87     1.410   .     A
C81    C83     1.417   .     A
C82    C84     1.417   .     A
C82    C88     1.410   .     A
C83    C85     1.410   .     A
C83    C606    1.393   .     S
C84    C86     1.410   .     A
C84    C605    1.393   1_554 S
C87    Br111   1.923   .     S
C87    C583    1.389   .     S
C88    Br112   1.923   .     S
C88    C584    1.389   1_554 S
N99    Zn109   2.024   .     S
N100   Zn110   2.024   .     S
O101   Zn109   2.001   .     S
O102   Zn110   2.001   .     S
O103   Zn109   2.002   .     S
O104   Zn110   2.002   .     S
O105   Zn109   2.018   .     S
O106   Zn110   2.018   .     S
O107   Zn109   2.021   .     S
O108   Zn110   2.021   .     S
C117   O162    1.289   .     A
C117   O159    1.289   .     A
C117   C126    1.422   .     S
C118   O161    1.289   .     A
C118   C125    1.422   .     S
C118   O160    1.289   .     A
C119   H151    1.084   .     S
C119   C144    1.397   .     A
C119   C667    1.389   1_554 S
C120   H152    1.084   .     S
C120   C143    1.397   .     A
C120   C668    1.389   .     S
C121   H153    1.083   .     S
C121   C126    1.397   .     A
C122   C125    1.397   .     A
C122   H154    1.083   .     S
C122   C8      1.369   1_655 S
C123   C125    1.398   .     A
C123   H155    1.083   .     S
C123   C5      1.369   1_655 S
C124   C126    1.398   .     A
C124   H156    1.083   .     S
C127   Br171   1.921   .     S
C127   N158    1.372   .     A
C127   C478    1.423   1_545 S
C128   N157    1.372   .     A
C128   Br172   1.921   .     S
C128   C303    1.423   .     S
C129   Br173   1.920   .     S
C129   N158    1.372   .     A
C129   C476    1.423   1_545 S
C130   N157    1.372   .     A
C130   Br174   1.920   .     S
C130   C301    1.423   .     S
C131   C136    1.440   .     S
C131   O166    1.294   .     A
C131   O163    1.293   .     A
C132   O164    1.293   .     A
C132   O165    1.294   .     A
C132   C135    1.440   .     S
C133   H147    1.083   .     S
C133   C143    1.382   .     A
C133   C135    1.394   .     A
C134   C144    1.382   .     A
C134   C136    1.394   .     A
C134   H148    1.083   .     S
C135   C137    1.397   .     A
C136   C138    1.397   .     A
C137   H149    1.081   .     S
C137   C139    1.388   .     A
C138   H150    1.081   .     S
C138   C140    1.388   .     A
C139   C145    1.410   .     A
C139   C141    1.417   .     A
C140   C142    1.417   .     A
C140   C146    1.410   .     A
C141   C143    1.410   .     A
C141   C664    1.393   .     S
C142   C144    1.410   .     A
C142   C663    1.393   1_554 S
C145   Br169   1.923   .     S
C145   C641    1.389   .     S
C146   Br170   1.923   .     S
C146   C642    1.389   1_554 S
N157   Zn167   2.024   .     S
N158   Zn168   2.024   .     S
O159   Zn167   2.001   .     S
O160   Zn168   2.001   .     S
O161   Zn167   2.002   .     S
O162   Zn168   2.002   .     S
O163   Zn167   2.018   .     S
O164   Zn168   2.018   .     S
O165   Zn167   2.021   .     S
O166   Zn168   2.021   .     S
C175   O220    1.289   .     A
C175   O217    1.289   .     A
C175   C184    1.422   .     S
C176   O219    1.289   .     A
C176   C183    1.422   .     S
C176   O218    1.289   .     A
C177   H209    1.084   .     S
C177   C202    1.397   .     A
C177   C725    1.389   1_554 S
C178   H210    1.084   .     S
C178   C201    1.397   .     A
C178   C726    1.389   .     S
C179   H211    1.083   .     S
C179   C184    1.397   .     A
C179   C297    1.369   1_455 S
C180   C183    1.397   .     A
C180   H212    1.083   .     S
C180   C240    1.369   .     S
C181   C183    1.398   .     A
C181   H213    1.083   .     S
C181   C237    1.369   .     S
C182   C184    1.398   .     A
C182   H214    1.083   .     S
C182   C296    1.369   1_455 S
C185   Br229   1.921   .     S
C185   N216    1.372   .     A
C186   N215    1.372   .     A
C186   Br230   1.921   .     S
C186   C361    1.423   .     S
C187   Br231   1.920   .     S
C187   N216    1.372   .     A
C188   N215    1.372   .     A
C188   Br232   1.920   .     S
C188   C359    1.423   .     S
C189   C194    1.440   .     S
C189   O224    1.294   .     A
C189   O221    1.293   .     A
C190   O222    1.293   .     A
C190   O223    1.294   .     A
C190   C193    1.440   .     S
C191   H205    1.083   .     S
C191   C201    1.382   .     A
C191   C193    1.394   .     A
C192   C202    1.382   .     A
C192   C194    1.394   .     A
C192   H206    1.083   .     S
C193   C195    1.397   .     A
C194   C196    1.397   .     A
C195   H207    1.081   .     S
C195   C197    1.388   .     A
C196   H208    1.081   .     S
C196   C198    1.388   .     A
C197   C203    1.410   .     A
C197   C199    1.417   .     A
C198   C200    1.417   .     A
C198   C204    1.410   .     A
C199   C201    1.410   .     A
C199   C722    1.393   .     S
C200   C202    1.410   .     A
C200   C721    1.393   1_554 S
C203   Br227   1.923   .     S
C203   C699    1.389   .     S
C204   Br228   1.923   .     S
C204   C700    1.389   1_554 S
N215   Zn225   2.024   .     S
N216   Zn226   2.024   .     S
O217   Zn225   2.001   .     S
O218   Zn226   2.001   .     S
O219   Zn225   2.002   .     S
O220   Zn226   2.002   .     S
O221   Zn225   2.018   .     S
O222   Zn226   2.018   .     S
O223   Zn225   2.021   .     S
O224   Zn226   2.021   .     S
C233   O278    1.289   .     A
C233   O275    1.289   .     A
C233   C242    1.422   .     S
C234   O277    1.289   .     A
C234   C241    1.422   .     S
C234   O276    1.289   .     A
C235   H267    1.084   .     S
C235   C260    1.397   .     A
C235   C783    1.389   1_554 S
C236   H268    1.084   .     S
C236   C259    1.397   .     A
C236   C784    1.389   .     S
C237   H269    1.083   .     S
C237   C242    1.397   .     A
C238   C241    1.397   .     A
C238   H270    1.083   .     S
C238   C298    1.369   .     S
C239   C241    1.398   .     A
C239   H271    1.083   .     S
C239   C295    1.369   .     S
C240   C242    1.398   .     A
C240   H272    1.083   .     S
C243   Br287   1.921   .     S
C243   N274    1.372   .     A
C244   N273    1.372   .     A
C244   Br288   1.921   .     S
C244   C419    1.423   .     S
C245   Br289   1.920   .     S
C245   N274    1.372   .     A
C246   N273    1.372   .     A
C246   Br290   1.920   .     S
C246   C417    1.423   .     S
C247   C252    1.440   .     S
C247   O282    1.294   .     A
C247   O279    1.293   .     A
C248   O280    1.293   .     A
C248   O281    1.294   .     A
C248   C251    1.440   .     S
C249   H263    1.083   .     S
C249   C259    1.382   .     A
C249   C251    1.394   .     A
C250   C260    1.382   .     A
C250   C252    1.394   .     A
C250   H264    1.083   .     S
C251   C253    1.397   .     A
C252   C254    1.397   .     A
C253   H265    1.081   .     S
C253   C255    1.388   .     A
C254   H266    1.081   .     S
C254   C256    1.388   .     A
C255   C261    1.410   .     A
C255   C257    1.417   .     A
C256   C258    1.417   .     A
C256   C262    1.410   .     A
C257   C259    1.410   .     A
C257   C780    1.393   .     S
C258   C260    1.410   .     A
C258   C779    1.393   1_554 S
C261   Br285   1.923   .     S
C261   C757    1.389   .     S
C262   Br286   1.923   .     S
C262   C758    1.389   1_554 S
N273   Zn283   2.024   .     S
N274   Zn284   2.024   .     S
O275   Zn283   2.001   .     S
O276   Zn284   2.001   .     S
O277   Zn283   2.002   .     S
O278   Zn284   2.002   .     S
O279   Zn283   2.018   .     S
O280   Zn284   2.018   .     S
O281   Zn283   2.021   .     S
O282   Zn284   2.021   .     S
C291   O336    1.289   .     A
C291   O333    1.289   .     A
C291   C300    1.422   .     S
C292   O335    1.289   .     A
C292   C299    1.422   .     S
C292   O334    1.289   .     A
C293   H325    1.084   .     S
C293   C318    1.397   .     A
C293   C841    1.389   1_554 S
C294   H326    1.084   .     S
C294   C317    1.397   .     A
C294   C842    1.389   .     S
C295   H327    1.083   .     S
C295   C300    1.397   .     A
C296   C299    1.397   .     A
C296   H328    1.083   .     S
C296   C182    1.369   1_655 S
C297   C299    1.398   .     A
C297   H329    1.083   .     S
C297   C179    1.369   1_655 S
C298   C300    1.398   .     A
C298   H330    1.083   .     S
C301   Br345   1.921   .     S
C301   N332    1.372   .     A
C302   N331    1.372   .     A
C302   Br346   1.921   .     S
C302   C477    1.423   .     S
C303   Br347   1.920   .     S
C303   N332    1.372   .     A
C304   N331    1.372   .     A
C304   Br348   1.920   .     S
C304   C475    1.423   .     S
C305   C310    1.440   .     S
C305   O340    1.294   .     A
C305   O337    1.293   .     A
C306   O338    1.293   .     A
C306   O339    1.294   .     A
C306   C309    1.440   .     S
C307   H321    1.083   .     S
C307   C317    1.382   .     A
C307   C309    1.394   .     A
C308   C318    1.382   .     A
C308   C310    1.394   .     A
C308   H322    1.083   .     S
C309   C311    1.397   .     A
C310   C312    1.397   .     A
C311   H323    1.081   .     S
C311   C313    1.388   .     A
C312   H324    1.081   .     S
C312   C314    1.388   .     A
C313   C319    1.410   .     A
C313   C315    1.417   .     A
C314   C316    1.417   .     A
C314   C320    1.410   .     A
C315   C317    1.410   .     A
C315   C838    1.393   .     S
C316   C318    1.410   .     A
C316   C837    1.393   1_554 S
C319   Br343   1.923   .     S
C319   C815    1.389   .     S
C320   Br344   1.923   .     S
C320   C816    1.389   1_554 S
N331   Zn341   2.024   .     S
N332   Zn342   2.024   .     S
O333   Zn341   2.001   .     S
O334   Zn342   2.001   .     S
O335   Zn341   2.002   .     S
O336   Zn342   2.002   .     S
O337   Zn341   2.018   .     S
O338   Zn342   2.018   .     S
O339   Zn341   2.021   .     S
O340   Zn342   2.021   .     S
C349   O394    1.289   .     A
C349   O391    1.289   .     A
C349   C358    1.422   .     S
C350   O393    1.289   .     A
C350   C357    1.422   .     S
C350   O392    1.289   .     A
C351   H383    1.084   .     S
C351   C376    1.397   .     A
C351   C899    1.389   1_554 S
C352   H384    1.084   .     S
C352   C375    1.397   .     A
C352   C900    1.389   .     S
C353   H385    1.083   .     S
C353   C358    1.397   .     A
C353   C471    1.369   1_455 S
C354   C357    1.397   .     A
C354   H386    1.083   .     S
C354   C414    1.369   .     S
C355   C357    1.398   .     A
C355   H387    1.083   .     S
C355   C411    1.369   .     S
C356   C358    1.398   .     A
C356   H388    1.083   .     S
C356   C470    1.369   1_455 S
C359   Br403   1.921   .     S
C359   N390    1.372   .     A
C360   N389    1.372   .     A
C360   Br404   1.921   .     S
C360   C13     1.423   1_565 S
C361   Br405   1.920   .     S
C361   N390    1.372   .     A
C362   N389    1.372   .     A
C362   Br406   1.920   .     S
C362   C11     1.423   1_565 S
C363   C368    1.440   .     S
C363   O398    1.294   .     A
C363   O395    1.293   .     A
C364   O396    1.293   .     A
C364   O397    1.294   .     A
C364   C367    1.440   .     S
C365   H379    1.083   .     S
C365   C375    1.382   .     A
C365   C367    1.394   .     A
C366   C376    1.382   .     A
C366   C368    1.394   .     A
C366   H380    1.083   .     S
C367   C369    1.397   .     A
C368   C370    1.397   .     A
C369   H381    1.081   .     S
C369   C371    1.388   .     A
C370   H382    1.081   .     S
C370   C372    1.388   .     A
C371   C377    1.410   .     A
C371   C373    1.417   .     A
C372   C374    1.417   .     A
C372   C378    1.410   .     A
C373   C375    1.410   .     A
C373   C896    1.393   .     S
C374   C376    1.410   .     A
C374   C895    1.393   1_554 S
C377   Br401   1.923   .     S
C377   C873    1.389   .     S
C378   Br402   1.923   .     S
C378   C874    1.389   1_554 S
N389   Zn399   2.024   .     S
N390   Zn400   2.024   .     S
O391   Zn399   2.001   .     S
O392   Zn400   2.001   .     S
O393   Zn399   2.002   .     S
O394   Zn400   2.002   .     S
O395   Zn399   2.018   .     S
O396   Zn400   2.018   .     S
O397   Zn399   2.021   .     S
O398   Zn400   2.021   .     S
C407   O452    1.289   .     A
C407   O449    1.289   .     A
C407   C416    1.422   .     S
C408   O451    1.289   .     A
C408   C415    1.422   .     S
C408   O450    1.289   .     A
C409   H441    1.084   .     S
C409   C434    1.397   .     A
C409   C957    1.389   1_554 S
C410   H442    1.084   .     S
C410   C433    1.397   .     A
C410   C958    1.389   .     S
C411   H443    1.083   .     S
C411   C416    1.397   .     A
C412   C415    1.397   .     A
C412   H444    1.083   .     S
C412   C472    1.369   .     S
C413   C415    1.398   .     A
C413   H445    1.083   .     S
C413   C469    1.369   .     S
C414   C416    1.398   .     A
C414   H446    1.083   .     S
C417   Br461   1.921   .     S
C417   N448    1.372   .     A
C418   N447    1.372   .     A
C418   Br462   1.921   .     S
C418   C71     1.423   1_565 S
C419   Br463   1.920   .     S
C419   N448    1.372   .     A
C420   N447    1.372   .     A
C420   Br464   1.920   .     S
C420   C69     1.423   1_565 S
C421   C426    1.440   .     S
C421   O456    1.294   .     A
C421   O453    1.293   .     A
C422   O454    1.293   .     A
C422   O455    1.294   .     A
C422   C425    1.440   .     S
C423   H437    1.083   .     S
C423   C433    1.382   .     A
C423   C425    1.394   .     A
C424   C434    1.382   .     A
C424   C426    1.394   .     A
C424   H438    1.083   .     S
C425   C427    1.397   .     A
C426   C428    1.397   .     A
C427   H439    1.081   .     S
C427   C429    1.388   .     A
C428   H440    1.081   .     S
C428   C430    1.388   .     A
C429   C435    1.410   .     A
C429   C431    1.417   .     A
C430   C432    1.417   .     A
C430   C436    1.410   .     A
C431   C433    1.410   .     A
C431   C954    1.393   .     S
C432   C434    1.410   .     A
C432   C953    1.393   1_554 S
C435   Br459   1.923   .     S
C435   C931    1.389   .     S
C436   Br460   1.923   .     S
C436   C932    1.389   1_554 S
N447   Zn457   2.024   .     S
N448   Zn458   2.024   .     S
O449   Zn457   2.001   .     S
O450   Zn458   2.001   .     S
O451   Zn457   2.002   .     S
O452   Zn458   2.002   .     S
O453   Zn457   2.018   .     S
O454   Zn458   2.018   .     S
O455   Zn457   2.021   .     S
O456   Zn458   2.021   .     S
C465   O510    1.289   .     A
C465   O507    1.289   .     A
C465   C474    1.422   .     S
C466   O509    1.289   .     A
C466   C473    1.422   .     S
C466   O508    1.289   .     A
C467   H499    1.084   .     S
C467   C492    1.397   .     A
C467   C1015   1.389   1_554 S
C468   H500    1.084   .     S
C468   C491    1.397   .     A
C468   C1016   1.389   .     S
C469   H501    1.083   .     S
C469   C474    1.397   .     A
C470   C473    1.397   .     A
C470   H502    1.083   .     S
C470   C356    1.369   1_655 S
C471   C473    1.398   .     A
C471   H503    1.083   .     S
C471   C353    1.369   1_655 S
C472   C474    1.398   .     A
C472   H504    1.083   .     S
C475   Br519   1.921   .     S
C475   N506    1.372   .     A
C476   N505    1.372   .     A
C476   Br520   1.921   .     S
C476   C129    1.423   1_565 S
C477   Br521   1.920   .     S
C477   N506    1.372   .     A
C478   N505    1.372   .     A
C478   Br522   1.920   .     S
C478   C127    1.423   1_565 S
C479   C484    1.440   .     S
C479   O514    1.294   .     A
C479   O511    1.293   .     A
C480   O512    1.293   .     A
C480   O513    1.294   .     A
C480   C483    1.440   .     S
C481   H495    1.083   .     S
C481   C491    1.382   .     A
C481   C483    1.394   .     A
C482   C492    1.382   .     A
C482   C484    1.394   .     A
C482   H496    1.083   .     S
C483   C485    1.397   .     A
C484   C486    1.397   .     A
C485   H497    1.081   .     S
C485   C487    1.388   .     A
C486   H498    1.081   .     S
C486   C488    1.388   .     A
C487   C493    1.410   .     A
C487   C489    1.417   .     A
C488   C490    1.417   .     A
C488   C494    1.410   .     A
C489   C491    1.410   .     A
C489   C1012   1.393   .     S
C490   C492    1.410   .     A
C490   C1011   1.393   1_554 S
C493   Br517   1.923   .     S
C493   C989    1.389   .     S
C494   Br518   1.923   .     S
C494   C990    1.389   1_554 S
N505   Zn515   2.024   .     S
N506   Zn516   2.024   .     S
O507   Zn515   2.001   .     S
O508   Zn516   2.001   .     S
O509   Zn515   2.002   .     S
O510   Zn516   2.002   .     S
O511   Zn515   2.018   .     S
O512   Zn516   2.018   .     S
O513   Zn515   2.021   .     S
O514   Zn516   2.021   .     S
C523   O568    1.289   .     A
C523   O565    1.289   .     A
C523   C532    1.422   .     S
C524   O567    1.289   .     A
C524   C531    1.422   .     S
C524   O566    1.289   .     A
C525   H557    1.084   .     S
C525   C550    1.397   .     A
C526   H558    1.084   .     S
C526   C549    1.397   .     A
C526   C30     1.389   1_556 S
C527   H559    1.083   .     S
C527   C532    1.397   .     A
C527   C645    1.369   1_455 S
C528   C531    1.397   .     A
C528   H560    1.083   .     S
C528   C588    1.369   .     S
C529   C531    1.398   .     A
C529   H561    1.083   .     S
C529   C585    1.369   .     S
C530   C532    1.398   .     A
C530   H562    1.083   .     S
C530   C644    1.369   1_455 S
C533   Br577   1.921   .     S
C533   N564    1.372   .     A
C533   C884    1.423   1_545 S
C534   N563    1.372   .     A
C534   Br578   1.921   .     S
C534   C709    1.423   .     S
C535   Br579   1.920   .     S
C535   N564    1.372   .     A
C535   C882    1.423   1_545 S
C536   N563    1.372   .     A
C536   Br580   1.920   .     S
C536   C707    1.423   .     S
C537   C542    1.440   .     S
C537   O572    1.294   .     A
C537   O569    1.293   .     A
C538   O570    1.293   .     A
C538   O571    1.294   .     A
C538   C541    1.440   .     S
C539   H553    1.083   .     S
C539   C549    1.382   .     A
C539   C541    1.394   .     A
C540   C550    1.382   .     A
C540   C542    1.394   .     A
C540   H554    1.083   .     S
C541   C543    1.397   .     A
C542   C544    1.397   .     A
C543   H555    1.081   .     S
C543   C545    1.388   .     A
C544   H556    1.081   .     S
C544   C546    1.388   .     A
C545   C551    1.410   .     A
C545   C547    1.417   .     A
C546   C548    1.417   .     A
C546   C552    1.410   .     A
C547   C549    1.410   .     A
C547   C26     1.393   1_556 S
C548   C550    1.410   .     A
C551   Br575   1.923   .     S
C551   C3      1.389   1_556 S
C552   Br576   1.923   .     S
N563   Zn573   2.024   .     S
N564   Zn574   2.024   .     S
O565   Zn573   2.001   .     S
O566   Zn574   2.001   .     S
O567   Zn573   2.002   .     S
O568   Zn574   2.002   .     S
O569   Zn573   2.018   .     S
O570   Zn574   2.018   .     S
O571   Zn573   2.021   .     S
O572   Zn574   2.021   .     S
C581   O626    1.289   .     A
C581   O623    1.289   .     A
C581   C590    1.422   .     S
C582   O625    1.289   .     A
C582   C589    1.422   .     S
C582   O624    1.289   .     A
C583   H615    1.084   .     S
C583   C608    1.397   .     A
C584   H616    1.084   .     S
C584   C607    1.397   .     A
C584   C88     1.389   1_556 S
C585   H617    1.083   .     S
C585   C590    1.397   .     A
C586   C589    1.397   .     A
C586   H618    1.083   .     S
C586   C646    1.369   .     S
C587   C589    1.398   .     A
C587   H619    1.083   .     S
C587   C643    1.369   .     S
C588   C590    1.398   .     A
C588   H620    1.083   .     S
C591   Br635   1.921   .     S
C591   N622    1.372   .     A
C591   C942    1.423   1_545 S
C592   N621    1.372   .     A
C592   Br636   1.921   .     S
C592   C767    1.423   .     S
C593   Br637   1.920   .     S
C593   N622    1.372   .     A
C593   C940    1.423   1_545 S
C594   N621    1.372   .     A
C594   Br638   1.920   .     S
C594   C765    1.423   .     S
C595   C600    1.440   .     S
C595   O630    1.294   .     A
C595   O627    1.293   .     A
C596   O628    1.293   .     A
C596   O629    1.294   .     A
C596   C599    1.440   .     S
C597   H611    1.083   .     S
C597   C607    1.382   .     A
C597   C599    1.394   .     A
C598   C608    1.382   .     A
C598   C600    1.394   .     A
C598   H612    1.083   .     S
C599   C601    1.397   .     A
C600   C602    1.397   .     A
C601   H613    1.081   .     S
C601   C603    1.388   .     A
C602   H614    1.081   .     S
C602   C604    1.388   .     A
C603   C609    1.410   .     A
C603   C605    1.417   .     A
C604   C606    1.417   .     A
C604   C610    1.410   .     A
C605   C607    1.410   .     A
C605   C84     1.393   1_556 S
C606   C608    1.410   .     A
C609   Br633   1.923   .     S
C609   C61     1.389   1_556 S
C610   Br634   1.923   .     S
N621   Zn631   2.024   .     S
N622   Zn632   2.024   .     S
O623   Zn631   2.001   .     S
O624   Zn632   2.001   .     S
O625   Zn631   2.002   .     S
O626   Zn632   2.002   .     S
O627   Zn631   2.018   .     S
O628   Zn632   2.018   .     S
O629   Zn631   2.021   .     S
O630   Zn632   2.021   .     S
C639   O684    1.289   .     A
C639   O681    1.289   .     A
C639   C648    1.422   .     S
C640   O683    1.289   .     A
C640   C647    1.422   .     S
C640   O682    1.289   .     A
C641   H673    1.084   .     S
C641   C666    1.397   .     A
C642   H674    1.084   .     S
C642   C665    1.397   .     A
C642   C146    1.389   1_556 S
C643   H675    1.083   .     S
C643   C648    1.397   .     A
C644   C647    1.397   .     A
C644   H676    1.083   .     S
C644   C530    1.369   1_655 S
C645   C647    1.398   .     A
C645   H677    1.083   .     S
C645   C527    1.369   1_655 S
C646   C648    1.398   .     A
C646   H678    1.083   .     S
C649   Br693   1.921   .     S
C649   N680    1.372   .     A
C649   C1000   1.423   1_545 S
C650   N679    1.372   .     A
C650   Br694   1.921   .     S
C650   C825    1.423   .     S
C651   Br695   1.920   .     S
C651   N680    1.372   .     A
C651   C998    1.423   1_545 S
C652   N679    1.372   .     A
C652   Br696   1.920   .     S
C652   C823    1.423   .     S
C653   C658    1.440   .     S
C653   O688    1.294   .     A
C653   O685    1.293   .     A
C654   O686    1.293   .     A
C654   O687    1.294   .     A
C654   C657    1.440   .     S
C655   H669    1.083   .     S
C655   C665    1.382   .     A
C655   C657    1.394   .     A
C656   C666    1.382   .     A
C656   C658    1.394   .     A
C656   H670    1.083   .     S
C657   C659    1.397   .     A
C658   C660    1.397   .     A
C659   H671    1.081   .     S
C659   C661    1.388   .     A
C660   H672    1.081   .     S
C660   C662    1.388   .     A
C661   C667    1.410   .     A
C661   C663    1.417   .     A
C662   C664    1.417   .     A
C662   C668    1.410   .     A
C663   C665    1.410   .     A
C663   C142    1.393   1_556 S
C664   C666    1.410   .     A
C667   Br691   1.923   .     S
C667   C119    1.389   1_556 S
C668   Br692   1.923   .     S
N679   Zn689   2.024   .     S
N680   Zn690   2.024   .     S
O681   Zn689   2.001   .     S
O682   Zn690   2.001   .     S
O683   Zn689   2.002   .     S
O684   Zn690   2.002   .     S
O685   Zn689   2.018   .     S
O686   Zn690   2.018   .     S
O687   Zn689   2.021   .     S
O688   Zn690   2.021   .     S
C697   O742    1.289   .     A
C697   O739    1.289   .     A
C697   C706    1.422   .     S
C698   O741    1.289   .     A
C698   C705    1.422   .     S
C698   O740    1.289   .     A
C699   H731    1.084   .     S
C699   C724    1.397   .     A
C700   H732    1.084   .     S
C700   C723    1.397   .     A
C700   C204    1.389   1_556 S
C701   H733    1.083   .     S
C701   C706    1.397   .     A
C701   C819    1.369   1_455 S
C702   C705    1.397   .     A
C702   H734    1.083   .     S
C702   C762    1.369   .     S
C703   C705    1.398   .     A
C703   H735    1.083   .     S
C703   C759    1.369   .     S
C704   C706    1.398   .     A
C704   H736    1.083   .     S
C704   C818    1.369   1_455 S
C707   Br751   1.921   .     S
C707   N738    1.372   .     A
C708   N737    1.372   .     A
C708   Br752   1.921   .     S
C708   C883    1.423   .     S
C709   Br753   1.920   .     S
C709   N738    1.372   .     A
C710   N737    1.372   .     A
C710   Br754   1.920   .     S
C710   C881    1.423   .     S
C711   C716    1.440   .     S
C711   O746    1.294   .     A
C711   O743    1.293   .     A
C712   O744    1.293   .     A
C712   O745    1.294   .     A
C712   C715    1.440   .     S
C713   H727    1.083   .     S
C713   C723    1.382   .     A
C713   C715    1.394   .     A
C714   C724    1.382   .     A
C714   C716    1.394   .     A
C714   H728    1.083   .     S
C715   C717    1.397   .     A
C716   C718    1.397   .     A
C717   H729    1.081   .     S
C717   C719    1.388   .     A
C718   H730    1.081   .     S
C718   C720    1.388   .     A
C719   C725    1.410   .     A
C719   C721    1.417   .     A
C720   C722    1.417   .     A
C720   C726    1.410   .     A
C721   C723    1.410   .     A
C721   C200    1.393   1_556 S
C722   C724    1.410   .     A
C725   Br749   1.923   .     S
C725   C177    1.389   1_556 S
C726   Br750   1.923   .     S
N737   Zn747   2.024   .     S
N738   Zn748   2.024   .     S
O739   Zn747   2.001   .     S
O740   Zn748   2.001   .     S
O741   Zn747   2.002   .     S
O742   Zn748   2.002   .     S
O743   Zn747   2.018   .     S
O744   Zn748   2.018   .     S
O745   Zn747   2.021   .     S
O746   Zn748   2.021   .     S
C755   O800    1.289   .     A
C755   O797    1.289   .     A
C755   C764    1.422   .     S
C756   O799    1.289   .     A
C756   C763    1.422   .     S
C756   O798    1.289   .     A
C757   H789    1.084   .     S
C757   C782    1.397   .     A
C758   H790    1.084   .     S
C758   C781    1.397   .     A
C758   C262    1.389   1_556 S
C759   H791    1.083   .     S
C759   C764    1.397   .     A
C760   C763    1.397   .     A
C760   H792    1.083   .     S
C760   C820    1.369   .     S
C761   C763    1.398   .     A
C761   H793    1.083   .     S
C761   C817    1.369   .     S
C762   C764    1.398   .     A
C762   H794    1.083   .     S
C765   Br809   1.921   .     S
C765   N796    1.372   .     A
C766   N795    1.372   .     A
C766   Br810   1.921   .     S
C766   C941    1.423   .     S
C767   Br811   1.920   .     S
C767   N796    1.372   .     A
C768   N795    1.372   .     A
C768   Br812   1.920   .     S
C768   C939    1.423   .     S
C769   C774    1.440   .     S
C769   O804    1.294   .     A
C769   O801    1.293   .     A
C770   O802    1.293   .     A
C770   O803    1.294   .     A
C770   C773    1.440   .     S
C771   H785    1.083   .     S
C771   C781    1.382   .     A
C771   C773    1.394   .     A
C772   C782    1.382   .     A
C772   C774    1.394   .     A
C772   H786    1.083   .     S
C773   C775    1.397   .     A
C774   C776    1.397   .     A
C775   H787    1.081   .     S
C775   C777    1.388   .     A
C776   H788    1.081   .     S
C776   C778    1.388   .     A
C777   C783    1.410   .     A
C777   C779    1.417   .     A
C778   C780    1.417   .     A
C778   C784    1.410   .     A
C779   C781    1.410   .     A
C779   C258    1.393   1_556 S
C780   C782    1.410   .     A
C783   Br807   1.923   .     S
C783   C235    1.389   1_556 S
C784   Br808   1.923   .     S
N795   Zn805   2.024   .     S
N796   Zn806   2.024   .     S
O797   Zn805   2.001   .     S
O798   Zn806   2.001   .     S
O799   Zn805   2.002   .     S
O800   Zn806   2.002   .     S
O801   Zn805   2.018   .     S
O802   Zn806   2.018   .     S
O803   Zn805   2.021   .     S
O804   Zn806   2.021   .     S
C813   O858    1.289   .     A
C813   O855    1.289   .     A
C813   C822    1.422   .     S
C814   O857    1.289   .     A
C814   C821    1.422   .     S
C814   O856    1.289   .     A
C815   H847    1.084   .     S
C815   C840    1.397   .     A
C816   H848    1.084   .     S
C816   C839    1.397   .     A
C816   C320    1.389   1_556 S
C817   H849    1.083   .     S
C817   C822    1.397   .     A
C818   C821    1.397   .     A
C818   H850    1.083   .     S
C818   C704    1.369   1_655 S
C819   C821    1.398   .     A
C819   H851    1.083   .     S
C819   C701    1.369   1_655 S
C820   C822    1.398   .     A
C820   H852    1.083   .     S
C823   Br867   1.921   .     S
C823   N854    1.372   .     A
C824   N853    1.372   .     A
C824   Br868   1.921   .     S
C824   C999    1.423   .     S
C825   Br869   1.920   .     S
C825   N854    1.372   .     A
C826   N853    1.372   .     A
C826   Br870   1.920   .     S
C826   C997    1.423   .     S
C827   C832    1.440   .     S
C827   O862    1.294   .     A
C827   O859    1.293   .     A
C828   O860    1.293   .     A
C828   O861    1.294   .     A
C828   C831    1.440   .     S
C829   H843    1.083   .     S
C829   C839    1.382   .     A
C829   C831    1.394   .     A
C830   C840    1.382   .     A
C830   C832    1.394   .     A
C830   H844    1.083   .     S
C831   C833    1.397   .     A
C832   C834    1.397   .     A
C833   H845    1.081   .     S
C833   C835    1.388   .     A
C834   H846    1.081   .     S
C834   C836    1.388   .     A
C835   C841    1.410   .     A
C835   C837    1.417   .     A
C836   C838    1.417   .     A
C836   C842    1.410   .     A
C837   C839    1.410   .     A
C837   C316    1.393   1_556 S
C838   C840    1.410   .     A
C841   Br865   1.923   .     S
C841   C293    1.389   1_556 S
C842   Br866   1.923   .     S
N853   Zn863   2.024   .     S
N854   Zn864   2.024   .     S
O855   Zn863   2.001   .     S
O856   Zn864   2.001   .     S
O857   Zn863   2.002   .     S
O858   Zn864   2.002   .     S
O859   Zn863   2.018   .     S
O860   Zn864   2.018   .     S
O861   Zn863   2.021   .     S
O862   Zn864   2.021   .     S
C871   O916    1.289   .     A
C871   O913    1.289   .     A
C871   C880    1.422   .     S
C872   O915    1.289   .     A
C872   C879    1.422   .     S
C872   O914    1.289   .     A
C873   H905    1.084   .     S
C873   C898    1.397   .     A
C874   H906    1.084   .     S
C874   C897    1.397   .     A
C874   C378    1.389   1_556 S
C875   H907    1.083   .     S
C875   C880    1.397   .     A
C875   C993    1.369   1_455 S
C876   C879    1.397   .     A
C876   H908    1.083   .     S
C876   C936    1.369   .     S
C877   C879    1.398   .     A
C877   H909    1.083   .     S
C877   C933    1.369   .     S
C878   C880    1.398   .     A
C878   H910    1.083   .     S
C878   C992    1.369   1_455 S
C881   Br925   1.921   .     S
C881   N912    1.372   .     A
C882   N911    1.372   .     A
C882   Br926   1.921   .     S
C882   C535    1.423   1_565 S
C883   Br927   1.920   .     S
C883   N912    1.372   .     A
C884   N911    1.372   .     A
C884   Br928   1.920   .     S
C884   C533    1.423   1_565 S
C885   C890    1.440   .     S
C885   O920    1.294   .     A
C885   O917    1.293   .     A
C886   O918    1.293   .     A
C886   O919    1.294   .     A
C886   C889    1.440   .     S
C887   H901    1.083   .     S
C887   C897    1.382   .     A
C887   C889    1.394   .     A
C888   C898    1.382   .     A
C888   C890    1.394   .     A
C888   H902    1.083   .     S
C889   C891    1.397   .     A
C890   C892    1.397   .     A
C891   H903    1.081   .     S
C891   C893    1.388   .     A
C892   H904    1.081   .     S
C892   C894    1.388   .     A
C893   C899    1.410   .     A
C893   C895    1.417   .     A
C894   C896    1.417   .     A
C894   C900    1.410   .     A
C895   C897    1.410   .     A
C895   C374    1.393   1_556 S
C896   C898    1.410   .     A
C899   Br923   1.923   .     S
C899   C351    1.389   1_556 S
C900   Br924   1.923   .     S
N911   Zn921   2.024   .     S
N912   Zn922   2.024   .     S
O913   Zn921   2.001   .     S
O914   Zn922   2.001   .     S
O915   Zn921   2.002   .     S
O916   Zn922   2.002   .     S
O917   Zn921   2.018   .     S
O918   Zn922   2.018   .     S
O919   Zn921   2.021   .     S
O920   Zn922   2.021   .     S
C929   O974    1.289   .     A
C929   O971    1.289   .     A
C929   C938    1.422   .     S
C930   O973    1.289   .     A
C930   C937    1.422   .     S
C930   O972    1.289   .     A
C931   H963    1.084   .     S
C931   C956    1.397   .     A
C932   H964    1.084   .     S
C932   C955    1.397   .     A
C932   C436    1.389   1_556 S
C933   H965    1.083   .     S
C933   C938    1.397   .     A
C934   C937    1.397   .     A
C934   H966    1.083   .     S
C934   C994    1.369   .     S
C935   C937    1.398   .     A
C935   H967    1.083   .     S
C935   C991    1.369   .     S
C936   C938    1.398   .     A
C936   H968    1.083   .     S
C939   Br983   1.921   .     S
C939   N970    1.372   .     A
C940   N969    1.372   .     A
C940   Br984   1.921   .     S
C940   C593    1.423   1_565 S
C941   Br985   1.920   .     S
C941   N970    1.372   .     A
C942   N969    1.372   .     A
C942   Br986   1.920   .     S
C942   C591    1.423   1_565 S
C943   C948    1.440   .     S
C943   O978    1.294   .     A
C943   O975    1.293   .     A
C944   O976    1.293   .     A
C944   O977    1.294   .     A
C944   C947    1.440   .     S
C945   H959    1.083   .     S
C945   C955    1.382   .     A
C945   C947    1.394   .     A
C946   C956    1.382   .     A
C946   C948    1.394   .     A
C946   H960    1.083   .     S
C947   C949    1.397   .     A
C948   C950    1.397   .     A
C949   H961    1.081   .     S
C949   C951    1.388   .     A
C950   H962    1.081   .     S
C950   C952    1.388   .     A
C951   C957    1.410   .     A
C951   C953    1.417   .     A
C952   C954    1.417   .     A
C952   C958    1.410   .     A
C953   C955    1.410   .     A
C953   C432    1.393   1_556 S
C954   C956    1.410   .     A
C957   Br981   1.923   .     S
C957   C409    1.389   1_556 S
C958   Br982   1.923   .     S
N969   Zn979   2.024   .     S
N970   Zn980   2.024   .     S
O971   Zn979   2.001   .     S
O972   Zn980   2.001   .     S
O973   Zn979   2.002   .     S
O974   Zn980   2.002   .     S
O975   Zn979   2.018   .     S
O976   Zn980   2.018   .     S
O977   Zn979   2.021   .     S
O978   Zn980   2.021   .     S
C987   O1032   1.289   .     A
C987   O1029   1.289   .     A
C987   C996    1.422   .     S
C988   O1031   1.289   .     A
C988   C995    1.422   .     S
C988   O1030   1.289   .     A
C989   H1021   1.084   .     S
C989   C1014   1.397   .     A
C990   H1022   1.084   .     S
C990   C1013   1.397   .     A
C990   C494    1.389   1_556 S
C991   H1023   1.083   .     S
C991   C996    1.397   .     A
C992   C995    1.397   .     A
C992   H1024   1.083   .     S
C992   C878    1.369   1_655 S
C993   C995    1.398   .     A
C993   H1025   1.083   .     S
C993   C875    1.369   1_655 S
C994   C996    1.398   .     A
C994   H1026   1.083   .     S
C997   Br1041  1.921   .     S
C997   N1028   1.372   .     A
C998   N1027   1.372   .     A
C998   Br1042  1.921   .     S
C998   C651    1.423   1_565 S
C999   Br1043  1.920   .     S
C999   N1028   1.372   .     A
C1000  N1027   1.372   .     A
C1000  Br1044  1.920   .     S
C1000  C649    1.423   1_565 S
C1001  C1006   1.440   .     S
C1001  O1036   1.294   .     A
C1001  O1033   1.293   .     A
C1002  O1034   1.293   .     A
C1002  O1035   1.294   .     A
C1002  C1005   1.440   .     S
C1003  H1017   1.083   .     S
C1003  C1013   1.382   .     A
C1003  C1005   1.394   .     A
C1004  C1014   1.382   .     A
C1004  C1006   1.394   .     A
C1004  H1018   1.083   .     S
C1005  C1007   1.397   .     A
C1006  C1008   1.397   .     A
C1007  H1019   1.081   .     S
C1007  C1009   1.388   .     A
C1008  H1020   1.081   .     S
C1008  C1010   1.388   .     A
C1009  C1015   1.410   .     A
C1009  C1011   1.417   .     A
C1010  C1012   1.417   .     A
C1010  C1016   1.410   .     A
C1011  C1013   1.410   .     A
C1011  C490    1.393   1_556 S
C1012  C1014   1.410   .     A
C1015  Br1039  1.923   .     S
C1015  C467    1.389   1_556 S
C1016  Br1040  1.923   .     S
N1027  Zn1037  2.024   .     S
N1028  Zn1038  2.024   .     S
O1029  Zn1037  2.001   .     S
O1030  Zn1038  2.001   .     S
O1031  Zn1037  2.002   .     S
O1032  Zn1038  2.002   .     S
O1033  Zn1037  2.018   .     S
O1034  Zn1038  2.018   .     S
O1035  Zn1037  2.021   .     S
O1036  Zn1038  2.021   .     S
