data_str_m3_o1_o10_pcu_sym.179
_audit_creation_date              2020-01-03
_audit_creation_method            'Materials Studio'
_symmetry_space_group_name_H-M    'P1'
_symmetry_Int_Tables_number       1
_symmetry_cell_setting            triclinic
loop_
_symmetry_equiv_pos_as_xyz
  x,y,z
_cell_length_a                    25.7668
_cell_length_b                    31.9470
_cell_length_c                    29.5826
_cell_angle_alpha                 89.9677
_cell_angle_beta                  98.6047
_cell_angle_gamma                 90.1296
loop_
_atom_site_label
_atom_site_type_symbol
_atom_site_fract_x
_atom_site_fract_y
_atom_site_fract_z
_atom_site_U_iso_or_equiv
_atom_site_adp_type
_atom_site_occupancy
C1     C     0.16666   0.08680   0.16666   0.00000  Uiso   1.00
C2     C     0.16668   0.24653   0.16667   0.00000  Uiso   1.00
C3     C     0.06705   0.16666   0.15471   0.00000  Uiso   1.00
C4     C     0.26628   0.16667   0.17863   0.00000  Uiso   1.00
C5     C     0.01201   0.16670   0.14827   0.00000  Uiso   1.00
C6     C     0.32132   0.16664   0.18506   0.00000  Uiso   1.00
C7     C     0.12681   0.02167   0.13798   0.00000  Uiso   1.00
C8     C     0.20652   0.31166   0.19535   0.00000  Uiso   1.00
C9     C     0.12681   0.31155   0.13798   0.00000  Uiso   1.00
C10    C     0.20652   0.02179   0.19535   0.00000  Uiso   1.00
C11    C     0.16667   0.29067   0.16666   0.00000  Uiso   1.00
C12    C     0.16666   0.04266   0.16667   0.00000  Uiso   1.00
C13    C     0.19915   0.19282   0.02816   0.00000  Uiso   1.00
C14    C     0.13418   0.14052   0.30517   0.00000  Uiso   1.00
C15    C     0.19913   0.19281   0.31357   0.00000  Uiso   1.00
C16    C     0.13420   0.14052   0.01976   0.00000  Uiso   1.00
H17    H     0.32474   0.16679   0.11337   0.00000  Uiso   1.00
H18    H     0.00860   0.16654   0.21996   0.00000  Uiso   1.00
H19    H     0.22515   0.21374   0.04964   0.00000  Uiso   1.00
H20    H     0.10818   0.11960   0.28369   0.00000  Uiso   1.00
H21    H     0.22511   0.21374   0.29882   0.00000  Uiso   1.00
H22    H     0.10823   0.11960   0.03452   0.00000  Uiso   1.00
N23    N     0.16665   0.16666   0.28573   0.00000  Uiso   1.00
N24    N     0.16668   0.16668   0.04760   0.00000  Uiso   1.00
O25    O     0.16666   0.10558   0.20487   0.00000  Uiso   1.00
O26    O     0.16667   0.22775   0.12846   0.00000  Uiso   1.00
O27    O     0.16666   0.10559   0.12843   0.00000  Uiso   1.00
O28    O     0.16667   0.22774   0.20490   0.00000  Uiso   1.00
O29    O     0.09058   0.16666   0.19595   0.00000  Uiso   1.00
O30    O     0.24275   0.16667   0.13739   0.00000  Uiso   1.00
O31    O     0.09058   0.16667   0.11950   0.00000  Uiso   1.00
O32    O     0.24275   0.16666   0.21383   0.00000  Uiso   1.00
Zn33   Zn    0.16667   0.16666   0.21771   0.00000  Uiso   1.00
Zn34   Zn    0.16667   0.16667   0.11563   0.00000  Uiso   1.00
N35    N     0.08626   0.04487   0.11011   0.00000  Uiso   1.00
H36    H     0.04996   0.03661   0.11926   0.00000  Uiso   1.00
H37    H     0.08640   0.03693   0.07586   0.00000  Uiso   1.00
N38    N     0.24708   0.28846   0.22323   0.00000  Uiso   1.00
H39    H     0.24693   0.29640   0.25748   0.00000  Uiso   1.00
H40    H     0.28337   0.29672   0.21407   0.00000  Uiso   1.00
N41    N     0.08623   0.28824   0.11014   0.00000  Uiso   1.00
H42    H     0.04996   0.29633   0.11938   0.00000  Uiso   1.00
H43    H     0.08629   0.29625   0.07590   0.00000  Uiso   1.00
N44    N     0.24711   0.04510   0.22319   0.00000  Uiso   1.00
H45    H     0.24705   0.03708   0.25744   0.00000  Uiso   1.00
H46    H     0.28337   0.03701   0.21396   0.00000  Uiso   1.00
C47    C     0.49999   0.08680   0.16666   0.00000  Uiso   1.00
C48    C     0.50001   0.24653   0.16667   0.00000  Uiso   1.00
C49    C     0.40039   0.16666   0.15471   0.00000  Uiso   1.00
C50    C     0.59962   0.16667   0.17863   0.00000  Uiso   1.00
C51    C     0.34534   0.16670   0.14827   0.00000  Uiso   1.00
C52    C     0.65466   0.16664   0.18506   0.00000  Uiso   1.00
C53    C     0.46014   0.02167   0.13798   0.00000  Uiso   1.00
C54    C     0.53986   0.31166   0.19535   0.00000  Uiso   1.00
C55    C     0.46014   0.31155   0.13798   0.00000  Uiso   1.00
C56    C     0.53986   0.02179   0.19535   0.00000  Uiso   1.00
C57    C     0.50001   0.29067   0.16666   0.00000  Uiso   1.00
C58    C     0.49999   0.04266   0.16667   0.00000  Uiso   1.00
C59    C     0.53248   0.19282   0.02816   0.00000  Uiso   1.00
C60    C     0.46752   0.14052   0.30517   0.00000  Uiso   1.00
C61    C     0.53247   0.19281   0.31357   0.00000  Uiso   1.00
C62    C     0.46754   0.14052   0.01976   0.00000  Uiso   1.00
H63    H     0.65807   0.16679   0.11337   0.00000  Uiso   1.00
H64    H     0.34193   0.16654   0.21996   0.00000  Uiso   1.00
H65    H     0.55849   0.21374   0.04964   0.00000  Uiso   1.00
H66    H     0.44151   0.11960   0.28369   0.00000  Uiso   1.00
H67    H     0.55844   0.21374   0.29882   0.00000  Uiso   1.00
H68    H     0.44156   0.11960   0.03452   0.00000  Uiso   1.00
N69    N     0.49999   0.16666   0.28573   0.00000  Uiso   1.00
N70    N     0.50001   0.16668   0.04760   0.00000  Uiso   1.00
O71    O     0.50000   0.10558   0.20487   0.00000  Uiso   1.00
O72    O     0.50000   0.22775   0.12846   0.00000  Uiso   1.00
O73    O     0.50000   0.10559   0.12843   0.00000  Uiso   1.00
O74    O     0.50000   0.22774   0.20490   0.00000  Uiso   1.00
O75    O     0.42392   0.16666   0.19595   0.00000  Uiso   1.00
O76    O     0.57608   0.16667   0.13739   0.00000  Uiso   1.00
O77    O     0.42392   0.16667   0.11950   0.00000  Uiso   1.00
O78    O     0.57608   0.16666   0.21383   0.00000  Uiso   1.00
Zn79   Zn    0.50000   0.16666   0.21771   0.00000  Uiso   1.00
Zn80   Zn    0.50000   0.16667   0.11563   0.00000  Uiso   1.00
N81    N     0.41959   0.04487   0.11011   0.00000  Uiso   1.00
H82    H     0.38329   0.03661   0.11926   0.00000  Uiso   1.00
H83    H     0.41974   0.03693   0.07586   0.00000  Uiso   1.00
N84    N     0.58041   0.28846   0.22323   0.00000  Uiso   1.00
H85    H     0.58026   0.29640   0.25748   0.00000  Uiso   1.00
H86    H     0.61671   0.29672   0.21407   0.00000  Uiso   1.00
N87    N     0.41956   0.28824   0.11014   0.00000  Uiso   1.00
H88    H     0.38329   0.29633   0.11938   0.00000  Uiso   1.00
H89    H     0.41962   0.29625   0.07590   0.00000  Uiso   1.00
N90    N     0.58044   0.04510   0.22319   0.00000  Uiso   1.00
H91    H     0.58038   0.03708   0.25744   0.00000  Uiso   1.00
H92    H     0.61671   0.03701   0.21396   0.00000  Uiso   1.00
C93    C     0.83332   0.08680   0.16666   0.00000  Uiso   1.00
C94    C     0.83334   0.24653   0.16667   0.00000  Uiso   1.00
C95    C     0.73372   0.16666   0.15471   0.00000  Uiso   1.00
C96    C     0.93295   0.16667   0.17863   0.00000  Uiso   1.00
C97    C     0.67868   0.16670   0.14827   0.00000  Uiso   1.00
C98    C     0.98799   0.16664   0.18506   0.00000  Uiso   1.00
C99    C     0.79348   0.02167   0.13798   0.00000  Uiso   1.00
C100   C     0.87319   0.31166   0.19535   0.00000  Uiso   1.00
C101   C     0.79348   0.31155   0.13798   0.00000  Uiso   1.00
C102   C     0.87319   0.02179   0.19535   0.00000  Uiso   1.00
C103   C     0.83334   0.29067   0.16666   0.00000  Uiso   1.00
C104   C     0.83333   0.04266   0.16667   0.00000  Uiso   1.00
C105   C     0.86582   0.19282   0.02816   0.00000  Uiso   1.00
C106   C     0.80085   0.14052   0.30517   0.00000  Uiso   1.00
C107   C     0.86580   0.19281   0.31357   0.00000  Uiso   1.00
C108   C     0.80087   0.14052   0.01976   0.00000  Uiso   1.00
H109   H     0.99140   0.16679   0.11337   0.00000  Uiso   1.00
H110   H     0.67526   0.16654   0.21996   0.00000  Uiso   1.00
H111   H     0.89182   0.21374   0.04964   0.00000  Uiso   1.00
H112   H     0.77485   0.11960   0.28369   0.00000  Uiso   1.00
H113   H     0.89177   0.21374   0.29882   0.00000  Uiso   1.00
H114   H     0.77489   0.11960   0.03452   0.00000  Uiso   1.00
N115   N     0.83332   0.16666   0.28573   0.00000  Uiso   1.00
N116   N     0.83335   0.16668   0.04760   0.00000  Uiso   1.00
O117   O     0.83333   0.10558   0.20487   0.00000  Uiso   1.00
O118   O     0.83334   0.22775   0.12846   0.00000  Uiso   1.00
O119   O     0.83333   0.10559   0.12843   0.00000  Uiso   1.00
O120   O     0.83334   0.22774   0.20490   0.00000  Uiso   1.00
O121   O     0.75725   0.16666   0.19595   0.00000  Uiso   1.00
O122   O     0.90942   0.16667   0.13739   0.00000  Uiso   1.00
O123   O     0.75725   0.16667   0.11950   0.00000  Uiso   1.00
O124   O     0.90942   0.16666   0.21383   0.00000  Uiso   1.00
Zn125  Zn    0.83333   0.16666   0.21771   0.00000  Uiso   1.00
Zn126  Zn    0.83333   0.16667   0.11563   0.00000  Uiso   1.00
N127   N     0.75292   0.04487   0.11011   0.00000  Uiso   1.00
H128   H     0.71663   0.03661   0.11926   0.00000  Uiso   1.00
H129   H     0.75307   0.03693   0.07586   0.00000  Uiso   1.00
N130   N     0.91374   0.28846   0.22323   0.00000  Uiso   1.00
H131   H     0.91360   0.29640   0.25748   0.00000  Uiso   1.00
H132   H     0.95004   0.29672   0.21407   0.00000  Uiso   1.00
N133   N     0.75289   0.28824   0.11014   0.00000  Uiso   1.00
H134   H     0.71663   0.29633   0.11938   0.00000  Uiso   1.00
H135   H     0.75295   0.29625   0.07590   0.00000  Uiso   1.00
N136   N     0.91377   0.04510   0.22319   0.00000  Uiso   1.00
H137   H     0.91371   0.03708   0.25744   0.00000  Uiso   1.00
H138   H     0.95004   0.03701   0.21396   0.00000  Uiso   1.00
C139   C     0.16666   0.42013   0.16666   0.00000  Uiso   1.00
C140   C     0.16668   0.57987   0.16667   0.00000  Uiso   1.00
C141   C     0.06705   0.49999   0.15471   0.00000  Uiso   1.00
C142   C     0.26628   0.50001   0.17863   0.00000  Uiso   1.00
C143   C     0.01201   0.50003   0.14827   0.00000  Uiso   1.00
C144   C     0.32132   0.49997   0.18506   0.00000  Uiso   1.00
C145   C     0.12681   0.35500   0.13798   0.00000  Uiso   1.00
C146   C     0.20652   0.64500   0.19535   0.00000  Uiso   1.00
C147   C     0.12681   0.64488   0.13798   0.00000  Uiso   1.00
C148   C     0.20652   0.35512   0.19535   0.00000  Uiso   1.00
C149   C     0.16667   0.62401   0.16666   0.00000  Uiso   1.00
C150   C     0.16666   0.37599   0.16667   0.00000  Uiso   1.00
C151   C     0.19915   0.52615   0.02816   0.00000  Uiso   1.00
C152   C     0.13418   0.47385   0.30517   0.00000  Uiso   1.00
C153   C     0.19913   0.52614   0.31357   0.00000  Uiso   1.00
C154   C     0.13420   0.47386   0.01976   0.00000  Uiso   1.00
H155   H     0.32474   0.50012   0.11337   0.00000  Uiso   1.00
H156   H     0.00860   0.49988   0.21996   0.00000  Uiso   1.00
H157   H     0.22515   0.54707   0.04964   0.00000  Uiso   1.00
H158   H     0.10818   0.45293   0.28369   0.00000  Uiso   1.00
H159   H     0.22511   0.54707   0.29882   0.00000  Uiso   1.00
H160   H     0.10823   0.45293   0.03452   0.00000  Uiso   1.00
N161   N     0.16665   0.49999   0.28573   0.00000  Uiso   1.00
N162   N     0.16668   0.50001   0.04760   0.00000  Uiso   1.00
O163   O     0.16666   0.43892   0.20487   0.00000  Uiso   1.00
O164   O     0.16667   0.56108   0.12846   0.00000  Uiso   1.00
O165   O     0.16666   0.43893   0.12843   0.00000  Uiso   1.00
O166   O     0.16667   0.56107   0.20490   0.00000  Uiso   1.00
O167   O     0.09058   0.50000   0.19595   0.00000  Uiso   1.00
O168   O     0.24275   0.50000   0.13739   0.00000  Uiso   1.00
O169   O     0.09058   0.50000   0.11950   0.00000  Uiso   1.00
O170   O     0.24275   0.50000   0.21383   0.00000  Uiso   1.00
Zn171  Zn    0.16667   0.49999   0.21771   0.00000  Uiso   1.00
Zn172  Zn    0.16667   0.50001   0.11563   0.00000  Uiso   1.00
N173   N     0.08626   0.37820   0.11011   0.00000  Uiso   1.00
H174   H     0.04996   0.36995   0.11926   0.00000  Uiso   1.00
H175   H     0.08640   0.37027   0.07586   0.00000  Uiso   1.00
N176   N     0.24708   0.62180   0.22323   0.00000  Uiso   1.00
H177   H     0.24693   0.62973   0.25748   0.00000  Uiso   1.00
H178   H     0.28337   0.63005   0.21407   0.00000  Uiso   1.00
N179   N     0.08623   0.62157   0.11014   0.00000  Uiso   1.00
H180   H     0.04996   0.62966   0.11938   0.00000  Uiso   1.00
H181   H     0.08629   0.62958   0.07590   0.00000  Uiso   1.00
N182   N     0.24711   0.37843   0.22319   0.00000  Uiso   1.00
H183   H     0.24705   0.37042   0.25744   0.00000  Uiso   1.00
H184   H     0.28337   0.37034   0.21396   0.00000  Uiso   1.00
C185   C     0.49999   0.42013   0.16666   0.00000  Uiso   1.00
C186   C     0.50001   0.57987   0.16667   0.00000  Uiso   1.00
C187   C     0.40039   0.49999   0.15471   0.00000  Uiso   1.00
C188   C     0.59962   0.50001   0.17863   0.00000  Uiso   1.00
C189   C     0.34534   0.50003   0.14827   0.00000  Uiso   1.00
C190   C     0.65466   0.49997   0.18506   0.00000  Uiso   1.00
C191   C     0.46014   0.35500   0.13798   0.00000  Uiso   1.00
C192   C     0.53986   0.64500   0.19535   0.00000  Uiso   1.00
C193   C     0.46014   0.64488   0.13798   0.00000  Uiso   1.00
C194   C     0.53986   0.35512   0.19535   0.00000  Uiso   1.00
C195   C     0.50001   0.62401   0.16666   0.00000  Uiso   1.00
C196   C     0.49999   0.37599   0.16667   0.00000  Uiso   1.00
C197   C     0.53248   0.52615   0.02816   0.00000  Uiso   1.00
C198   C     0.46752   0.47385   0.30517   0.00000  Uiso   1.00
C199   C     0.53247   0.52614   0.31357   0.00000  Uiso   1.00
C200   C     0.46754   0.47386   0.01976   0.00000  Uiso   1.00
H201   H     0.65807   0.50012   0.11337   0.00000  Uiso   1.00
H202   H     0.34193   0.49988   0.21996   0.00000  Uiso   1.00
H203   H     0.55849   0.54707   0.04964   0.00000  Uiso   1.00
H204   H     0.44151   0.45293   0.28369   0.00000  Uiso   1.00
H205   H     0.55844   0.54707   0.29882   0.00000  Uiso   1.00
H206   H     0.44156   0.45293   0.03452   0.00000  Uiso   1.00
N207   N     0.49999   0.49999   0.28573   0.00000  Uiso   1.00
N208   N     0.50001   0.50001   0.04760   0.00000  Uiso   1.00
O209   O     0.50000   0.43892   0.20487   0.00000  Uiso   1.00
O210   O     0.50000   0.56108   0.12846   0.00000  Uiso   1.00
O211   O     0.50000   0.43893   0.12843   0.00000  Uiso   1.00
O212   O     0.50000   0.56107   0.20490   0.00000  Uiso   1.00
O213   O     0.42392   0.50000   0.19595   0.00000  Uiso   1.00
O214   O     0.57608   0.50000   0.13739   0.00000  Uiso   1.00
O215   O     0.42392   0.50000   0.11950   0.00000  Uiso   1.00
O216   O     0.57608   0.50000   0.21383   0.00000  Uiso   1.00
Zn217  Zn    0.50000   0.49999   0.21771   0.00000  Uiso   1.00
Zn218  Zn    0.50000   0.50001   0.11563   0.00000  Uiso   1.00
N219   N     0.41959   0.37820   0.11011   0.00000  Uiso   1.00
H220   H     0.38329   0.36995   0.11926   0.00000  Uiso   1.00
H221   H     0.41974   0.37027   0.07586   0.00000  Uiso   1.00
N222   N     0.58041   0.62180   0.22323   0.00000  Uiso   1.00
H223   H     0.58026   0.62973   0.25748   0.00000  Uiso   1.00
H224   H     0.61671   0.63005   0.21407   0.00000  Uiso   1.00
N225   N     0.41956   0.62157   0.11014   0.00000  Uiso   1.00
H226   H     0.38329   0.62966   0.11938   0.00000  Uiso   1.00
H227   H     0.41962   0.62958   0.07590   0.00000  Uiso   1.00
N228   N     0.58044   0.37843   0.22319   0.00000  Uiso   1.00
H229   H     0.58038   0.37042   0.25744   0.00000  Uiso   1.00
H230   H     0.61671   0.37034   0.21396   0.00000  Uiso   1.00
C231   C     0.83332   0.42013   0.16666   0.00000  Uiso   1.00
C232   C     0.83334   0.57987   0.16667   0.00000  Uiso   1.00
C233   C     0.73372   0.49999   0.15471   0.00000  Uiso   1.00
C234   C     0.93295   0.50001   0.17863   0.00000  Uiso   1.00
C235   C     0.67868   0.50003   0.14827   0.00000  Uiso   1.00
C236   C     0.98799   0.49997   0.18506   0.00000  Uiso   1.00
C237   C     0.79348   0.35500   0.13798   0.00000  Uiso   1.00
C238   C     0.87319   0.64500   0.19535   0.00000  Uiso   1.00
C239   C     0.79348   0.64488   0.13798   0.00000  Uiso   1.00
C240   C     0.87319   0.35512   0.19535   0.00000  Uiso   1.00
C241   C     0.83334   0.62401   0.16666   0.00000  Uiso   1.00
C242   C     0.83333   0.37599   0.16667   0.00000  Uiso   1.00
C243   C     0.86582   0.52615   0.02816   0.00000  Uiso   1.00
C244   C     0.80085   0.47385   0.30517   0.00000  Uiso   1.00
C245   C     0.86580   0.52614   0.31357   0.00000  Uiso   1.00
C246   C     0.80087   0.47386   0.01976   0.00000  Uiso   1.00
H247   H     0.99140   0.50012   0.11337   0.00000  Uiso   1.00
H248   H     0.67526   0.49988   0.21996   0.00000  Uiso   1.00
H249   H     0.89182   0.54707   0.04964   0.00000  Uiso   1.00
H250   H     0.77485   0.45293   0.28369   0.00000  Uiso   1.00
H251   H     0.89177   0.54707   0.29882   0.00000  Uiso   1.00
H252   H     0.77489   0.45293   0.03452   0.00000  Uiso   1.00
N253   N     0.83332   0.49999   0.28573   0.00000  Uiso   1.00
N254   N     0.83335   0.50001   0.04760   0.00000  Uiso   1.00
O255   O     0.83333   0.43892   0.20487   0.00000  Uiso   1.00
O256   O     0.83334   0.56108   0.12846   0.00000  Uiso   1.00
O257   O     0.83333   0.43893   0.12843   0.00000  Uiso   1.00
O258   O     0.83334   0.56107   0.20490   0.00000  Uiso   1.00
O259   O     0.75725   0.50000   0.19595   0.00000  Uiso   1.00
O260   O     0.90942   0.50000   0.13739   0.00000  Uiso   1.00
O261   O     0.75725   0.50000   0.11950   0.00000  Uiso   1.00
O262   O     0.90942   0.50000   0.21383   0.00000  Uiso   1.00
Zn263  Zn    0.83333   0.49999   0.21771   0.00000  Uiso   1.00
Zn264  Zn    0.83333   0.50001   0.11563   0.00000  Uiso   1.00
N265   N     0.75292   0.37820   0.11011   0.00000  Uiso   1.00
H266   H     0.71663   0.36995   0.11926   0.00000  Uiso   1.00
H267   H     0.75307   0.37027   0.07586   0.00000  Uiso   1.00
N268   N     0.91374   0.62180   0.22323   0.00000  Uiso   1.00
H269   H     0.91360   0.62973   0.25748   0.00000  Uiso   1.00
H270   H     0.95004   0.63005   0.21407   0.00000  Uiso   1.00
N271   N     0.75289   0.62157   0.11014   0.00000  Uiso   1.00
H272   H     0.71663   0.62966   0.11938   0.00000  Uiso   1.00
H273   H     0.75295   0.62958   0.07590   0.00000  Uiso   1.00
N274   N     0.91377   0.37843   0.22319   0.00000  Uiso   1.00
H275   H     0.91371   0.37042   0.25744   0.00000  Uiso   1.00
H276   H     0.95004   0.37034   0.21396   0.00000  Uiso   1.00
C277   C     0.16666   0.75347   0.16666   0.00000  Uiso   1.00
C278   C     0.16668   0.91320   0.16667   0.00000  Uiso   1.00
C279   C     0.06705   0.83333   0.15471   0.00000  Uiso   1.00
C280   C     0.26628   0.83334   0.17863   0.00000  Uiso   1.00
C281   C     0.01201   0.83336   0.14827   0.00000  Uiso   1.00
C282   C     0.32132   0.83330   0.18506   0.00000  Uiso   1.00
C283   C     0.12681   0.68834   0.13798   0.00000  Uiso   1.00
C284   C     0.20652   0.97833   0.19535   0.00000  Uiso   1.00
C285   C     0.12681   0.97821   0.13798   0.00000  Uiso   1.00
C286   C     0.20652   0.68845   0.19535   0.00000  Uiso   1.00
C287   C     0.16667   0.95734   0.16666   0.00000  Uiso   1.00
C288   C     0.16666   0.70933   0.16667   0.00000  Uiso   1.00
C289   C     0.19915   0.85948   0.02816   0.00000  Uiso   1.00
C290   C     0.13418   0.80718   0.30517   0.00000  Uiso   1.00
C291   C     0.19913   0.85948   0.31357   0.00000  Uiso   1.00
C292   C     0.13420   0.80719   0.01976   0.00000  Uiso   1.00
H293   H     0.32474   0.83346   0.11337   0.00000  Uiso   1.00
H294   H     0.00860   0.83321   0.21996   0.00000  Uiso   1.00
H295   H     0.22515   0.88040   0.04964   0.00000  Uiso   1.00
H296   H     0.10818   0.78626   0.28369   0.00000  Uiso   1.00
H297   H     0.22511   0.88040   0.29882   0.00000  Uiso   1.00
H298   H     0.10823   0.78626   0.03452   0.00000  Uiso   1.00
N299   N     0.16665   0.83332   0.28573   0.00000  Uiso   1.00
N300   N     0.16668   0.83334   0.04760   0.00000  Uiso   1.00
O301   O     0.16666   0.77225   0.20487   0.00000  Uiso   1.00
O302   O     0.16667   0.89442   0.12846   0.00000  Uiso   1.00
O303   O     0.16666   0.77226   0.12843   0.00000  Uiso   1.00
O304   O     0.16667   0.89441   0.20490   0.00000  Uiso   1.00
O305   O     0.09058   0.83333   0.19595   0.00000  Uiso   1.00
O306   O     0.24275   0.83334   0.13739   0.00000  Uiso   1.00
O307   O     0.09058   0.83334   0.11950   0.00000  Uiso   1.00
O308   O     0.24275   0.83333   0.21383   0.00000  Uiso   1.00
Zn309  Zn    0.16667   0.83333   0.21771   0.00000  Uiso   1.00
Zn310  Zn    0.16667   0.83334   0.11563   0.00000  Uiso   1.00
N311   N     0.08626   0.71154   0.11011   0.00000  Uiso   1.00
H312   H     0.04996   0.70328   0.11926   0.00000  Uiso   1.00
H313   H     0.08640   0.70360   0.07586   0.00000  Uiso   1.00
N314   N     0.24708   0.95513   0.22323   0.00000  Uiso   1.00
H315   H     0.24693   0.96307   0.25748   0.00000  Uiso   1.00
H316   H     0.28337   0.96339   0.21407   0.00000  Uiso   1.00
N317   N     0.08623   0.95490   0.11014   0.00000  Uiso   1.00
H318   H     0.04996   0.96299   0.11938   0.00000  Uiso   1.00
H319   H     0.08629   0.96292   0.07590   0.00000  Uiso   1.00
N320   N     0.24711   0.71177   0.22319   0.00000  Uiso   1.00
H321   H     0.24705   0.70375   0.25744   0.00000  Uiso   1.00
H322   H     0.28337   0.70367   0.21396   0.00000  Uiso   1.00
C323   C     0.49999   0.75347   0.16666   0.00000  Uiso   1.00
C324   C     0.50001   0.91320   0.16667   0.00000  Uiso   1.00
C325   C     0.40039   0.83333   0.15471   0.00000  Uiso   1.00
C326   C     0.59962   0.83334   0.17863   0.00000  Uiso   1.00
C327   C     0.34534   0.83336   0.14827   0.00000  Uiso   1.00
C328   C     0.65466   0.83330   0.18506   0.00000  Uiso   1.00
C329   C     0.46014   0.68834   0.13798   0.00000  Uiso   1.00
C330   C     0.53986   0.97833   0.19535   0.00000  Uiso   1.00
C331   C     0.46014   0.97821   0.13798   0.00000  Uiso   1.00
C332   C     0.53986   0.68845   0.19535   0.00000  Uiso   1.00
C333   C     0.50001   0.95734   0.16666   0.00000  Uiso   1.00
C334   C     0.49999   0.70933   0.16667   0.00000  Uiso   1.00
C335   C     0.53248   0.85948   0.02816   0.00000  Uiso   1.00
C336   C     0.46752   0.80718   0.30517   0.00000  Uiso   1.00
C337   C     0.53247   0.85948   0.31357   0.00000  Uiso   1.00
C338   C     0.46754   0.80719   0.01976   0.00000  Uiso   1.00
H339   H     0.65807   0.83346   0.11337   0.00000  Uiso   1.00
H340   H     0.34193   0.83321   0.21996   0.00000  Uiso   1.00
H341   H     0.55849   0.88040   0.04964   0.00000  Uiso   1.00
H342   H     0.44151   0.78626   0.28369   0.00000  Uiso   1.00
H343   H     0.55844   0.88040   0.29882   0.00000  Uiso   1.00
H344   H     0.44156   0.78626   0.03452   0.00000  Uiso   1.00
N345   N     0.49999   0.83332   0.28573   0.00000  Uiso   1.00
N346   N     0.50001   0.83334   0.04760   0.00000  Uiso   1.00
O347   O     0.50000   0.77225   0.20487   0.00000  Uiso   1.00
O348   O     0.50000   0.89442   0.12846   0.00000  Uiso   1.00
O349   O     0.50000   0.77226   0.12843   0.00000  Uiso   1.00
O350   O     0.50000   0.89441   0.20490   0.00000  Uiso   1.00
O351   O     0.42392   0.83333   0.19595   0.00000  Uiso   1.00
O352   O     0.57608   0.83334   0.13739   0.00000  Uiso   1.00
O353   O     0.42392   0.83334   0.11950   0.00000  Uiso   1.00
O354   O     0.57608   0.83333   0.21383   0.00000  Uiso   1.00
Zn355  Zn    0.50000   0.83333   0.21771   0.00000  Uiso   1.00
Zn356  Zn    0.50000   0.83334   0.11563   0.00000  Uiso   1.00
N357   N     0.41959   0.71154   0.11011   0.00000  Uiso   1.00
H358   H     0.38329   0.70328   0.11926   0.00000  Uiso   1.00
H359   H     0.41974   0.70360   0.07586   0.00000  Uiso   1.00
N360   N     0.58041   0.95513   0.22323   0.00000  Uiso   1.00
H361   H     0.58026   0.96307   0.25748   0.00000  Uiso   1.00
H362   H     0.61671   0.96339   0.21407   0.00000  Uiso   1.00
N363   N     0.41956   0.95490   0.11014   0.00000  Uiso   1.00
H364   H     0.38329   0.96299   0.11938   0.00000  Uiso   1.00
H365   H     0.41962   0.96292   0.07590   0.00000  Uiso   1.00
N366   N     0.58044   0.71177   0.22319   0.00000  Uiso   1.00
H367   H     0.58038   0.70375   0.25744   0.00000  Uiso   1.00
H368   H     0.61671   0.70367   0.21396   0.00000  Uiso   1.00
C369   C     0.83332   0.75347   0.16666   0.00000  Uiso   1.00
C370   C     0.83334   0.91320   0.16667   0.00000  Uiso   1.00
C371   C     0.73372   0.83333   0.15471   0.00000  Uiso   1.00
C372   C     0.93295   0.83334   0.17863   0.00000  Uiso   1.00
C373   C     0.67868   0.83336   0.14827   0.00000  Uiso   1.00
C374   C     0.98799   0.83330   0.18506   0.00000  Uiso   1.00
C375   C     0.79348   0.68834   0.13798   0.00000  Uiso   1.00
C376   C     0.87319   0.97833   0.19535   0.00000  Uiso   1.00
C377   C     0.79348   0.97821   0.13798   0.00000  Uiso   1.00
C378   C     0.87319   0.68845   0.19535   0.00000  Uiso   1.00
C379   C     0.83334   0.95734   0.16666   0.00000  Uiso   1.00
C380   C     0.83333   0.70933   0.16667   0.00000  Uiso   1.00
C381   C     0.86582   0.85948   0.02816   0.00000  Uiso   1.00
C382   C     0.80085   0.80718   0.30517   0.00000  Uiso   1.00
C383   C     0.86580   0.85948   0.31357   0.00000  Uiso   1.00
C384   C     0.80087   0.80719   0.01976   0.00000  Uiso   1.00
H385   H     0.99140   0.83346   0.11337   0.00000  Uiso   1.00
H386   H     0.67526   0.83321   0.21996   0.00000  Uiso   1.00
H387   H     0.89182   0.88040   0.04964   0.00000  Uiso   1.00
H388   H     0.77485   0.78626   0.28369   0.00000  Uiso   1.00
H389   H     0.89177   0.88040   0.29882   0.00000  Uiso   1.00
H390   H     0.77489   0.78626   0.03452   0.00000  Uiso   1.00
N391   N     0.83332   0.83332   0.28573   0.00000  Uiso   1.00
N392   N     0.83335   0.83334   0.04760   0.00000  Uiso   1.00
O393   O     0.83333   0.77225   0.20487   0.00000  Uiso   1.00
O394   O     0.83334   0.89442   0.12846   0.00000  Uiso   1.00
O395   O     0.83333   0.77226   0.12843   0.00000  Uiso   1.00
O396   O     0.83334   0.89441   0.20490   0.00000  Uiso   1.00
O397   O     0.75725   0.83333   0.19595   0.00000  Uiso   1.00
O398   O     0.90942   0.83334   0.13739   0.00000  Uiso   1.00
O399   O     0.75725   0.83334   0.11950   0.00000  Uiso   1.00
O400   O     0.90942   0.83333   0.21383   0.00000  Uiso   1.00
Zn401  Zn    0.83333   0.83333   0.21771   0.00000  Uiso   1.00
Zn402  Zn    0.83333   0.83334   0.11563   0.00000  Uiso   1.00
N403   N     0.75292   0.71154   0.11011   0.00000  Uiso   1.00
H404   H     0.71663   0.70328   0.11926   0.00000  Uiso   1.00
H405   H     0.75307   0.70360   0.07586   0.00000  Uiso   1.00
N406   N     0.91374   0.95513   0.22323   0.00000  Uiso   1.00
H407   H     0.91360   0.96307   0.25748   0.00000  Uiso   1.00
H408   H     0.95004   0.96339   0.21407   0.00000  Uiso   1.00
N409   N     0.75289   0.95490   0.11014   0.00000  Uiso   1.00
H410   H     0.71663   0.96299   0.11938   0.00000  Uiso   1.00
H411   H     0.75295   0.96292   0.07590   0.00000  Uiso   1.00
N412   N     0.91377   0.71177   0.22319   0.00000  Uiso   1.00
H413   H     0.91371   0.70375   0.25744   0.00000  Uiso   1.00
H414   H     0.95004   0.70367   0.21396   0.00000  Uiso   1.00
C415   C     0.16666   0.08680   0.49999   0.00000  Uiso   1.00
C416   C     0.16668   0.24653   0.50001   0.00000  Uiso   1.00
C417   C     0.06705   0.16666   0.48804   0.00000  Uiso   1.00
C418   C     0.26628   0.16667   0.51196   0.00000  Uiso   1.00
C419   C     0.01201   0.16670   0.48161   0.00000  Uiso   1.00
C420   C     0.32132   0.16664   0.51839   0.00000  Uiso   1.00
C421   C     0.12681   0.02167   0.47131   0.00000  Uiso   1.00
C422   C     0.20652   0.31166   0.52869   0.00000  Uiso   1.00
C423   C     0.12681   0.31155   0.47132   0.00000  Uiso   1.00
C424   C     0.20652   0.02179   0.52868   0.00000  Uiso   1.00
C425   C     0.16667   0.29067   0.49999   0.00000  Uiso   1.00
C426   C     0.16666   0.04266   0.50001   0.00000  Uiso   1.00
C427   C     0.19915   0.19282   0.36150   0.00000  Uiso   1.00
C428   C     0.13418   0.14052   0.63851   0.00000  Uiso   1.00
C429   C     0.19913   0.19281   0.64691   0.00000  Uiso   1.00
C430   C     0.13420   0.14052   0.35309   0.00000  Uiso   1.00
H431   H     0.32474   0.16679   0.44670   0.00000  Uiso   1.00
H432   H     0.00860   0.16654   0.55330   0.00000  Uiso   1.00
H433   H     0.22515   0.21374   0.38297   0.00000  Uiso   1.00
H434   H     0.10818   0.11960   0.61703   0.00000  Uiso   1.00
H435   H     0.22511   0.21374   0.63215   0.00000  Uiso   1.00
H436   H     0.10823   0.11960   0.36785   0.00000  Uiso   1.00
N437   N     0.16665   0.16666   0.61907   0.00000  Uiso   1.00
N438   N     0.16668   0.16668   0.38093   0.00000  Uiso   1.00
O439   O     0.16666   0.10558   0.53821   0.00000  Uiso   1.00
O440   O     0.16667   0.22775   0.46179   0.00000  Uiso   1.00
O441   O     0.16666   0.10559   0.46176   0.00000  Uiso   1.00
O442   O     0.16667   0.22774   0.53824   0.00000  Uiso   1.00
O443   O     0.09058   0.16666   0.52928   0.00000  Uiso   1.00
O444   O     0.24275   0.16667   0.47072   0.00000  Uiso   1.00
O445   O     0.09058   0.16667   0.45284   0.00000  Uiso   1.00
O446   O     0.24275   0.16666   0.54716   0.00000  Uiso   1.00
Zn447  Zn    0.16667   0.16666   0.55104   0.00000  Uiso   1.00
Zn448  Zn    0.16667   0.16667   0.44896   0.00000  Uiso   1.00
N449   N     0.08626   0.04487   0.44344   0.00000  Uiso   1.00
H450   H     0.04996   0.03661   0.45259   0.00000  Uiso   1.00
H451   H     0.08640   0.03693   0.40919   0.00000  Uiso   1.00
N452   N     0.24708   0.28846   0.55656   0.00000  Uiso   1.00
H453   H     0.24693   0.29640   0.59081   0.00000  Uiso   1.00
H454   H     0.28337   0.29672   0.54741   0.00000  Uiso   1.00
N455   N     0.08623   0.28824   0.44348   0.00000  Uiso   1.00
H456   H     0.04996   0.29633   0.45271   0.00000  Uiso   1.00
H457   H     0.08629   0.29625   0.40923   0.00000  Uiso   1.00
N458   N     0.24711   0.04510   0.55652   0.00000  Uiso   1.00
H459   H     0.24705   0.03708   0.59077   0.00000  Uiso   1.00
H460   H     0.28337   0.03701   0.54729   0.00000  Uiso   1.00
C461   C     0.49999   0.08680   0.49999   0.00000  Uiso   1.00
C462   C     0.50001   0.24653   0.50001   0.00000  Uiso   1.00
C463   C     0.40039   0.16666   0.48804   0.00000  Uiso   1.00
C464   C     0.59962   0.16667   0.51196   0.00000  Uiso   1.00
C465   C     0.34534   0.16670   0.48161   0.00000  Uiso   1.00
C466   C     0.65466   0.16664   0.51839   0.00000  Uiso   1.00
C467   C     0.46014   0.02167   0.47131   0.00000  Uiso   1.00
C468   C     0.53986   0.31166   0.52869   0.00000  Uiso   1.00
C469   C     0.46014   0.31155   0.47132   0.00000  Uiso   1.00
C470   C     0.53986   0.02179   0.52868   0.00000  Uiso   1.00
C471   C     0.50001   0.29067   0.49999   0.00000  Uiso   1.00
C472   C     0.49999   0.04266   0.50001   0.00000  Uiso   1.00
C473   C     0.53248   0.19282   0.36150   0.00000  Uiso   1.00
C474   C     0.46752   0.14052   0.63851   0.00000  Uiso   1.00
C475   C     0.53247   0.19281   0.64691   0.00000  Uiso   1.00
C476   C     0.46754   0.14052   0.35309   0.00000  Uiso   1.00
H477   H     0.65807   0.16679   0.44670   0.00000  Uiso   1.00
H478   H     0.34193   0.16654   0.55330   0.00000  Uiso   1.00
H479   H     0.55849   0.21374   0.38297   0.00000  Uiso   1.00
H480   H     0.44151   0.11960   0.61703   0.00000  Uiso   1.00
H481   H     0.55844   0.21374   0.63215   0.00000  Uiso   1.00
H482   H     0.44156   0.11960   0.36785   0.00000  Uiso   1.00
N483   N     0.49999   0.16666   0.61907   0.00000  Uiso   1.00
N484   N     0.50001   0.16668   0.38093   0.00000  Uiso   1.00
O485   O     0.50000   0.10558   0.53821   0.00000  Uiso   1.00
O486   O     0.50000   0.22775   0.46179   0.00000  Uiso   1.00
O487   O     0.50000   0.10559   0.46176   0.00000  Uiso   1.00
O488   O     0.50000   0.22774   0.53824   0.00000  Uiso   1.00
O489   O     0.42392   0.16666   0.52928   0.00000  Uiso   1.00
O490   O     0.57608   0.16667   0.47072   0.00000  Uiso   1.00
O491   O     0.42392   0.16667   0.45284   0.00000  Uiso   1.00
O492   O     0.57608   0.16666   0.54716   0.00000  Uiso   1.00
Zn493  Zn    0.50000   0.16666   0.55104   0.00000  Uiso   1.00
Zn494  Zn    0.50000   0.16667   0.44896   0.00000  Uiso   1.00
N495   N     0.41959   0.04487   0.44344   0.00000  Uiso   1.00
H496   H     0.38329   0.03661   0.45259   0.00000  Uiso   1.00
H497   H     0.41974   0.03693   0.40919   0.00000  Uiso   1.00
N498   N     0.58041   0.28846   0.55656   0.00000  Uiso   1.00
H499   H     0.58026   0.29640   0.59081   0.00000  Uiso   1.00
H500   H     0.61671   0.29672   0.54741   0.00000  Uiso   1.00
N501   N     0.41956   0.28824   0.44348   0.00000  Uiso   1.00
H502   H     0.38329   0.29633   0.45271   0.00000  Uiso   1.00
H503   H     0.41962   0.29625   0.40923   0.00000  Uiso   1.00
N504   N     0.58044   0.04510   0.55652   0.00000  Uiso   1.00
H505   H     0.58038   0.03708   0.59077   0.00000  Uiso   1.00
H506   H     0.61671   0.03701   0.54729   0.00000  Uiso   1.00
C507   C     0.83332   0.08680   0.49999   0.00000  Uiso   1.00
C508   C     0.83334   0.24653   0.50001   0.00000  Uiso   1.00
C509   C     0.73372   0.16666   0.48804   0.00000  Uiso   1.00
C510   C     0.93295   0.16667   0.51196   0.00000  Uiso   1.00
C511   C     0.67868   0.16670   0.48161   0.00000  Uiso   1.00
C512   C     0.98799   0.16664   0.51839   0.00000  Uiso   1.00
C513   C     0.79348   0.02167   0.47131   0.00000  Uiso   1.00
C514   C     0.87319   0.31166   0.52869   0.00000  Uiso   1.00
C515   C     0.79348   0.31155   0.47132   0.00000  Uiso   1.00
C516   C     0.87319   0.02179   0.52868   0.00000  Uiso   1.00
C517   C     0.83334   0.29067   0.49999   0.00000  Uiso   1.00
C518   C     0.83333   0.04266   0.50001   0.00000  Uiso   1.00
C519   C     0.86582   0.19282   0.36150   0.00000  Uiso   1.00
C520   C     0.80085   0.14052   0.63851   0.00000  Uiso   1.00
C521   C     0.86580   0.19281   0.64691   0.00000  Uiso   1.00
C522   C     0.80087   0.14052   0.35309   0.00000  Uiso   1.00
H523   H     0.99140   0.16679   0.44670   0.00000  Uiso   1.00
H524   H     0.67526   0.16654   0.55330   0.00000  Uiso   1.00
H525   H     0.89182   0.21374   0.38297   0.00000  Uiso   1.00
H526   H     0.77485   0.11960   0.61703   0.00000  Uiso   1.00
H527   H     0.89177   0.21374   0.63215   0.00000  Uiso   1.00
H528   H     0.77489   0.11960   0.36785   0.00000  Uiso   1.00
N529   N     0.83332   0.16666   0.61907   0.00000  Uiso   1.00
N530   N     0.83335   0.16668   0.38093   0.00000  Uiso   1.00
O531   O     0.83333   0.10558   0.53821   0.00000  Uiso   1.00
O532   O     0.83334   0.22775   0.46179   0.00000  Uiso   1.00
O533   O     0.83333   0.10559   0.46176   0.00000  Uiso   1.00
O534   O     0.83334   0.22774   0.53824   0.00000  Uiso   1.00
O535   O     0.75725   0.16666   0.52928   0.00000  Uiso   1.00
O536   O     0.90942   0.16667   0.47072   0.00000  Uiso   1.00
O537   O     0.75725   0.16667   0.45284   0.00000  Uiso   1.00
O538   O     0.90942   0.16666   0.54716   0.00000  Uiso   1.00
Zn539  Zn    0.83333   0.16666   0.55104   0.00000  Uiso   1.00
Zn540  Zn    0.83333   0.16667   0.44896   0.00000  Uiso   1.00
N541   N     0.75292   0.04487   0.44344   0.00000  Uiso   1.00
H542   H     0.71663   0.03661   0.45259   0.00000  Uiso   1.00
H543   H     0.75307   0.03693   0.40919   0.00000  Uiso   1.00
N544   N     0.91374   0.28846   0.55656   0.00000  Uiso   1.00
H545   H     0.91360   0.29640   0.59081   0.00000  Uiso   1.00
H546   H     0.95004   0.29672   0.54741   0.00000  Uiso   1.00
N547   N     0.75289   0.28824   0.44348   0.00000  Uiso   1.00
H548   H     0.71663   0.29633   0.45271   0.00000  Uiso   1.00
H549   H     0.75295   0.29625   0.40923   0.00000  Uiso   1.00
N550   N     0.91377   0.04510   0.55652   0.00000  Uiso   1.00
H551   H     0.91371   0.03708   0.59077   0.00000  Uiso   1.00
H552   H     0.95004   0.03701   0.54729   0.00000  Uiso   1.00
C553   C     0.16666   0.42013   0.49999   0.00000  Uiso   1.00
C554   C     0.16668   0.57987   0.50001   0.00000  Uiso   1.00
C555   C     0.06705   0.49999   0.48804   0.00000  Uiso   1.00
C556   C     0.26628   0.50001   0.51196   0.00000  Uiso   1.00
C557   C     0.01201   0.50003   0.48161   0.00000  Uiso   1.00
C558   C     0.32132   0.49997   0.51839   0.00000  Uiso   1.00
C559   C     0.12681   0.35500   0.47131   0.00000  Uiso   1.00
C560   C     0.20652   0.64500   0.52869   0.00000  Uiso   1.00
C561   C     0.12681   0.64488   0.47132   0.00000  Uiso   1.00
C562   C     0.20652   0.35512   0.52868   0.00000  Uiso   1.00
C563   C     0.16667   0.62401   0.49999   0.00000  Uiso   1.00
C564   C     0.16666   0.37599   0.50001   0.00000  Uiso   1.00
C565   C     0.19915   0.52615   0.36150   0.00000  Uiso   1.00
C566   C     0.13418   0.47385   0.63851   0.00000  Uiso   1.00
C567   C     0.19913   0.52614   0.64691   0.00000  Uiso   1.00
C568   C     0.13420   0.47386   0.35309   0.00000  Uiso   1.00
H569   H     0.32474   0.50012   0.44670   0.00000  Uiso   1.00
H570   H     0.00860   0.49988   0.55330   0.00000  Uiso   1.00
H571   H     0.22515   0.54707   0.38297   0.00000  Uiso   1.00
H572   H     0.10818   0.45293   0.61703   0.00000  Uiso   1.00
H573   H     0.22511   0.54707   0.63215   0.00000  Uiso   1.00
H574   H     0.10823   0.45293   0.36785   0.00000  Uiso   1.00
N575   N     0.16665   0.49999   0.61907   0.00000  Uiso   1.00
N576   N     0.16668   0.50001   0.38093   0.00000  Uiso   1.00
O577   O     0.16666   0.43892   0.53821   0.00000  Uiso   1.00
O578   O     0.16667   0.56108   0.46179   0.00000  Uiso   1.00
O579   O     0.16666   0.43893   0.46176   0.00000  Uiso   1.00
O580   O     0.16667   0.56107   0.53824   0.00000  Uiso   1.00
O581   O     0.09058   0.50000   0.52928   0.00000  Uiso   1.00
O582   O     0.24275   0.50000   0.47072   0.00000  Uiso   1.00
O583   O     0.09058   0.50000   0.45284   0.00000  Uiso   1.00
O584   O     0.24275   0.50000   0.54716   0.00000  Uiso   1.00
Zn585  Zn    0.16667   0.49999   0.55104   0.00000  Uiso   1.00
Zn586  Zn    0.16667   0.50001   0.44896   0.00000  Uiso   1.00
N587   N     0.08626   0.37820   0.44344   0.00000  Uiso   1.00
H588   H     0.04996   0.36995   0.45259   0.00000  Uiso   1.00
H589   H     0.08640   0.37027   0.40919   0.00000  Uiso   1.00
N590   N     0.24708   0.62180   0.55656   0.00000  Uiso   1.00
H591   H     0.24693   0.62973   0.59081   0.00000  Uiso   1.00
H592   H     0.28337   0.63005   0.54741   0.00000  Uiso   1.00
N593   N     0.08623   0.62157   0.44348   0.00000  Uiso   1.00
H594   H     0.04996   0.62966   0.45271   0.00000  Uiso   1.00
H595   H     0.08629   0.62958   0.40923   0.00000  Uiso   1.00
N596   N     0.24711   0.37843   0.55652   0.00000  Uiso   1.00
H597   H     0.24705   0.37042   0.59077   0.00000  Uiso   1.00
H598   H     0.28337   0.37034   0.54729   0.00000  Uiso   1.00
C599   C     0.49999   0.42013   0.49999   0.00000  Uiso   1.00
C600   C     0.50001   0.57987   0.50001   0.00000  Uiso   1.00
C601   C     0.40039   0.49999   0.48804   0.00000  Uiso   1.00
C602   C     0.59962   0.50001   0.51196   0.00000  Uiso   1.00
C603   C     0.34534   0.50003   0.48161   0.00000  Uiso   1.00
C604   C     0.65466   0.49997   0.51839   0.00000  Uiso   1.00
C605   C     0.46014   0.35500   0.47131   0.00000  Uiso   1.00
C606   C     0.53986   0.64500   0.52869   0.00000  Uiso   1.00
C607   C     0.46014   0.64488   0.47132   0.00000  Uiso   1.00
C608   C     0.53986   0.35512   0.52868   0.00000  Uiso   1.00
C609   C     0.50001   0.62401   0.49999   0.00000  Uiso   1.00
C610   C     0.49999   0.37599   0.50001   0.00000  Uiso   1.00
C611   C     0.53248   0.52615   0.36150   0.00000  Uiso   1.00
C612   C     0.46752   0.47385   0.63851   0.00000  Uiso   1.00
C613   C     0.53247   0.52614   0.64691   0.00000  Uiso   1.00
C614   C     0.46754   0.47386   0.35309   0.00000  Uiso   1.00
H615   H     0.65807   0.50012   0.44670   0.00000  Uiso   1.00
H616   H     0.34193   0.49988   0.55330   0.00000  Uiso   1.00
H617   H     0.55849   0.54707   0.38297   0.00000  Uiso   1.00
H618   H     0.44151   0.45293   0.61703   0.00000  Uiso   1.00
H619   H     0.55844   0.54707   0.63215   0.00000  Uiso   1.00
H620   H     0.44156   0.45293   0.36785   0.00000  Uiso   1.00
N621   N     0.49999   0.49999   0.61907   0.00000  Uiso   1.00
N622   N     0.50001   0.50001   0.38093   0.00000  Uiso   1.00
O623   O     0.50000   0.43892   0.53821   0.00000  Uiso   1.00
O624   O     0.50000   0.56108   0.46179   0.00000  Uiso   1.00
O625   O     0.50000   0.43893   0.46176   0.00000  Uiso   1.00
O626   O     0.50000   0.56107   0.53824   0.00000  Uiso   1.00
O627   O     0.42392   0.50000   0.52928   0.00000  Uiso   1.00
O628   O     0.57608   0.50000   0.47072   0.00000  Uiso   1.00
O629   O     0.42392   0.50000   0.45284   0.00000  Uiso   1.00
O630   O     0.57608   0.50000   0.54716   0.00000  Uiso   1.00
Zn631  Zn    0.50000   0.49999   0.55104   0.00000  Uiso   1.00
Zn632  Zn    0.50000   0.50001   0.44896   0.00000  Uiso   1.00
N633   N     0.41959   0.37820   0.44344   0.00000  Uiso   1.00
H634   H     0.38329   0.36995   0.45259   0.00000  Uiso   1.00
H635   H     0.41974   0.37027   0.40919   0.00000  Uiso   1.00
N636   N     0.58041   0.62180   0.55656   0.00000  Uiso   1.00
H637   H     0.58026   0.62973   0.59081   0.00000  Uiso   1.00
H638   H     0.61671   0.63005   0.54741   0.00000  Uiso   1.00
N639   N     0.41956   0.62157   0.44348   0.00000  Uiso   1.00
H640   H     0.38329   0.62966   0.45271   0.00000  Uiso   1.00
H641   H     0.41962   0.62958   0.40923   0.00000  Uiso   1.00
N642   N     0.58044   0.37843   0.55652   0.00000  Uiso   1.00
H643   H     0.58038   0.37042   0.59077   0.00000  Uiso   1.00
H644   H     0.61671   0.37034   0.54729   0.00000  Uiso   1.00
C645   C     0.83332   0.42013   0.49999   0.00000  Uiso   1.00
C646   C     0.83334   0.57987   0.50001   0.00000  Uiso   1.00
C647   C     0.73372   0.49999   0.48804   0.00000  Uiso   1.00
C648   C     0.93295   0.50001   0.51196   0.00000  Uiso   1.00
C649   C     0.67868   0.50003   0.48161   0.00000  Uiso   1.00
C650   C     0.98799   0.49997   0.51839   0.00000  Uiso   1.00
C651   C     0.79348   0.35500   0.47131   0.00000  Uiso   1.00
C652   C     0.87319   0.64500   0.52869   0.00000  Uiso   1.00
C653   C     0.79348   0.64488   0.47132   0.00000  Uiso   1.00
C654   C     0.87319   0.35512   0.52868   0.00000  Uiso   1.00
C655   C     0.83334   0.62401   0.49999   0.00000  Uiso   1.00
C656   C     0.83333   0.37599   0.50001   0.00000  Uiso   1.00
C657   C     0.86582   0.52615   0.36150   0.00000  Uiso   1.00
C658   C     0.80085   0.47385   0.63851   0.00000  Uiso   1.00
C659   C     0.86580   0.52614   0.64691   0.00000  Uiso   1.00
C660   C     0.80087   0.47386   0.35309   0.00000  Uiso   1.00
H661   H     0.99140   0.50012   0.44670   0.00000  Uiso   1.00
H662   H     0.67526   0.49988   0.55330   0.00000  Uiso   1.00
H663   H     0.89182   0.54707   0.38297   0.00000  Uiso   1.00
H664   H     0.77485   0.45293   0.61703   0.00000  Uiso   1.00
H665   H     0.89177   0.54707   0.63215   0.00000  Uiso   1.00
H666   H     0.77489   0.45293   0.36785   0.00000  Uiso   1.00
N667   N     0.83332   0.49999   0.61907   0.00000  Uiso   1.00
N668   N     0.83335   0.50001   0.38093   0.00000  Uiso   1.00
O669   O     0.83333   0.43892   0.53821   0.00000  Uiso   1.00
O670   O     0.83334   0.56108   0.46179   0.00000  Uiso   1.00
O671   O     0.83333   0.43893   0.46176   0.00000  Uiso   1.00
O672   O     0.83334   0.56107   0.53824   0.00000  Uiso   1.00
O673   O     0.75725   0.50000   0.52928   0.00000  Uiso   1.00
O674   O     0.90942   0.50000   0.47072   0.00000  Uiso   1.00
O675   O     0.75725   0.50000   0.45284   0.00000  Uiso   1.00
O676   O     0.90942   0.50000   0.54716   0.00000  Uiso   1.00
Zn677  Zn    0.83333   0.49999   0.55104   0.00000  Uiso   1.00
Zn678  Zn    0.83333   0.50001   0.44896   0.00000  Uiso   1.00
N679   N     0.75292   0.37820   0.44344   0.00000  Uiso   1.00
H680   H     0.71663   0.36995   0.45259   0.00000  Uiso   1.00
H681   H     0.75307   0.37027   0.40919   0.00000  Uiso   1.00
N682   N     0.91374   0.62180   0.55656   0.00000  Uiso   1.00
H683   H     0.91360   0.62973   0.59081   0.00000  Uiso   1.00
H684   H     0.95004   0.63005   0.54741   0.00000  Uiso   1.00
N685   N     0.75289   0.62157   0.44348   0.00000  Uiso   1.00
H686   H     0.71663   0.62966   0.45271   0.00000  Uiso   1.00
H687   H     0.75295   0.62958   0.40923   0.00000  Uiso   1.00
N688   N     0.91377   0.37843   0.55652   0.00000  Uiso   1.00
H689   H     0.91371   0.37042   0.59077   0.00000  Uiso   1.00
H690   H     0.95004   0.37034   0.54729   0.00000  Uiso   1.00
C691   C     0.16666   0.75347   0.49999   0.00000  Uiso   1.00
C692   C     0.16668   0.91320   0.50001   0.00000  Uiso   1.00
C693   C     0.06705   0.83333   0.48804   0.00000  Uiso   1.00
C694   C     0.26628   0.83334   0.51196   0.00000  Uiso   1.00
C695   C     0.01201   0.83336   0.48161   0.00000  Uiso   1.00
C696   C     0.32132   0.83330   0.51839   0.00000  Uiso   1.00
C697   C     0.12681   0.68834   0.47131   0.00000  Uiso   1.00
C698   C     0.20652   0.97833   0.52869   0.00000  Uiso   1.00
C699   C     0.12681   0.97821   0.47132   0.00000  Uiso   1.00
C700   C     0.20652   0.68845   0.52868   0.00000  Uiso   1.00
C701   C     0.16667   0.95734   0.49999   0.00000  Uiso   1.00
C702   C     0.16666   0.70933   0.50001   0.00000  Uiso   1.00
C703   C     0.19915   0.85948   0.36150   0.00000  Uiso   1.00
C704   C     0.13418   0.80718   0.63851   0.00000  Uiso   1.00
C705   C     0.19913   0.85948   0.64691   0.00000  Uiso   1.00
C706   C     0.13420   0.80719   0.35309   0.00000  Uiso   1.00
H707   H     0.32474   0.83346   0.44670   0.00000  Uiso   1.00
H708   H     0.00860   0.83321   0.55330   0.00000  Uiso   1.00
H709   H     0.22515   0.88040   0.38297   0.00000  Uiso   1.00
H710   H     0.10818   0.78626   0.61703   0.00000  Uiso   1.00
H711   H     0.22511   0.88040   0.63215   0.00000  Uiso   1.00
H712   H     0.10823   0.78626   0.36785   0.00000  Uiso   1.00
N713   N     0.16665   0.83332   0.61907   0.00000  Uiso   1.00
N714   N     0.16668   0.83334   0.38093   0.00000  Uiso   1.00
O715   O     0.16666   0.77225   0.53821   0.00000  Uiso   1.00
O716   O     0.16667   0.89442   0.46179   0.00000  Uiso   1.00
O717   O     0.16666   0.77226   0.46176   0.00000  Uiso   1.00
O718   O     0.16667   0.89441   0.53824   0.00000  Uiso   1.00
O719   O     0.09058   0.83333   0.52928   0.00000  Uiso   1.00
O720   O     0.24275   0.83334   0.47072   0.00000  Uiso   1.00
O721   O     0.09058   0.83334   0.45284   0.00000  Uiso   1.00
O722   O     0.24275   0.83333   0.54716   0.00000  Uiso   1.00
Zn723  Zn    0.16667   0.83333   0.55104   0.00000  Uiso   1.00
Zn724  Zn    0.16667   0.83334   0.44896   0.00000  Uiso   1.00
N725   N     0.08626   0.71154   0.44344   0.00000  Uiso   1.00
H726   H     0.04996   0.70328   0.45259   0.00000  Uiso   1.00
H727   H     0.08640   0.70360   0.40919   0.00000  Uiso   1.00
N728   N     0.24708   0.95513   0.55656   0.00000  Uiso   1.00
H729   H     0.24693   0.96307   0.59081   0.00000  Uiso   1.00
H730   H     0.28337   0.96339   0.54741   0.00000  Uiso   1.00
N731   N     0.08623   0.95490   0.44348   0.00000  Uiso   1.00
H732   H     0.04996   0.96299   0.45271   0.00000  Uiso   1.00
H733   H     0.08629   0.96292   0.40923   0.00000  Uiso   1.00
N734   N     0.24711   0.71177   0.55652   0.00000  Uiso   1.00
H735   H     0.24705   0.70375   0.59077   0.00000  Uiso   1.00
H736   H     0.28337   0.70367   0.54729   0.00000  Uiso   1.00
C737   C     0.49999   0.75347   0.49999   0.00000  Uiso   1.00
C738   C     0.50001   0.91320   0.50001   0.00000  Uiso   1.00
C739   C     0.40039   0.83333   0.48804   0.00000  Uiso   1.00
C740   C     0.59962   0.83334   0.51196   0.00000  Uiso   1.00
C741   C     0.34534   0.83336   0.48161   0.00000  Uiso   1.00
C742   C     0.65466   0.83330   0.51839   0.00000  Uiso   1.00
C743   C     0.46014   0.68834   0.47131   0.00000  Uiso   1.00
C744   C     0.53986   0.97833   0.52869   0.00000  Uiso   1.00
C745   C     0.46014   0.97821   0.47132   0.00000  Uiso   1.00
C746   C     0.53986   0.68845   0.52868   0.00000  Uiso   1.00
C747   C     0.50001   0.95734   0.49999   0.00000  Uiso   1.00
C748   C     0.49999   0.70933   0.50001   0.00000  Uiso   1.00
C749   C     0.53248   0.85948   0.36150   0.00000  Uiso   1.00
C750   C     0.46752   0.80718   0.63851   0.00000  Uiso   1.00
C751   C     0.53247   0.85948   0.64691   0.00000  Uiso   1.00
C752   C     0.46754   0.80719   0.35309   0.00000  Uiso   1.00
H753   H     0.65807   0.83346   0.44670   0.00000  Uiso   1.00
H754   H     0.34193   0.83321   0.55330   0.00000  Uiso   1.00
H755   H     0.55849   0.88040   0.38297   0.00000  Uiso   1.00
H756   H     0.44151   0.78626   0.61703   0.00000  Uiso   1.00
H757   H     0.55844   0.88040   0.63215   0.00000  Uiso   1.00
H758   H     0.44156   0.78626   0.36785   0.00000  Uiso   1.00
N759   N     0.49999   0.83332   0.61907   0.00000  Uiso   1.00
N760   N     0.50001   0.83334   0.38093   0.00000  Uiso   1.00
O761   O     0.50000   0.77225   0.53821   0.00000  Uiso   1.00
O762   O     0.50000   0.89442   0.46179   0.00000  Uiso   1.00
O763   O     0.50000   0.77226   0.46176   0.00000  Uiso   1.00
O764   O     0.50000   0.89441   0.53824   0.00000  Uiso   1.00
O765   O     0.42392   0.83333   0.52928   0.00000  Uiso   1.00
O766   O     0.57608   0.83334   0.47072   0.00000  Uiso   1.00
O767   O     0.42392   0.83334   0.45284   0.00000  Uiso   1.00
O768   O     0.57608   0.83333   0.54716   0.00000  Uiso   1.00
Zn769  Zn    0.50000   0.83333   0.55104   0.00000  Uiso   1.00
Zn770  Zn    0.50000   0.83334   0.44896   0.00000  Uiso   1.00
N771   N     0.41959   0.71154   0.44344   0.00000  Uiso   1.00
H772   H     0.38329   0.70328   0.45259   0.00000  Uiso   1.00
H773   H     0.41974   0.70360   0.40919   0.00000  Uiso   1.00
N774   N     0.58041   0.95513   0.55656   0.00000  Uiso   1.00
H775   H     0.58026   0.96307   0.59081   0.00000  Uiso   1.00
H776   H     0.61671   0.96339   0.54741   0.00000  Uiso   1.00
N777   N     0.41956   0.95490   0.44348   0.00000  Uiso   1.00
H778   H     0.38329   0.96299   0.45271   0.00000  Uiso   1.00
H779   H     0.41962   0.96292   0.40923   0.00000  Uiso   1.00
N780   N     0.58044   0.71177   0.55652   0.00000  Uiso   1.00
H781   H     0.58038   0.70375   0.59077   0.00000  Uiso   1.00
H782   H     0.61671   0.70367   0.54729   0.00000  Uiso   1.00
C783   C     0.83332   0.75347   0.49999   0.00000  Uiso   1.00
C784   C     0.83334   0.91320   0.50001   0.00000  Uiso   1.00
C785   C     0.73372   0.83333   0.48804   0.00000  Uiso   1.00
C786   C     0.93295   0.83334   0.51196   0.00000  Uiso   1.00
C787   C     0.67868   0.83336   0.48161   0.00000  Uiso   1.00
C788   C     0.98799   0.83330   0.51839   0.00000  Uiso   1.00
C789   C     0.79348   0.68834   0.47131   0.00000  Uiso   1.00
C790   C     0.87319   0.97833   0.52869   0.00000  Uiso   1.00
C791   C     0.79348   0.97821   0.47132   0.00000  Uiso   1.00
C792   C     0.87319   0.68845   0.52868   0.00000  Uiso   1.00
C793   C     0.83334   0.95734   0.49999   0.00000  Uiso   1.00
C794   C     0.83333   0.70933   0.50001   0.00000  Uiso   1.00
C795   C     0.86582   0.85948   0.36150   0.00000  Uiso   1.00
C796   C     0.80085   0.80718   0.63851   0.00000  Uiso   1.00
C797   C     0.86580   0.85948   0.64691   0.00000  Uiso   1.00
C798   C     0.80087   0.80719   0.35309   0.00000  Uiso   1.00
H799   H     0.99140   0.83346   0.44670   0.00000  Uiso   1.00
H800   H     0.67526   0.83321   0.55330   0.00000  Uiso   1.00
H801   H     0.89182   0.88040   0.38297   0.00000  Uiso   1.00
H802   H     0.77485   0.78626   0.61703   0.00000  Uiso   1.00
H803   H     0.89177   0.88040   0.63215   0.00000  Uiso   1.00
H804   H     0.77489   0.78626   0.36785   0.00000  Uiso   1.00
N805   N     0.83332   0.83332   0.61907   0.00000  Uiso   1.00
N806   N     0.83335   0.83334   0.38093   0.00000  Uiso   1.00
O807   O     0.83333   0.77225   0.53821   0.00000  Uiso   1.00
O808   O     0.83334   0.89442   0.46179   0.00000  Uiso   1.00
O809   O     0.83333   0.77226   0.46176   0.00000  Uiso   1.00
O810   O     0.83334   0.89441   0.53824   0.00000  Uiso   1.00
O811   O     0.75725   0.83333   0.52928   0.00000  Uiso   1.00
O812   O     0.90942   0.83334   0.47072   0.00000  Uiso   1.00
O813   O     0.75725   0.83334   0.45284   0.00000  Uiso   1.00
O814   O     0.90942   0.83333   0.54716   0.00000  Uiso   1.00
Zn815  Zn    0.83333   0.83333   0.55104   0.00000  Uiso   1.00
Zn816  Zn    0.83333   0.83334   0.44896   0.00000  Uiso   1.00
N817   N     0.75292   0.71154   0.44344   0.00000  Uiso   1.00
H818   H     0.71663   0.70328   0.45259   0.00000  Uiso   1.00
H819   H     0.75307   0.70360   0.40919   0.00000  Uiso   1.00
N820   N     0.91374   0.95513   0.55656   0.00000  Uiso   1.00
H821   H     0.91360   0.96307   0.59081   0.00000  Uiso   1.00
H822   H     0.95004   0.96339   0.54741   0.00000  Uiso   1.00
N823   N     0.75289   0.95490   0.44348   0.00000  Uiso   1.00
H824   H     0.71663   0.96299   0.45271   0.00000  Uiso   1.00
H825   H     0.75295   0.96292   0.40923   0.00000  Uiso   1.00
N826   N     0.91377   0.71177   0.55652   0.00000  Uiso   1.00
H827   H     0.91371   0.70375   0.59077   0.00000  Uiso   1.00
H828   H     0.95004   0.70367   0.54729   0.00000  Uiso   1.00
C829   C     0.16666   0.08680   0.83333   0.00000  Uiso   1.00
C830   C     0.16668   0.24653   0.83334   0.00000  Uiso   1.00
C831   C     0.06705   0.16666   0.82137   0.00000  Uiso   1.00
C832   C     0.26628   0.16667   0.84529   0.00000  Uiso   1.00
C833   C     0.01201   0.16670   0.81494   0.00000  Uiso   1.00
C834   C     0.32132   0.16664   0.85173   0.00000  Uiso   1.00
C835   C     0.12681   0.02167   0.80465   0.00000  Uiso   1.00
C836   C     0.20652   0.31166   0.86202   0.00000  Uiso   1.00
C837   C     0.12681   0.31155   0.80465   0.00000  Uiso   1.00
C838   C     0.20652   0.02179   0.86202   0.00000  Uiso   1.00
C839   C     0.16667   0.29067   0.83333   0.00000  Uiso   1.00
C840   C     0.16666   0.04266   0.83334   0.00000  Uiso   1.00
C841   C     0.19915   0.19282   0.69483   0.00000  Uiso   1.00
C842   C     0.13418   0.14052   0.97184   0.00000  Uiso   1.00
C843   C     0.19913   0.19281   0.98024   0.00000  Uiso   1.00
C844   C     0.13420   0.14052   0.68643   0.00000  Uiso   1.00
H845   H     0.32474   0.16679   0.78004   0.00000  Uiso   1.00
H846   H     0.00860   0.16654   0.88663   0.00000  Uiso   1.00
H847   H     0.22515   0.21374   0.71631   0.00000  Uiso   1.00
H848   H     0.10818   0.11960   0.95036   0.00000  Uiso   1.00
H849   H     0.22511   0.21374   0.96548   0.00000  Uiso   1.00
H850   H     0.10823   0.11960   0.70118   0.00000  Uiso   1.00
N851   N     0.16665   0.16666   0.95240   0.00000  Uiso   1.00
N852   N     0.16668   0.16668   0.71427   0.00000  Uiso   1.00
O853   O     0.16666   0.10558   0.87154   0.00000  Uiso   1.00
O854   O     0.16667   0.22775   0.79513   0.00000  Uiso   1.00
O855   O     0.16666   0.10559   0.79510   0.00000  Uiso   1.00
O856   O     0.16667   0.22774   0.87157   0.00000  Uiso   1.00
O857   O     0.09058   0.16666   0.86261   0.00000  Uiso   1.00
O858   O     0.24275   0.16667   0.80405   0.00000  Uiso   1.00
O859   O     0.09058   0.16667   0.78617   0.00000  Uiso   1.00
O860   O     0.24275   0.16666   0.88050   0.00000  Uiso   1.00
Zn861  Zn    0.16667   0.16666   0.88437   0.00000  Uiso   1.00
Zn862  Zn    0.16667   0.16667   0.78229   0.00000  Uiso   1.00
N863   N     0.08626   0.04487   0.77677   0.00000  Uiso   1.00
H864   H     0.04996   0.03661   0.78593   0.00000  Uiso   1.00
H865   H     0.08640   0.03693   0.74252   0.00000  Uiso   1.00
N866   N     0.24708   0.28846   0.88990   0.00000  Uiso   1.00
H867   H     0.24693   0.29640   0.92414   0.00000  Uiso   1.00
H868   H     0.28337   0.29672   0.88074   0.00000  Uiso   1.00
N869   N     0.08623   0.28824   0.77681   0.00000  Uiso   1.00
H870   H     0.04996   0.29633   0.78604   0.00000  Uiso   1.00
H871   H     0.08629   0.29625   0.74256   0.00000  Uiso   1.00
N872   N     0.24711   0.04510   0.88985   0.00000  Uiso   1.00
H873   H     0.24705   0.03708   0.92410   0.00000  Uiso   1.00
H874   H     0.28337   0.03701   0.88062   0.00000  Uiso   1.00
C875   C     0.49999   0.08680   0.83333   0.00000  Uiso   1.00
C876   C     0.50001   0.24653   0.83334   0.00000  Uiso   1.00
C877   C     0.40039   0.16666   0.82137   0.00000  Uiso   1.00
C878   C     0.59962   0.16667   0.84529   0.00000  Uiso   1.00
C879   C     0.34534   0.16670   0.81494   0.00000  Uiso   1.00
C880   C     0.65466   0.16664   0.85173   0.00000  Uiso   1.00
C881   C     0.46014   0.02167   0.80465   0.00000  Uiso   1.00
C882   C     0.53986   0.31166   0.86202   0.00000  Uiso   1.00
C883   C     0.46014   0.31155   0.80465   0.00000  Uiso   1.00
C884   C     0.53986   0.02179   0.86202   0.00000  Uiso   1.00
C885   C     0.50001   0.29067   0.83333   0.00000  Uiso   1.00
C886   C     0.49999   0.04266   0.83334   0.00000  Uiso   1.00
C887   C     0.53248   0.19282   0.69483   0.00000  Uiso   1.00
C888   C     0.46752   0.14052   0.97184   0.00000  Uiso   1.00
C889   C     0.53247   0.19281   0.98024   0.00000  Uiso   1.00
C890   C     0.46754   0.14052   0.68643   0.00000  Uiso   1.00
H891   H     0.65807   0.16679   0.78004   0.00000  Uiso   1.00
H892   H     0.34193   0.16654   0.88663   0.00000  Uiso   1.00
H893   H     0.55849   0.21374   0.71631   0.00000  Uiso   1.00
H894   H     0.44151   0.11960   0.95036   0.00000  Uiso   1.00
H895   H     0.55844   0.21374   0.96548   0.00000  Uiso   1.00
H896   H     0.44156   0.11960   0.70118   0.00000  Uiso   1.00
N897   N     0.49999   0.16666   0.95240   0.00000  Uiso   1.00
N898   N     0.50001   0.16668   0.71427   0.00000  Uiso   1.00
O899   O     0.50000   0.10558   0.87154   0.00000  Uiso   1.00
O900   O     0.50000   0.22775   0.79513   0.00000  Uiso   1.00
O901   O     0.50000   0.10559   0.79510   0.00000  Uiso   1.00
O902   O     0.50000   0.22774   0.87157   0.00000  Uiso   1.00
O903   O     0.42392   0.16666   0.86261   0.00000  Uiso   1.00
O904   O     0.57608   0.16667   0.80405   0.00000  Uiso   1.00
O905   O     0.42392   0.16667   0.78617   0.00000  Uiso   1.00
O906   O     0.57608   0.16666   0.88050   0.00000  Uiso   1.00
Zn907  Zn    0.50000   0.16666   0.88437   0.00000  Uiso   1.00
Zn908  Zn    0.50000   0.16667   0.78229   0.00000  Uiso   1.00
N909   N     0.41959   0.04487   0.77677   0.00000  Uiso   1.00
H910   H     0.38329   0.03661   0.78593   0.00000  Uiso   1.00
H911   H     0.41974   0.03693   0.74252   0.00000  Uiso   1.00
N912   N     0.58041   0.28846   0.88990   0.00000  Uiso   1.00
H913   H     0.58026   0.29640   0.92414   0.00000  Uiso   1.00
H914   H     0.61671   0.29672   0.88074   0.00000  Uiso   1.00
N915   N     0.41956   0.28824   0.77681   0.00000  Uiso   1.00
H916   H     0.38329   0.29633   0.78604   0.00000  Uiso   1.00
H917   H     0.41962   0.29625   0.74256   0.00000  Uiso   1.00
N918   N     0.58044   0.04510   0.88985   0.00000  Uiso   1.00
H919   H     0.58038   0.03708   0.92410   0.00000  Uiso   1.00
H920   H     0.61671   0.03701   0.88062   0.00000  Uiso   1.00
C921   C     0.83332   0.08680   0.83333   0.00000  Uiso   1.00
C922   C     0.83334   0.24653   0.83334   0.00000  Uiso   1.00
C923   C     0.73372   0.16666   0.82137   0.00000  Uiso   1.00
C924   C     0.93295   0.16667   0.84529   0.00000  Uiso   1.00
C925   C     0.67868   0.16670   0.81494   0.00000  Uiso   1.00
C926   C     0.98799   0.16664   0.85173   0.00000  Uiso   1.00
C927   C     0.79348   0.02167   0.80465   0.00000  Uiso   1.00
C928   C     0.87319   0.31166   0.86202   0.00000  Uiso   1.00
C929   C     0.79348   0.31155   0.80465   0.00000  Uiso   1.00
C930   C     0.87319   0.02179   0.86202   0.00000  Uiso   1.00
C931   C     0.83334   0.29067   0.83333   0.00000  Uiso   1.00
C932   C     0.83333   0.04266   0.83334   0.00000  Uiso   1.00
C933   C     0.86582   0.19282   0.69483   0.00000  Uiso   1.00
C934   C     0.80085   0.14052   0.97184   0.00000  Uiso   1.00
C935   C     0.86580   0.19281   0.98024   0.00000  Uiso   1.00
C936   C     0.80087   0.14052   0.68643   0.00000  Uiso   1.00
H937   H     0.99140   0.16679   0.78004   0.00000  Uiso   1.00
H938   H     0.67526   0.16654   0.88663   0.00000  Uiso   1.00
H939   H     0.89182   0.21374   0.71631   0.00000  Uiso   1.00
H940   H     0.77485   0.11960   0.95036   0.00000  Uiso   1.00
H941   H     0.89177   0.21374   0.96548   0.00000  Uiso   1.00
H942   H     0.77489   0.11960   0.70118   0.00000  Uiso   1.00
N943   N     0.83332   0.16666   0.95240   0.00000  Uiso   1.00
N944   N     0.83335   0.16668   0.71427   0.00000  Uiso   1.00
O945   O     0.83333   0.10558   0.87154   0.00000  Uiso   1.00
O946   O     0.83334   0.22775   0.79513   0.00000  Uiso   1.00
O947   O     0.83333   0.10559   0.79510   0.00000  Uiso   1.00
O948   O     0.83334   0.22774   0.87157   0.00000  Uiso   1.00
O949   O     0.75725   0.16666   0.86261   0.00000  Uiso   1.00
O950   O     0.90942   0.16667   0.80405   0.00000  Uiso   1.00
O951   O     0.75725   0.16667   0.78617   0.00000  Uiso   1.00
O952   O     0.90942   0.16666   0.88050   0.00000  Uiso   1.00
Zn953  Zn    0.83333   0.16666   0.88437   0.00000  Uiso   1.00
Zn954  Zn    0.83333   0.16667   0.78229   0.00000  Uiso   1.00
N955   N     0.75292   0.04487   0.77677   0.00000  Uiso   1.00
H956   H     0.71663   0.03661   0.78593   0.00000  Uiso   1.00
H957   H     0.75307   0.03693   0.74252   0.00000  Uiso   1.00
N958   N     0.91374   0.28846   0.88990   0.00000  Uiso   1.00
H959   H     0.91360   0.29640   0.92414   0.00000  Uiso   1.00
H960   H     0.95004   0.29672   0.88074   0.00000  Uiso   1.00
N961   N     0.75289   0.28824   0.77681   0.00000  Uiso   1.00
H962   H     0.71663   0.29633   0.78604   0.00000  Uiso   1.00
H963   H     0.75295   0.29625   0.74256   0.00000  Uiso   1.00
N964   N     0.91377   0.04510   0.88985   0.00000  Uiso   1.00
H965   H     0.91371   0.03708   0.92410   0.00000  Uiso   1.00
H966   H     0.95004   0.03701   0.88062   0.00000  Uiso   1.00
C967   C     0.16666   0.42013   0.83333   0.00000  Uiso   1.00
C968   C     0.16668   0.57987   0.83334   0.00000  Uiso   1.00
C969   C     0.06705   0.49999   0.82137   0.00000  Uiso   1.00
C970   C     0.26628   0.50001   0.84529   0.00000  Uiso   1.00
C971   C     0.01201   0.50003   0.81494   0.00000  Uiso   1.00
C972   C     0.32132   0.49997   0.85173   0.00000  Uiso   1.00
C973   C     0.12681   0.35500   0.80465   0.00000  Uiso   1.00
C974   C     0.20652   0.64500   0.86202   0.00000  Uiso   1.00
C975   C     0.12681   0.64488   0.80465   0.00000  Uiso   1.00
C976   C     0.20652   0.35512   0.86202   0.00000  Uiso   1.00
C977   C     0.16667   0.62401   0.83333   0.00000  Uiso   1.00
C978   C     0.16666   0.37599   0.83334   0.00000  Uiso   1.00
C979   C     0.19915   0.52615   0.69483   0.00000  Uiso   1.00
C980   C     0.13418   0.47385   0.97184   0.00000  Uiso   1.00
C981   C     0.19913   0.52614   0.98024   0.00000  Uiso   1.00
C982   C     0.13420   0.47386   0.68643   0.00000  Uiso   1.00
H983   H     0.32474   0.50012   0.78004   0.00000  Uiso   1.00
H984   H     0.00860   0.49988   0.88663   0.00000  Uiso   1.00
H985   H     0.22515   0.54707   0.71631   0.00000  Uiso   1.00
H986   H     0.10818   0.45293   0.95036   0.00000  Uiso   1.00
H987   H     0.22511   0.54707   0.96548   0.00000  Uiso   1.00
H988   H     0.10823   0.45293   0.70118   0.00000  Uiso   1.00
N989   N     0.16665   0.49999   0.95240   0.00000  Uiso   1.00
N990   N     0.16668   0.50001   0.71427   0.00000  Uiso   1.00
O991   O     0.16666   0.43892   0.87154   0.00000  Uiso   1.00
O992   O     0.16667   0.56108   0.79513   0.00000  Uiso   1.00
O993   O     0.16666   0.43893   0.79510   0.00000  Uiso   1.00
O994   O     0.16667   0.56107   0.87157   0.00000  Uiso   1.00
O995   O     0.09058   0.50000   0.86261   0.00000  Uiso   1.00
O996   O     0.24275   0.50000   0.80405   0.00000  Uiso   1.00
O997   O     0.09058   0.50000   0.78617   0.00000  Uiso   1.00
O998   O     0.24275   0.50000   0.88050   0.00000  Uiso   1.00
Zn999  Zn    0.16667   0.49999   0.88437   0.00000  Uiso   1.00
Zn1000 Zn    0.16667   0.50001   0.78229   0.00000  Uiso   1.00
N1001  N     0.08626   0.37820   0.77677   0.00000  Uiso   1.00
H1002  H     0.04996   0.36995   0.78593   0.00000  Uiso   1.00
H1003  H     0.08640   0.37027   0.74252   0.00000  Uiso   1.00
N1004  N     0.24708   0.62180   0.88990   0.00000  Uiso   1.00
H1005  H     0.24693   0.62973   0.92414   0.00000  Uiso   1.00
H1006  H     0.28337   0.63005   0.88074   0.00000  Uiso   1.00
N1007  N     0.08623   0.62157   0.77681   0.00000  Uiso   1.00
H1008  H     0.04996   0.62966   0.78604   0.00000  Uiso   1.00
H1009  H     0.08629   0.62958   0.74256   0.00000  Uiso   1.00
N1010  N     0.24711   0.37843   0.88985   0.00000  Uiso   1.00
H1011  H     0.24705   0.37042   0.92410   0.00000  Uiso   1.00
H1012  H     0.28337   0.37034   0.88062   0.00000  Uiso   1.00
C1013  C     0.49999   0.42013   0.83333   0.00000  Uiso   1.00
C1014  C     0.50001   0.57987   0.83334   0.00000  Uiso   1.00
C1015  C     0.40039   0.49999   0.82137   0.00000  Uiso   1.00
C1016  C     0.59962   0.50001   0.84529   0.00000  Uiso   1.00
C1017  C     0.34534   0.50003   0.81494   0.00000  Uiso   1.00
C1018  C     0.65466   0.49997   0.85173   0.00000  Uiso   1.00
C1019  C     0.46014   0.35500   0.80465   0.00000  Uiso   1.00
C1020  C     0.53986   0.64500   0.86202   0.00000  Uiso   1.00
C1021  C     0.46014   0.64488   0.80465   0.00000  Uiso   1.00
C1022  C     0.53986   0.35512   0.86202   0.00000  Uiso   1.00
C1023  C     0.50001   0.62401   0.83333   0.00000  Uiso   1.00
C1024  C     0.49999   0.37599   0.83334   0.00000  Uiso   1.00
C1025  C     0.53248   0.52615   0.69483   0.00000  Uiso   1.00
C1026  C     0.46752   0.47385   0.97184   0.00000  Uiso   1.00
C1027  C     0.53247   0.52614   0.98024   0.00000  Uiso   1.00
C1028  C     0.46754   0.47386   0.68643   0.00000  Uiso   1.00
H1029  H     0.65807   0.50012   0.78004   0.00000  Uiso   1.00
H1030  H     0.34193   0.49988   0.88663   0.00000  Uiso   1.00
H1031  H     0.55849   0.54707   0.71631   0.00000  Uiso   1.00
H1032  H     0.44151   0.45293   0.95036   0.00000  Uiso   1.00
H1033  H     0.55844   0.54707   0.96548   0.00000  Uiso   1.00
H1034  H     0.44156   0.45293   0.70118   0.00000  Uiso   1.00
N1035  N     0.49999   0.49999   0.95240   0.00000  Uiso   1.00
N1036  N     0.50001   0.50001   0.71427   0.00000  Uiso   1.00
O1037  O     0.50000   0.43892   0.87154   0.00000  Uiso   1.00
O1038  O     0.50000   0.56108   0.79513   0.00000  Uiso   1.00
O1039  O     0.50000   0.43893   0.79510   0.00000  Uiso   1.00
O1040  O     0.50000   0.56107   0.87157   0.00000  Uiso   1.00
O1041  O     0.42392   0.50000   0.86261   0.00000  Uiso   1.00
O1042  O     0.57608   0.50000   0.80405   0.00000  Uiso   1.00
O1043  O     0.42392   0.50000   0.78617   0.00000  Uiso   1.00
O1044  O     0.57608   0.50000   0.88050   0.00000  Uiso   1.00
Zn1045 Zn    0.50000   0.49999   0.88437   0.00000  Uiso   1.00
Zn1046 Zn    0.50000   0.50001   0.78229   0.00000  Uiso   1.00
N1047  N     0.41959   0.37820   0.77677   0.00000  Uiso   1.00
H1048  H     0.38329   0.36995   0.78593   0.00000  Uiso   1.00
H1049  H     0.41974   0.37027   0.74252   0.00000  Uiso   1.00
N1050  N     0.58041   0.62180   0.88990   0.00000  Uiso   1.00
H1051  H     0.58026   0.62973   0.92414   0.00000  Uiso   1.00
H1052  H     0.61671   0.63005   0.88074   0.00000  Uiso   1.00
N1053  N     0.41956   0.62157   0.77681   0.00000  Uiso   1.00
H1054  H     0.38329   0.62966   0.78604   0.00000  Uiso   1.00
H1055  H     0.41962   0.62958   0.74256   0.00000  Uiso   1.00
N1056  N     0.58044   0.37843   0.88985   0.00000  Uiso   1.00
H1057  H     0.58038   0.37042   0.92410   0.00000  Uiso   1.00
H1058  H     0.61671   0.37034   0.88062   0.00000  Uiso   1.00
C1059  C     0.83332   0.42013   0.83333   0.00000  Uiso   1.00
C1060  C     0.83334   0.57987   0.83334   0.00000  Uiso   1.00
C1061  C     0.73372   0.49999   0.82137   0.00000  Uiso   1.00
C1062  C     0.93295   0.50001   0.84529   0.00000  Uiso   1.00
C1063  C     0.67868   0.50003   0.81494   0.00000  Uiso   1.00
C1064  C     0.98799   0.49997   0.85173   0.00000  Uiso   1.00
C1065  C     0.79348   0.35500   0.80465   0.00000  Uiso   1.00
C1066  C     0.87319   0.64500   0.86202   0.00000  Uiso   1.00
C1067  C     0.79348   0.64488   0.80465   0.00000  Uiso   1.00
C1068  C     0.87319   0.35512   0.86202   0.00000  Uiso   1.00
C1069  C     0.83334   0.62401   0.83333   0.00000  Uiso   1.00
C1070  C     0.83333   0.37599   0.83334   0.00000  Uiso   1.00
C1071  C     0.86582   0.52615   0.69483   0.00000  Uiso   1.00
C1072  C     0.80085   0.47385   0.97184   0.00000  Uiso   1.00
C1073  C     0.86580   0.52614   0.98024   0.00000  Uiso   1.00
C1074  C     0.80087   0.47386   0.68643   0.00000  Uiso   1.00
H1075  H     0.99140   0.50012   0.78004   0.00000  Uiso   1.00
H1076  H     0.67526   0.49988   0.88663   0.00000  Uiso   1.00
H1077  H     0.89182   0.54707   0.71631   0.00000  Uiso   1.00
H1078  H     0.77485   0.45293   0.95036   0.00000  Uiso   1.00
H1079  H     0.89177   0.54707   0.96548   0.00000  Uiso   1.00
H1080  H     0.77489   0.45293   0.70118   0.00000  Uiso   1.00
N1081  N     0.83332   0.49999   0.95240   0.00000  Uiso   1.00
N1082  N     0.83335   0.50001   0.71427   0.00000  Uiso   1.00
O1083  O     0.83333   0.43892   0.87154   0.00000  Uiso   1.00
O1084  O     0.83334   0.56108   0.79513   0.00000  Uiso   1.00
O1085  O     0.83333   0.43893   0.79510   0.00000  Uiso   1.00
O1086  O     0.83334   0.56107   0.87157   0.00000  Uiso   1.00
O1087  O     0.75725   0.50000   0.86261   0.00000  Uiso   1.00
O1088  O     0.90942   0.50000   0.80405   0.00000  Uiso   1.00
O1089  O     0.75725   0.50000   0.78617   0.00000  Uiso   1.00
O1090  O     0.90942   0.50000   0.88050   0.00000  Uiso   1.00
Zn1091 Zn    0.83333   0.49999   0.88437   0.00000  Uiso   1.00
Zn1092 Zn    0.83333   0.50001   0.78229   0.00000  Uiso   1.00
N1093  N     0.75292   0.37820   0.77677   0.00000  Uiso   1.00
H1094  H     0.71663   0.36995   0.78593   0.00000  Uiso   1.00
H1095  H     0.75307   0.37027   0.74252   0.00000  Uiso   1.00
N1096  N     0.91374   0.62180   0.88990   0.00000  Uiso   1.00
H1097  H     0.91360   0.62973   0.92414   0.00000  Uiso   1.00
H1098  H     0.95004   0.63005   0.88074   0.00000  Uiso   1.00
N1099  N     0.75289   0.62157   0.77681   0.00000  Uiso   1.00
H1100  H     0.71663   0.62966   0.78604   0.00000  Uiso   1.00
H1101  H     0.75295   0.62958   0.74256   0.00000  Uiso   1.00
N1102  N     0.91377   0.37843   0.88985   0.00000  Uiso   1.00
H1103  H     0.91371   0.37042   0.92410   0.00000  Uiso   1.00
H1104  H     0.95004   0.37034   0.88062   0.00000  Uiso   1.00
C1105  C     0.16666   0.75347   0.83333   0.00000  Uiso   1.00
C1106  C     0.16668   0.91320   0.83334   0.00000  Uiso   1.00
C1107  C     0.06705   0.83333   0.82137   0.00000  Uiso   1.00
C1108  C     0.26628   0.83334   0.84529   0.00000  Uiso   1.00
C1109  C     0.01201   0.83336   0.81494   0.00000  Uiso   1.00
C1110  C     0.32132   0.83330   0.85173   0.00000  Uiso   1.00
C1111  C     0.12681   0.68834   0.80465   0.00000  Uiso   1.00
C1112  C     0.20652   0.97833   0.86202   0.00000  Uiso   1.00
C1113  C     0.12681   0.97821   0.80465   0.00000  Uiso   1.00
C1114  C     0.20652   0.68845   0.86202   0.00000  Uiso   1.00
C1115  C     0.16667   0.95734   0.83333   0.00000  Uiso   1.00
C1116  C     0.16666   0.70933   0.83334   0.00000  Uiso   1.00
C1117  C     0.19915   0.85948   0.69483   0.00000  Uiso   1.00
C1118  C     0.13418   0.80718   0.97184   0.00000  Uiso   1.00
C1119  C     0.19913   0.85948   0.98024   0.00000  Uiso   1.00
C1120  C     0.13420   0.80719   0.68643   0.00000  Uiso   1.00
H1121  H     0.32474   0.83346   0.78004   0.00000  Uiso   1.00
H1122  H     0.00860   0.83321   0.88663   0.00000  Uiso   1.00
H1123  H     0.22515   0.88040   0.71631   0.00000  Uiso   1.00
H1124  H     0.10818   0.78626   0.95036   0.00000  Uiso   1.00
H1125  H     0.22511   0.88040   0.96548   0.00000  Uiso   1.00
H1126  H     0.10823   0.78626   0.70118   0.00000  Uiso   1.00
N1127  N     0.16665   0.83332   0.95240   0.00000  Uiso   1.00
N1128  N     0.16668   0.83334   0.71427   0.00000  Uiso   1.00
O1129  O     0.16666   0.77225   0.87154   0.00000  Uiso   1.00
O1130  O     0.16667   0.89442   0.79513   0.00000  Uiso   1.00
O1131  O     0.16666   0.77226   0.79510   0.00000  Uiso   1.00
O1132  O     0.16667   0.89441   0.87157   0.00000  Uiso   1.00
O1133  O     0.09058   0.83333   0.86261   0.00000  Uiso   1.00
O1134  O     0.24275   0.83334   0.80405   0.00000  Uiso   1.00
O1135  O     0.09058   0.83334   0.78617   0.00000  Uiso   1.00
O1136  O     0.24275   0.83333   0.88050   0.00000  Uiso   1.00
Zn1137 Zn    0.16667   0.83333   0.88437   0.00000  Uiso   1.00
Zn1138 Zn    0.16667   0.83334   0.78229   0.00000  Uiso   1.00
N1139  N     0.08626   0.71154   0.77677   0.00000  Uiso   1.00
H1140  H     0.04996   0.70328   0.78593   0.00000  Uiso   1.00
H1141  H     0.08640   0.70360   0.74252   0.00000  Uiso   1.00
N1142  N     0.24708   0.95513   0.88990   0.00000  Uiso   1.00
H1143  H     0.24693   0.96307   0.92414   0.00000  Uiso   1.00
H1144  H     0.28337   0.96339   0.88074   0.00000  Uiso   1.00
N1145  N     0.08623   0.95490   0.77681   0.00000  Uiso   1.00
H1146  H     0.04996   0.96299   0.78604   0.00000  Uiso   1.00
H1147  H     0.08629   0.96292   0.74256   0.00000  Uiso   1.00
N1148  N     0.24711   0.71177   0.88985   0.00000  Uiso   1.00
H1149  H     0.24705   0.70375   0.92410   0.00000  Uiso   1.00
H1150  H     0.28337   0.70367   0.88062   0.00000  Uiso   1.00
C1151  C     0.49999   0.75347   0.83333   0.00000  Uiso   1.00
C1152  C     0.50001   0.91320   0.83334   0.00000  Uiso   1.00
C1153  C     0.40039   0.83333   0.82137   0.00000  Uiso   1.00
C1154  C     0.59962   0.83334   0.84529   0.00000  Uiso   1.00
C1155  C     0.34534   0.83336   0.81494   0.00000  Uiso   1.00
C1156  C     0.65466   0.83330   0.85173   0.00000  Uiso   1.00
C1157  C     0.46014   0.68834   0.80465   0.00000  Uiso   1.00
C1158  C     0.53986   0.97833   0.86202   0.00000  Uiso   1.00
C1159  C     0.46014   0.97821   0.80465   0.00000  Uiso   1.00
C1160  C     0.53986   0.68845   0.86202   0.00000  Uiso   1.00
C1161  C     0.50001   0.95734   0.83333   0.00000  Uiso   1.00
C1162  C     0.49999   0.70933   0.83334   0.00000  Uiso   1.00
C1163  C     0.53248   0.85948   0.69483   0.00000  Uiso   1.00
C1164  C     0.46752   0.80718   0.97184   0.00000  Uiso   1.00
C1165  C     0.53247   0.85948   0.98024   0.00000  Uiso   1.00
C1166  C     0.46754   0.80719   0.68643   0.00000  Uiso   1.00
H1167  H     0.65807   0.83346   0.78004   0.00000  Uiso   1.00
H1168  H     0.34193   0.83321   0.88663   0.00000  Uiso   1.00
H1169  H     0.55849   0.88040   0.71631   0.00000  Uiso   1.00
H1170  H     0.44151   0.78626   0.95036   0.00000  Uiso   1.00
H1171  H     0.55844   0.88040   0.96548   0.00000  Uiso   1.00
H1172  H     0.44156   0.78626   0.70118   0.00000  Uiso   1.00
N1173  N     0.49999   0.83332   0.95240   0.00000  Uiso   1.00
N1174  N     0.50001   0.83334   0.71427   0.00000  Uiso   1.00
O1175  O     0.50000   0.77225   0.87154   0.00000  Uiso   1.00
O1176  O     0.50000   0.89442   0.79513   0.00000  Uiso   1.00
O1177  O     0.50000   0.77226   0.79510   0.00000  Uiso   1.00
O1178  O     0.50000   0.89441   0.87157   0.00000  Uiso   1.00
O1179  O     0.42392   0.83333   0.86261   0.00000  Uiso   1.00
O1180  O     0.57608   0.83334   0.80405   0.00000  Uiso   1.00
O1181  O     0.42392   0.83334   0.78617   0.00000  Uiso   1.00
O1182  O     0.57608   0.83333   0.88050   0.00000  Uiso   1.00
Zn1183 Zn    0.50000   0.83333   0.88437   0.00000  Uiso   1.00
Zn1184 Zn    0.50000   0.83334   0.78229   0.00000  Uiso   1.00
N1185  N     0.41959   0.71154   0.77677   0.00000  Uiso   1.00
H1186  H     0.38329   0.70328   0.78593   0.00000  Uiso   1.00
H1187  H     0.41974   0.70360   0.74252   0.00000  Uiso   1.00
N1188  N     0.58041   0.95513   0.88990   0.00000  Uiso   1.00
H1189  H     0.58026   0.96307   0.92414   0.00000  Uiso   1.00
H1190  H     0.61671   0.96339   0.88074   0.00000  Uiso   1.00
N1191  N     0.41956   0.95490   0.77681   0.00000  Uiso   1.00
H1192  H     0.38329   0.96299   0.78604   0.00000  Uiso   1.00
H1193  H     0.41962   0.96292   0.74256   0.00000  Uiso   1.00
N1194  N     0.58044   0.71177   0.88985   0.00000  Uiso   1.00
H1195  H     0.58038   0.70375   0.92410   0.00000  Uiso   1.00
H1196  H     0.61671   0.70367   0.88062   0.00000  Uiso   1.00
C1197  C     0.83332   0.75347   0.83333   0.00000  Uiso   1.00
C1198  C     0.83334   0.91320   0.83334   0.00000  Uiso   1.00
C1199  C     0.73372   0.83333   0.82137   0.00000  Uiso   1.00
C1200  C     0.93295   0.83334   0.84529   0.00000  Uiso   1.00
C1201  C     0.67868   0.83336   0.81494   0.00000  Uiso   1.00
C1202  C     0.98799   0.83330   0.85173   0.00000  Uiso   1.00
C1203  C     0.79348   0.68834   0.80465   0.00000  Uiso   1.00
C1204  C     0.87319   0.97833   0.86202   0.00000  Uiso   1.00
C1205  C     0.79348   0.97821   0.80465   0.00000  Uiso   1.00
C1206  C     0.87319   0.68845   0.86202   0.00000  Uiso   1.00
C1207  C     0.83334   0.95734   0.83333   0.00000  Uiso   1.00
C1208  C     0.83333   0.70933   0.83334   0.00000  Uiso   1.00
C1209  C     0.86582   0.85948   0.69483   0.00000  Uiso   1.00
C1210  C     0.80085   0.80718   0.97184   0.00000  Uiso   1.00
C1211  C     0.86580   0.85948   0.98024   0.00000  Uiso   1.00
C1212  C     0.80087   0.80719   0.68643   0.00000  Uiso   1.00
H1213  H     0.99140   0.83346   0.78004   0.00000  Uiso   1.00
H1214  H     0.67526   0.83321   0.88663   0.00000  Uiso   1.00
H1215  H     0.89182   0.88040   0.71631   0.00000  Uiso   1.00
H1216  H     0.77485   0.78626   0.95036   0.00000  Uiso   1.00
H1217  H     0.89177   0.88040   0.96548   0.00000  Uiso   1.00
H1218  H     0.77489   0.78626   0.70118   0.00000  Uiso   1.00
N1219  N     0.83332   0.83332   0.95240   0.00000  Uiso   1.00
N1220  N     0.83335   0.83334   0.71427   0.00000  Uiso   1.00
O1221  O     0.83333   0.77225   0.87154   0.00000  Uiso   1.00
O1222  O     0.83334   0.89442   0.79513   0.00000  Uiso   1.00
O1223  O     0.83333   0.77226   0.79510   0.00000  Uiso   1.00
O1224  O     0.83334   0.89441   0.87157   0.00000  Uiso   1.00
O1225  O     0.75725   0.83333   0.86261   0.00000  Uiso   1.00
O1226  O     0.90942   0.83334   0.80405   0.00000  Uiso   1.00
O1227  O     0.75725   0.83334   0.78617   0.00000  Uiso   1.00
O1228  O     0.90942   0.83333   0.88050   0.00000  Uiso   1.00
Zn1229 Zn    0.83333   0.83333   0.88437   0.00000  Uiso   1.00
Zn1230 Zn    0.83333   0.83334   0.78229   0.00000  Uiso   1.00
N1231  N     0.75292   0.71154   0.77677   0.00000  Uiso   1.00
H1232  H     0.71663   0.70328   0.78593   0.00000  Uiso   1.00
H1233  H     0.75307   0.70360   0.74252   0.00000  Uiso   1.00
N1234  N     0.91374   0.95513   0.88990   0.00000  Uiso   1.00
H1235  H     0.91360   0.96307   0.92414   0.00000  Uiso   1.00
H1236  H     0.95004   0.96339   0.88074   0.00000  Uiso   1.00
N1237  N     0.75289   0.95490   0.77681   0.00000  Uiso   1.00
H1238  H     0.71663   0.96299   0.78604   0.00000  Uiso   1.00
H1239  H     0.75295   0.96292   0.74256   0.00000  Uiso   1.00
N1240  N     0.91377   0.71177   0.88985   0.00000  Uiso   1.00
H1241  H     0.91371   0.70375   0.92410   0.00000  Uiso   1.00
H1242  H     0.95004   0.70367   0.88062   0.00000  Uiso   1.00
loop_
_geom_bond_atom_site_label_1
_geom_bond_atom_site_label_2
_geom_bond_distance
_geom_bond_site_symmetry_2
_ccdc_geom_bond_type
C1     O25     1.280   .     A
C1     C12     1.410   .     S
C1     O27     1.280   .     A
C2     C11     1.410   .     S
C2     O26     1.280   .     A
C2     O28     1.280   .     A
C3     O31     1.281   .     A
C3     O29     1.279   .     A
C3     C5      1.402   .     S
C4     O32     1.281   .     A
C4     C6      1.402   .     S
C4     O30     1.279   .     A
C5     C98     1.330   1_455 S
C5     H109    1.088   1_455 S
C6     C51     1.330   .     S
C6     H64     1.088   .     S
C7     C12     1.400   .     A
C7     N35     1.437   .     S
C7     C285    1.388   1_545 S
C8     N38     1.437   .     S
C8     C11     1.400   .     A
C8     C148    1.388   .     S
C9     C11     1.400   .     A
C9     N41     1.437   .     S
C9     C145    1.388   .     S
C10    C12     1.400   .     A
C10    N44     1.437   .     S
C10    C284    1.388   1_545 S
C13    H19     1.082   .     S
C13    N24     1.367   .     A
C13    C843    1.418   1_554 S
C14    N23     1.367   .     A
C14    H20     1.082   .     S
C14    C430    1.418   .     S
C15    N23     1.367   .     A
C15    H21     1.082   .     S
C15    C427    1.418   .     S
C16    N24     1.367   .     A
C16    H22     1.082   .     S
C16    C842    1.418   1_554 S
H17    C51     1.088   .     S
H18    C98     1.088   1_455 S
N23    Zn33    2.012   .     S
N24    Zn34    2.012   .     S
O25    Zn33    1.988   .     S
O26    Zn34    1.988   .     S
O27    Zn34    1.988   .     S
O28    Zn33    1.988   .     S
O29    Zn33    1.970   .     S
O30    Zn34    1.970   .     S
O31    Zn34    1.981   .     S
O32    Zn33    1.981   .     S
N35    H36     1.045   .     S
N35    H37     1.045   .     S
N38    H40     1.045   .     S
N38    H39     1.045   .     S
N41    H42     1.045   .     S
N41    H43     1.045   .     S
N44    H46     1.045   .     S
N44    H45     1.045   .     S
C47    O71     1.280   .     A
C47    C58     1.410   .     S
C47    O73     1.280   .     A
C48    C57     1.410   .     S
C48    O72     1.280   .     A
C48    O74     1.280   .     A
C49    O77     1.281   .     A
C49    O75     1.279   .     A
C49    C51     1.402   .     S
C50    O78     1.281   .     A
C50    C52     1.402   .     S
C50    O76     1.279   .     A
C52    C97     1.330   .     S
C52    H110    1.088   .     S
C53    C58     1.400   .     A
C53    N81     1.437   .     S
C53    C331    1.388   1_545 S
C54    N84     1.437   .     S
C54    C57     1.400   .     A
C54    C194    1.388   .     S
C55    C57     1.400   .     A
C55    N87     1.437   .     S
C55    C191    1.388   .     S
C56    C58     1.400   .     A
C56    N90     1.437   .     S
C56    C330    1.388   1_545 S
C59    H65     1.082   .     S
C59    N70     1.367   .     A
C59    C889    1.418   1_554 S
C60    N69     1.367   .     A
C60    H66     1.082   .     S
C60    C476    1.418   .     S
C61    N69     1.367   .     A
C61    H67     1.082   .     S
C61    C473    1.418   .     S
C62    N70     1.367   .     A
C62    H68     1.082   .     S
C62    C888    1.418   1_554 S
H63    C97     1.088   .     S
N69    Zn79    2.012   .     S
N70    Zn80    2.012   .     S
O71    Zn79    1.988   .     S
O72    Zn80    1.988   .     S
O73    Zn80    1.988   .     S
O74    Zn79    1.988   .     S
O75    Zn79    1.970   .     S
O76    Zn80    1.970   .     S
O77    Zn80    1.981   .     S
O78    Zn79    1.981   .     S
N81    H82     1.045   .     S
N81    H83     1.045   .     S
N84    H86     1.045   .     S
N84    H85     1.045   .     S
N87    H88     1.045   .     S
N87    H89     1.045   .     S
N90    H92     1.045   .     S
N90    H91     1.045   .     S
C93    O117    1.280   .     A
C93    C104    1.410   .     S
C93    O119    1.280   .     A
C94    C103    1.410   .     S
C94    O118    1.280   .     A
C94    O120    1.280   .     A
C95    O123    1.281   .     A
C95    O121    1.279   .     A
C95    C97     1.402   .     S
C96    O124    1.281   .     A
C96    C98     1.402   .     S
C96    O122    1.279   .     A
C98    C5      1.330   1_655 S
C98    H18     1.088   1_655 S
C99    C104    1.400   .     A
C99    N127    1.437   .     S
C99    C377    1.388   1_545 S
C100   N130    1.437   .     S
C100   C103    1.400   .     A
C100   C240    1.388   .     S
C101   C103    1.400   .     A
C101   N133    1.437   .     S
C101   C237    1.388   .     S
C102   C104    1.400   .     A
C102   N136    1.437   .     S
C102   C376    1.388   1_545 S
C105   H111    1.082   .     S
C105   N116    1.367   .     A
C105   C935    1.418   1_554 S
C106   N115    1.367   .     A
C106   H112    1.082   .     S
C106   C522    1.418   .     S
C107   N115    1.367   .     A
C107   H113    1.082   .     S
C107   C519    1.418   .     S
C108   N116    1.367   .     A
C108   H114    1.082   .     S
C108   C934    1.418   1_554 S
H109   C5      1.088   1_655 S
N115   Zn125   2.012   .     S
N116   Zn126   2.012   .     S
O117   Zn125   1.988   .     S
O118   Zn126   1.988   .     S
O119   Zn126   1.988   .     S
O120   Zn125   1.988   .     S
O121   Zn125   1.970   .     S
O122   Zn126   1.970   .     S
O123   Zn126   1.981   .     S
O124   Zn125   1.981   .     S
N127   H128    1.045   .     S
N127   H129    1.045   .     S
N130   H132    1.045   .     S
N130   H131    1.045   .     S
N133   H134    1.045   .     S
N133   H135    1.045   .     S
N136   H138    1.045   .     S
N136   H137    1.045   .     S
C139   O163    1.280   .     A
C139   C150    1.410   .     S
C139   O165    1.280   .     A
C140   C149    1.410   .     S
C140   O164    1.280   .     A
C140   O166    1.280   .     A
C141   O169    1.281   .     A
C141   O167    1.279   .     A
C141   C143    1.402   .     S
C142   O170    1.281   .     A
C142   C144    1.402   .     S
C142   O168    1.279   .     A
C143   C236    1.330   1_455 S
C143   H247    1.088   1_455 S
C144   C189    1.330   .     S
C144   H202    1.088   .     S
C145   C150    1.400   .     A
C145   N173    1.437   .     S
C146   N176    1.437   .     S
C146   C149    1.400   .     A
C146   C286    1.388   .     S
C147   C149    1.400   .     A
C147   N179    1.437   .     S
C147   C283    1.388   .     S
C148   C150    1.400   .     A
C148   N182    1.437   .     S
C151   H157    1.082   .     S
C151   N162    1.367   .     A
C151   C981    1.418   1_554 S
C152   N161    1.367   .     A
C152   H158    1.082   .     S
C152   C568    1.418   .     S
C153   N161    1.367   .     A
C153   H159    1.082   .     S
C153   C565    1.418   .     S
C154   N162    1.367   .     A
C154   H160    1.082   .     S
C154   C980    1.418   1_554 S
H155   C189    1.088   .     S
H156   C236    1.088   1_455 S
N161   Zn171   2.012   .     S
N162   Zn172   2.012   .     S
O163   Zn171   1.988   .     S
O164   Zn172   1.988   .     S
O165   Zn172   1.988   .     S
O166   Zn171   1.988   .     S
O167   Zn171   1.970   .     S
O168   Zn172   1.970   .     S
O169   Zn172   1.981   .     S
O170   Zn171   1.981   .     S
N173   H174    1.045   .     S
N173   H175    1.045   .     S
N176   H178    1.045   .     S
N176   H177    1.045   .     S
N179   H180    1.045   .     S
N179   H181    1.045   .     S
N182   H184    1.045   .     S
N182   H183    1.045   .     S
C185   O209    1.280   .     A
C185   C196    1.410   .     S
C185   O211    1.280   .     A
C186   C195    1.410   .     S
C186   O210    1.280   .     A
C186   O212    1.280   .     A
C187   O215    1.281   .     A
C187   O213    1.279   .     A
C187   C189    1.402   .     S
C188   O216    1.281   .     A
C188   C190    1.402   .     S
C188   O214    1.279   .     A
C190   C235    1.330   .     S
C190   H248    1.088   .     S
C191   C196    1.400   .     A
C191   N219    1.437   .     S
C192   N222    1.437   .     S
C192   C195    1.400   .     A
C192   C332    1.388   .     S
C193   C195    1.400   .     A
C193   N225    1.437   .     S
C193   C329    1.388   .     S
C194   C196    1.400   .     A
C194   N228    1.437   .     S
C197   H203    1.082   .     S
C197   N208    1.367   .     A
C197   C1027   1.418   1_554 S
C198   N207    1.367   .     A
C198   H204    1.082   .     S
C198   C614    1.418   .     S
C199   N207    1.367   .     A
C199   H205    1.082   .     S
C199   C611    1.418   .     S
C200   N208    1.367   .     A
C200   H206    1.082   .     S
C200   C1026   1.418   1_554 S
H201   C235    1.088   .     S
N207   Zn217   2.012   .     S
N208   Zn218   2.012   .     S
O209   Zn217   1.988   .     S
O210   Zn218   1.988   .     S
O211   Zn218   1.988   .     S
O212   Zn217   1.988   .     S
O213   Zn217   1.970   .     S
O214   Zn218   1.970   .     S
O215   Zn218   1.981   .     S
O216   Zn217   1.981   .     S
N219   H220    1.045   .     S
N219   H221    1.045   .     S
N222   H224    1.045   .     S
N222   H223    1.045   .     S
N225   H226    1.045   .     S
N225   H227    1.045   .     S
N228   H230    1.045   .     S
N228   H229    1.045   .     S
C231   O255    1.280   .     A
C231   C242    1.410   .     S
C231   O257    1.280   .     A
C232   C241    1.410   .     S
C232   O256    1.280   .     A
C232   O258    1.280   .     A
C233   O261    1.281   .     A
C233   O259    1.279   .     A
C233   C235    1.402   .     S
C234   O262    1.281   .     A
C234   C236    1.402   .     S
C234   O260    1.279   .     A
C236   C143    1.330   1_655 S
C236   H156    1.088   1_655 S
C237   C242    1.400   .     A
C237   N265    1.437   .     S
C238   N268    1.437   .     S
C238   C241    1.400   .     A
C238   C378    1.388   .     S
C239   C241    1.400   .     A
C239   N271    1.437   .     S
C239   C375    1.388   .     S
C240   C242    1.400   .     A
C240   N274    1.437   .     S
C243   H249    1.082   .     S
C243   N254    1.367   .     A
C243   C1073   1.418   1_554 S
C244   N253    1.367   .     A
C244   H250    1.082   .     S
C244   C660    1.418   .     S
C245   N253    1.367   .     A
C245   H251    1.082   .     S
C245   C657    1.418   .     S
C246   N254    1.367   .     A
C246   H252    1.082   .     S
C246   C1072   1.418   1_554 S
H247   C143    1.088   1_655 S
N253   Zn263   2.012   .     S
N254   Zn264   2.012   .     S
O255   Zn263   1.988   .     S
O256   Zn264   1.988   .     S
O257   Zn264   1.988   .     S
O258   Zn263   1.988   .     S
O259   Zn263   1.970   .     S
O260   Zn264   1.970   .     S
O261   Zn264   1.981   .     S
O262   Zn263   1.981   .     S
N265   H266    1.045   .     S
N265   H267    1.045   .     S
N268   H270    1.045   .     S
N268   H269    1.045   .     S
N271   H272    1.045   .     S
N271   H273    1.045   .     S
N274   H276    1.045   .     S
N274   H275    1.045   .     S
C277   O301    1.280   .     A
C277   C288    1.410   .     S
C277   O303    1.280   .     A
C278   C287    1.410   .     S
C278   O302    1.280   .     A
C278   O304    1.280   .     A
C279   O307    1.281   .     A
C279   O305    1.279   .     A
C279   C281    1.402   .     S
C280   O308    1.281   .     A
C280   C282    1.402   .     S
C280   O306    1.279   .     A
C281   C374    1.330   1_455 S
C281   H385    1.088   1_455 S
C282   C327    1.330   .     S
C282   H340    1.088   .     S
C283   C288    1.400   .     A
C283   N311    1.437   .     S
C284   N314    1.437   .     S
C284   C287    1.400   .     A
C284   C10     1.388   1_565 S
C285   C287    1.400   .     A
C285   N317    1.437   .     S
C285   C7      1.388   1_565 S
C286   C288    1.400   .     A
C286   N320    1.437   .     S
C289   H295    1.082   .     S
C289   N300    1.367   .     A
C289   C1119   1.418   1_554 S
C290   N299    1.367   .     A
C290   H296    1.082   .     S
C290   C706    1.418   .     S
C291   N299    1.367   .     A
C291   H297    1.082   .     S
C291   C703    1.418   .     S
C292   N300    1.367   .     A
C292   H298    1.082   .     S
C292   C1118   1.418   1_554 S
H293   C327    1.088   .     S
H294   C374    1.088   1_455 S
N299   Zn309   2.012   .     S
N300   Zn310   2.012   .     S
O301   Zn309   1.988   .     S
O302   Zn310   1.988   .     S
O303   Zn310   1.988   .     S
O304   Zn309   1.988   .     S
O305   Zn309   1.970   .     S
O306   Zn310   1.970   .     S
O307   Zn310   1.981   .     S
O308   Zn309   1.981   .     S
N311   H312    1.045   .     S
N311   H313    1.045   .     S
N314   H316    1.045   .     S
N314   H315    1.045   .     S
N317   H318    1.045   .     S
N317   H319    1.045   .     S
N320   H322    1.045   .     S
N320   H321    1.045   .     S
C323   O347    1.280   .     A
C323   C334    1.410   .     S
C323   O349    1.280   .     A
C324   C333    1.410   .     S
C324   O348    1.280   .     A
C324   O350    1.280   .     A
C325   O353    1.281   .     A
C325   O351    1.279   .     A
C325   C327    1.402   .     S
C326   O354    1.281   .     A
C326   C328    1.402   .     S
C326   O352    1.279   .     A
C328   C373    1.330   .     S
C328   H386    1.088   .     S
C329   C334    1.400   .     A
C329   N357    1.437   .     S
C330   N360    1.437   .     S
C330   C333    1.400   .     A
C330   C56     1.388   1_565 S
C331   C333    1.400   .     A
C331   N363    1.437   .     S
C331   C53     1.388   1_565 S
C332   C334    1.400   .     A
C332   N366    1.437   .     S
C335   H341    1.082   .     S
C335   N346    1.367   .     A
C335   C1165   1.418   1_554 S
C336   N345    1.367   .     A
C336   H342    1.082   .     S
C336   C752    1.418   .     S
C337   N345    1.367   .     A
C337   H343    1.082   .     S
C337   C749    1.418   .     S
C338   N346    1.367   .     A
C338   H344    1.082   .     S
C338   C1164   1.418   1_554 S
H339   C373    1.088   .     S
N345   Zn355   2.012   .     S
N346   Zn356   2.012   .     S
O347   Zn355   1.988   .     S
O348   Zn356   1.988   .     S
O349   Zn356   1.988   .     S
O350   Zn355   1.988   .     S
O351   Zn355   1.970   .     S
O352   Zn356   1.970   .     S
O353   Zn356   1.981   .     S
O354   Zn355   1.981   .     S
N357   H358    1.045   .     S
N357   H359    1.045   .     S
N360   H362    1.045   .     S
N360   H361    1.045   .     S
N363   H364    1.045   .     S
N363   H365    1.045   .     S
N366   H368    1.045   .     S
N366   H367    1.045   .     S
C369   O393    1.280   .     A
C369   C380    1.410   .     S
C369   O395    1.280   .     A
C370   C379    1.410   .     S
C370   O394    1.280   .     A
C370   O396    1.280   .     A
C371   O399    1.281   .     A
C371   O397    1.279   .     A
C371   C373    1.402   .     S
C372   O400    1.281   .     A
C372   C374    1.402   .     S
C372   O398    1.279   .     A
C374   C281    1.330   1_655 S
C374   H294    1.088   1_655 S
C375   C380    1.400   .     A
C375   N403    1.437   .     S
C376   N406    1.437   .     S
C376   C379    1.400   .     A
C376   C102    1.388   1_565 S
C377   C379    1.400   .     A
C377   N409    1.437   .     S
C377   C99     1.388   1_565 S
C378   C380    1.400   .     A
C378   N412    1.437   .     S
C381   H387    1.082   .     S
C381   N392    1.367   .     A
C381   C1211   1.418   1_554 S
C382   N391    1.367   .     A
C382   H388    1.082   .     S
C382   C798    1.418   .     S
C383   N391    1.367   .     A
C383   H389    1.082   .     S
C383   C795    1.418   .     S
C384   N392    1.367   .     A
C384   H390    1.082   .     S
C384   C1210   1.418   1_554 S
H385   C281    1.088   1_655 S
N391   Zn401   2.012   .     S
N392   Zn402   2.012   .     S
O393   Zn401   1.988   .     S
O394   Zn402   1.988   .     S
O395   Zn402   1.988   .     S
O396   Zn401   1.988   .     S
O397   Zn401   1.970   .     S
O398   Zn402   1.970   .     S
O399   Zn402   1.981   .     S
O400   Zn401   1.981   .     S
N403   H404    1.045   .     S
N403   H405    1.045   .     S
N406   H408    1.045   .     S
N406   H407    1.045   .     S
N409   H410    1.045   .     S
N409   H411    1.045   .     S
N412   H414    1.045   .     S
N412   H413    1.045   .     S
C415   O439    1.280   .     A
C415   C426    1.410   .     S
C415   O441    1.280   .     A
C416   C425    1.410   .     S
C416   O440    1.280   .     A
C416   O442    1.280   .     A
C417   O445    1.281   .     A
C417   O443    1.279   .     A
C417   C419    1.402   .     S
C418   O446    1.281   .     A
C418   C420    1.402   .     S
C418   O444    1.279   .     A
C419   C512    1.330   1_455 S
C419   H523    1.088   1_455 S
C420   C465    1.330   .     S
C420   H478    1.088   .     S
C421   C426    1.400   .     A
C421   N449    1.437   .     S
C421   C699    1.388   1_545 S
C422   N452    1.437   .     S
C422   C425    1.400   .     A
C422   C562    1.388   .     S
C423   C425    1.400   .     A
C423   N455    1.437   .     S
C423   C559    1.388   .     S
C424   C426    1.400   .     A
C424   N458    1.437   .     S
C424   C698    1.388   1_545 S
C427   H433    1.082   .     S
C427   N438    1.367   .     A
C428   N437    1.367   .     A
C428   H434    1.082   .     S
C428   C844    1.418   .     S
C429   N437    1.367   .     A
C429   H435    1.082   .     S
C429   C841    1.418   .     S
C430   N438    1.367   .     A
C430   H436    1.082   .     S
H431   C465    1.088   .     S
H432   C512    1.088   1_455 S
N437   Zn447   2.012   .     S
N438   Zn448   2.012   .     S
O439   Zn447   1.988   .     S
O440   Zn448   1.988   .     S
O441   Zn448   1.988   .     S
O442   Zn447   1.988   .     S
O443   Zn447   1.970   .     S
O444   Zn448   1.970   .     S
O445   Zn448   1.981   .     S
O446   Zn447   1.981   .     S
N449   H450    1.045   .     S
N449   H451    1.045   .     S
N452   H454    1.045   .     S
N452   H453    1.045   .     S
N455   H456    1.045   .     S
N455   H457    1.045   .     S
N458   H460    1.045   .     S
N458   H459    1.045   .     S
C461   O485    1.280   .     A
C461   C472    1.410   .     S
C461   O487    1.280   .     A
C462   C471    1.410   .     S
C462   O486    1.280   .     A
C462   O488    1.280   .     A
C463   O491    1.281   .     A
C463   O489    1.279   .     A
C463   C465    1.402   .     S
C464   O492    1.281   .     A
C464   C466    1.402   .     S
C464   O490    1.279   .     A
C466   C511    1.330   .     S
C466   H524    1.088   .     S
C467   C472    1.400   .     A
C467   N495    1.437   .     S
C467   C745    1.388   1_545 S
C468   N498    1.437   .     S
C468   C471    1.400   .     A
C468   C608    1.388   .     S
C469   C471    1.400   .     A
C469   N501    1.437   .     S
C469   C605    1.388   .     S
C470   C472    1.400   .     A
C470   N504    1.437   .     S
C470   C744    1.388   1_545 S
C473   H479    1.082   .     S
C473   N484    1.367   .     A
C474   N483    1.367   .     A
C474   H480    1.082   .     S
C474   C890    1.418   .     S
C475   N483    1.367   .     A
C475   H481    1.082   .     S
C475   C887    1.418   .     S
C476   N484    1.367   .     A
C476   H482    1.082   .     S
H477   C511    1.088   .     S
N483   Zn493   2.012   .     S
N484   Zn494   2.012   .     S
O485   Zn493   1.988   .     S
O486   Zn494   1.988   .     S
O487   Zn494   1.988   .     S
O488   Zn493   1.988   .     S
O489   Zn493   1.970   .     S
O490   Zn494   1.970   .     S
O491   Zn494   1.981   .     S
O492   Zn493   1.981   .     S
N495   H496    1.045   .     S
N495   H497    1.045   .     S
N498   H500    1.045   .     S
N498   H499    1.045   .     S
N501   H502    1.045   .     S
N501   H503    1.045   .     S
N504   H506    1.045   .     S
N504   H505    1.045   .     S
C507   O531    1.280   .     A
C507   C518    1.410   .     S
C507   O533    1.280   .     A
C508   C517    1.410   .     S
C508   O532    1.280   .     A
C508   O534    1.280   .     A
C509   O537    1.281   .     A
C509   O535    1.279   .     A
C509   C511    1.402   .     S
C510   O538    1.281   .     A
C510   C512    1.402   .     S
C510   O536    1.279   .     A
C512   C419    1.330   1_655 S
C512   H432    1.088   1_655 S
C513   C518    1.400   .     A
C513   N541    1.437   .     S
C513   C791    1.388   1_545 S
C514   N544    1.437   .     S
C514   C517    1.400   .     A
C514   C654    1.388   .     S
C515   C517    1.400   .     A
C515   N547    1.437   .     S
C515   C651    1.388   .     S
C516   C518    1.400   .     A
C516   N550    1.437   .     S
C516   C790    1.388   1_545 S
C519   H525    1.082   .     S
C519   N530    1.367   .     A
C520   N529    1.367   .     A
C520   H526    1.082   .     S
C520   C936    1.418   .     S
C521   N529    1.367   .     A
C521   H527    1.082   .     S
C521   C933    1.418   .     S
C522   N530    1.367   .     A
C522   H528    1.082   .     S
H523   C419    1.088   1_655 S
N529   Zn539   2.012   .     S
N530   Zn540   2.012   .     S
O531   Zn539   1.988   .     S
O532   Zn540   1.988   .     S
O533   Zn540   1.988   .     S
O534   Zn539   1.988   .     S
O535   Zn539   1.970   .     S
O536   Zn540   1.970   .     S
O537   Zn540   1.981   .     S
O538   Zn539   1.981   .     S
N541   H542    1.045   .     S
N541   H543    1.045   .     S
N544   H546    1.045   .     S
N544   H545    1.045   .     S
N547   H548    1.045   .     S
N547   H549    1.045   .     S
N550   H552    1.045   .     S
N550   H551    1.045   .     S
C553   O577    1.280   .     A
C553   C564    1.410   .     S
C553   O579    1.280   .     A
C554   C563    1.410   .     S
C554   O578    1.280   .     A
C554   O580    1.280   .     A
C555   O583    1.281   .     A
C555   O581    1.279   .     A
C555   C557    1.402   .     S
C556   O584    1.281   .     A
C556   C558    1.402   .     S
C556   O582    1.279   .     A
C557   C650    1.330   1_455 S
C557   H661    1.088   1_455 S
C558   C603    1.330   .     S
C558   H616    1.088   .     S
C559   C564    1.400   .     A
C559   N587    1.437   .     S
C560   N590    1.437   .     S
C560   C563    1.400   .     A
C560   C700    1.388   .     S
C561   C563    1.400   .     A
C561   N593    1.437   .     S
C561   C697    1.388   .     S
C562   C564    1.400   .     A
C562   N596    1.437   .     S
C565   H571    1.082   .     S
C565   N576    1.367   .     A
C566   N575    1.367   .     A
C566   H572    1.082   .     S
C566   C982    1.418   .     S
C567   N575    1.367   .     A
C567   H573    1.082   .     S
C567   C979    1.418   .     S
C568   N576    1.367   .     A
C568   H574    1.082   .     S
H569   C603    1.088   .     S
H570   C650    1.088   1_455 S
N575   Zn585   2.012   .     S
N576   Zn586   2.012   .     S
O577   Zn585   1.988   .     S
O578   Zn586   1.988   .     S
O579   Zn586   1.988   .     S
O580   Zn585   1.988   .     S
O581   Zn585   1.970   .     S
O582   Zn586   1.970   .     S
O583   Zn586   1.981   .     S
O584   Zn585   1.981   .     S
N587   H588    1.045   .     S
N587   H589    1.045   .     S
N590   H592    1.045   .     S
N590   H591    1.045   .     S
N593   H594    1.045   .     S
N593   H595    1.045   .     S
N596   H598    1.045   .     S
N596   H597    1.045   .     S
C599   O623    1.280   .     A
C599   C610    1.410   .     S
C599   O625    1.280   .     A
C600   C609    1.410   .     S
C600   O624    1.280   .     A
C600   O626    1.280   .     A
C601   O629    1.281   .     A
C601   O627    1.279   .     A
C601   C603    1.402   .     S
C602   O630    1.281   .     A
C602   C604    1.402   .     S
C602   O628    1.279   .     A
C604   C649    1.330   .     S
C604   H662    1.088   .     S
C605   C610    1.400   .     A
C605   N633    1.437   .     S
C606   N636    1.437   .     S
C606   C609    1.400   .     A
C606   C746    1.388   .     S
C607   C609    1.400   .     A
C607   N639    1.437   .     S
C607   C743    1.388   .     S
C608   C610    1.400   .     A
C608   N642    1.437   .     S
C611   H617    1.082   .     S
C611   N622    1.367   .     A
C612   N621    1.367   .     A
C612   H618    1.082   .     S
C612   C1028   1.418   .     S
C613   N621    1.367   .     A
C613   H619    1.082   .     S
C613   C1025   1.418   .     S
C614   N622    1.367   .     A
C614   H620    1.082   .     S
H615   C649    1.088   .     S
N621   Zn631   2.012   .     S
N622   Zn632   2.012   .     S
O623   Zn631   1.988   .     S
O624   Zn632   1.988   .     S
O625   Zn632   1.988   .     S
O626   Zn631   1.988   .     S
O627   Zn631   1.970   .     S
O628   Zn632   1.970   .     S
O629   Zn632   1.981   .     S
O630   Zn631   1.981   .     S
N633   H634    1.045   .     S
N633   H635    1.045   .     S
N636   H638    1.045   .     S
N636   H637    1.045   .     S
N639   H640    1.045   .     S
N639   H641    1.045   .     S
N642   H644    1.045   .     S
N642   H643    1.045   .     S
C645   O669    1.280   .     A
C645   C656    1.410   .     S
C645   O671    1.280   .     A
C646   C655    1.410   .     S
C646   O670    1.280   .     A
C646   O672    1.280   .     A
C647   O675    1.281   .     A
C647   O673    1.279   .     A
C647   C649    1.402   .     S
C648   O676    1.281   .     A
C648   C650    1.402   .     S
C648   O674    1.279   .     A
C650   C557    1.330   1_655 S
C650   H570    1.088   1_655 S
C651   C656    1.400   .     A
C651   N679    1.437   .     S
C652   N682    1.437   .     S
C652   C655    1.400   .     A
C652   C792    1.388   .     S
C653   C655    1.400   .     A
C653   N685    1.437   .     S
C653   C789    1.388   .     S
C654   C656    1.400   .     A
C654   N688    1.437   .     S
C657   H663    1.082   .     S
C657   N668    1.367   .     A
C658   N667    1.367   .     A
C658   H664    1.082   .     S
C658   C1074   1.418   .     S
C659   N667    1.367   .     A
C659   H665    1.082   .     S
C659   C1071   1.418   .     S
C660   N668    1.367   .     A
C660   H666    1.082   .     S
H661   C557    1.088   1_655 S
N667   Zn677   2.012   .     S
N668   Zn678   2.012   .     S
O669   Zn677   1.988   .     S
O670   Zn678   1.988   .     S
O671   Zn678   1.988   .     S
O672   Zn677   1.988   .     S
O673   Zn677   1.970   .     S
O674   Zn678   1.970   .     S
O675   Zn678   1.981   .     S
O676   Zn677   1.981   .     S
N679   H680    1.045   .     S
N679   H681    1.045   .     S
N682   H684    1.045   .     S
N682   H683    1.045   .     S
N685   H686    1.045   .     S
N685   H687    1.045   .     S
N688   H690    1.045   .     S
N688   H689    1.045   .     S
C691   O715    1.280   .     A
C691   C702    1.410   .     S
C691   O717    1.280   .     A
C692   C701    1.410   .     S
C692   O716    1.280   .     A
C692   O718    1.280   .     A
C693   O721    1.281   .     A
C693   O719    1.279   .     A
C693   C695    1.402   .     S
C694   O722    1.281   .     A
C694   C696    1.402   .     S
C694   O720    1.279   .     A
C695   C788    1.330   1_455 S
C695   H799    1.088   1_455 S
C696   C741    1.330   .     S
C696   H754    1.088   .     S
C697   C702    1.400   .     A
C697   N725    1.437   .     S
C698   N728    1.437   .     S
C698   C701    1.400   .     A
C698   C424    1.388   1_565 S
C699   C701    1.400   .     A
C699   N731    1.437   .     S
C699   C421    1.388   1_565 S
C700   C702    1.400   .     A
C700   N734    1.437   .     S
C703   H709    1.082   .     S
C703   N714    1.367   .     A
C704   N713    1.367   .     A
C704   H710    1.082   .     S
C704   C1120   1.418   .     S
C705   N713    1.367   .     A
C705   H711    1.082   .     S
C705   C1117   1.418   .     S
C706   N714    1.367   .     A
C706   H712    1.082   .     S
H707   C741    1.088   .     S
H708   C788    1.088   1_455 S
N713   Zn723   2.012   .     S
N714   Zn724   2.012   .     S
O715   Zn723   1.988   .     S
O716   Zn724   1.988   .     S
O717   Zn724   1.988   .     S
O718   Zn723   1.988   .     S
O719   Zn723   1.970   .     S
O720   Zn724   1.970   .     S
O721   Zn724   1.981   .     S
O722   Zn723   1.981   .     S
N725   H726    1.045   .     S
N725   H727    1.045   .     S
N728   H730    1.045   .     S
N728   H729    1.045   .     S
N731   H732    1.045   .     S
N731   H733    1.045   .     S
N734   H736    1.045   .     S
N734   H735    1.045   .     S
C737   O761    1.280   .     A
C737   C748    1.410   .     S
C737   O763    1.280   .     A
C738   C747    1.410   .     S
C738   O762    1.280   .     A
C738   O764    1.280   .     A
C739   O767    1.281   .     A
C739   O765    1.279   .     A
C739   C741    1.402   .     S
C740   O768    1.281   .     A
C740   C742    1.402   .     S
C740   O766    1.279   .     A
C742   C787    1.330   .     S
C742   H800    1.088   .     S
C743   C748    1.400   .     A
C743   N771    1.437   .     S
C744   N774    1.437   .     S
C744   C747    1.400   .     A
C744   C470    1.388   1_565 S
C745   C747    1.400   .     A
C745   N777    1.437   .     S
C745   C467    1.388   1_565 S
C746   C748    1.400   .     A
C746   N780    1.437   .     S
C749   H755    1.082   .     S
C749   N760    1.367   .     A
C750   N759    1.367   .     A
C750   H756    1.082   .     S
C750   C1166   1.418   .     S
C751   N759    1.367   .     A
C751   H757    1.082   .     S
C751   C1163   1.418   .     S
C752   N760    1.367   .     A
C752   H758    1.082   .     S
H753   C787    1.088   .     S
N759   Zn769   2.012   .     S
N760   Zn770   2.012   .     S
O761   Zn769   1.988   .     S
O762   Zn770   1.988   .     S
O763   Zn770   1.988   .     S
O764   Zn769   1.988   .     S
O765   Zn769   1.970   .     S
O766   Zn770   1.970   .     S
O767   Zn770   1.981   .     S
O768   Zn769   1.981   .     S
N771   H772    1.045   .     S
N771   H773    1.045   .     S
N774   H776    1.045   .     S
N774   H775    1.045   .     S
N777   H778    1.045   .     S
N777   H779    1.045   .     S
N780   H782    1.045   .     S
N780   H781    1.045   .     S
C783   O807    1.280   .     A
C783   C794    1.410   .     S
C783   O809    1.280   .     A
C784   C793    1.410   .     S
C784   O808    1.280   .     A
C784   O810    1.280   .     A
C785   O813    1.281   .     A
C785   O811    1.279   .     A
C785   C787    1.402   .     S
C786   O814    1.281   .     A
C786   C788    1.402   .     S
C786   O812    1.279   .     A
C788   C695    1.330   1_655 S
C788   H708    1.088   1_655 S
C789   C794    1.400   .     A
C789   N817    1.437   .     S
C790   N820    1.437   .     S
C790   C793    1.400   .     A
C790   C516    1.388   1_565 S
C791   C793    1.400   .     A
C791   N823    1.437   .     S
C791   C513    1.388   1_565 S
C792   C794    1.400   .     A
C792   N826    1.437   .     S
C795   H801    1.082   .     S
C795   N806    1.367   .     A
C796   N805    1.367   .     A
C796   H802    1.082   .     S
C796   C1212   1.418   .     S
C797   N805    1.367   .     A
C797   H803    1.082   .     S
C797   C1209   1.418   .     S
C798   N806    1.367   .     A
C798   H804    1.082   .     S
H799   C695    1.088   1_655 S
N805   Zn815   2.012   .     S
N806   Zn816   2.012   .     S
O807   Zn815   1.988   .     S
O808   Zn816   1.988   .     S
O809   Zn816   1.988   .     S
O810   Zn815   1.988   .     S
O811   Zn815   1.970   .     S
O812   Zn816   1.970   .     S
O813   Zn816   1.981   .     S
O814   Zn815   1.981   .     S
N817   H818    1.045   .     S
N817   H819    1.045   .     S
N820   H822    1.045   .     S
N820   H821    1.045   .     S
N823   H824    1.045   .     S
N823   H825    1.045   .     S
N826   H828    1.045   .     S
N826   H827    1.045   .     S
C829   O853    1.280   .     A
C829   C840    1.410   .     S
C829   O855    1.280   .     A
C830   C839    1.410   .     S
C830   O854    1.280   .     A
C830   O856    1.280   .     A
C831   O859    1.281   .     A
C831   O857    1.279   .     A
C831   C833    1.402   .     S
C832   O860    1.281   .     A
C832   C834    1.402   .     S
C832   O858    1.279   .     A
C833   C926    1.330   1_455 S
C833   H937    1.088   1_455 S
C834   C879    1.330   .     S
C834   H892    1.088   .     S
C835   C840    1.400   .     A
C835   N863    1.437   .     S
C835   C1113   1.388   1_545 S
C836   N866    1.437   .     S
C836   C839    1.400   .     A
C836   C976    1.388   .     S
C837   C839    1.400   .     A
C837   N869    1.437   .     S
C837   C973    1.388   .     S
C838   C840    1.400   .     A
C838   N872    1.437   .     S
C838   C1112   1.388   1_545 S
C841   H847    1.082   .     S
C841   N852    1.367   .     A
C842   N851    1.367   .     A
C842   H848    1.082   .     S
C842   C16     1.418   1_556 S
C843   N851    1.367   .     A
C843   H849    1.082   .     S
C843   C13     1.418   1_556 S
C844   N852    1.367   .     A
C844   H850    1.082   .     S
H845   C879    1.088   .     S
H846   C926    1.088   1_455 S
N851   Zn861   2.012   .     S
N852   Zn862   2.012   .     S
O853   Zn861   1.988   .     S
O854   Zn862   1.988   .     S
O855   Zn862   1.988   .     S
O856   Zn861   1.988   .     S
O857   Zn861   1.970   .     S
O858   Zn862   1.970   .     S
O859   Zn862   1.981   .     S
O860   Zn861   1.981   .     S
N863   H864    1.045   .     S
N863   H865    1.045   .     S
N866   H868    1.045   .     S
N866   H867    1.045   .     S
N869   H870    1.045   .     S
N869   H871    1.045   .     S
N872   H874    1.045   .     S
N872   H873    1.045   .     S
C875   O899    1.280   .     A
C875   C886    1.410   .     S
C875   O901    1.280   .     A
C876   C885    1.410   .     S
C876   O900    1.280   .     A
C876   O902    1.280   .     A
C877   O905    1.281   .     A
C877   O903    1.279   .     A
C877   C879    1.402   .     S
C878   O906    1.281   .     A
C878   C880    1.402   .     S
C878   O904    1.279   .     A
C880   C925    1.330   .     S
C880   H938    1.088   .     S
C881   C886    1.400   .     A
C881   N909    1.437   .     S
C881   C1159   1.388   1_545 S
C882   N912    1.437   .     S
C882   C885    1.400   .     A
C882   C1022   1.388   .     S
C883   C885    1.400   .     A
C883   N915    1.437   .     S
C883   C1019   1.388   .     S
C884   C886    1.400   .     A
C884   N918    1.437   .     S
C884   C1158   1.388   1_545 S
C887   H893    1.082   .     S
C887   N898    1.367   .     A
C888   N897    1.367   .     A
C888   H894    1.082   .     S
C888   C62     1.418   1_556 S
C889   N897    1.367   .     A
C889   H895    1.082   .     S
C889   C59     1.418   1_556 S
C890   N898    1.367   .     A
C890   H896    1.082   .     S
H891   C925    1.088   .     S
N897   Zn907   2.012   .     S
N898   Zn908   2.012   .     S
O899   Zn907   1.988   .     S
O900   Zn908   1.988   .     S
O901   Zn908   1.988   .     S
O902   Zn907   1.988   .     S
O903   Zn907   1.970   .     S
O904   Zn908   1.970   .     S
O905   Zn908   1.981   .     S
O906   Zn907   1.981   .     S
N909   H910    1.045   .     S
N909   H911    1.045   .     S
N912   H914    1.045   .     S
N912   H913    1.045   .     S
N915   H916    1.045   .     S
N915   H917    1.045   .     S
N918   H920    1.045   .     S
N918   H919    1.045   .     S
C921   O945    1.280   .     A
C921   C932    1.410   .     S
C921   O947    1.280   .     A
C922   C931    1.410   .     S
C922   O946    1.280   .     A
C922   O948    1.280   .     A
C923   O951    1.281   .     A
C923   O949    1.279   .     A
C923   C925    1.402   .     S
C924   O952    1.281   .     A
C924   C926    1.402   .     S
C924   O950    1.279   .     A
C926   C833    1.330   1_655 S
C926   H846    1.088   1_655 S
C927   C932    1.400   .     A
C927   N955    1.437   .     S
C927   C1205   1.388   1_545 S
C928   N958    1.437   .     S
C928   C931    1.400   .     A
C928   C1068   1.388   .     S
C929   C931    1.400   .     A
C929   N961    1.437   .     S
C929   C1065   1.388   .     S
C930   C932    1.400   .     A
C930   N964    1.437   .     S
C930   C1204   1.388   1_545 S
C933   H939    1.082   .     S
C933   N944    1.367   .     A
C934   N943    1.367   .     A
C934   H940    1.082   .     S
C934   C108    1.418   1_556 S
C935   N943    1.367   .     A
C935   H941    1.082   .     S
C935   C105    1.418   1_556 S
C936   N944    1.367   .     A
C936   H942    1.082   .     S
H937   C833    1.088   1_655 S
N943   Zn953   2.012   .     S
N944   Zn954   2.012   .     S
O945   Zn953   1.988   .     S
O946   Zn954   1.988   .     S
O947   Zn954   1.988   .     S
O948   Zn953   1.988   .     S
O949   Zn953   1.970   .     S
O950   Zn954   1.970   .     S
O951   Zn954   1.981   .     S
O952   Zn953   1.981   .     S
N955   H956    1.045   .     S
N955   H957    1.045   .     S
N958   H960    1.045   .     S
N958   H959    1.045   .     S
N961   H962    1.045   .     S
N961   H963    1.045   .     S
N964   H966    1.045   .     S
N964   H965    1.045   .     S
C967   O991    1.280   .     A
C967   C978    1.410   .     S
C967   O993    1.280   .     A
C968   C977    1.410   .     S
C968   O992    1.280   .     A
C968   O994    1.280   .     A
C969   O997    1.281   .     A
C969   O995    1.279   .     A
C969   C971    1.402   .     S
C970   O998    1.281   .     A
C970   C972    1.402   .     S
C970   O996    1.279   .     A
C971   C1064   1.330   1_455 S
C971   H1075   1.088   1_455 S
C972   C1017   1.330   .     S
C972   H1030   1.088   .     S
C973   C978    1.400   .     A
C973   N1001   1.437   .     S
C974   N1004   1.437   .     S
C974   C977    1.400   .     A
C974   C1114   1.388   .     S
C975   C977    1.400   .     A
C975   N1007   1.437   .     S
C975   C1111   1.388   .     S
C976   C978    1.400   .     A
C976   N1010   1.437   .     S
C979   H985    1.082   .     S
C979   N990    1.367   .     A
C980   N989    1.367   .     A
C980   H986    1.082   .     S
C980   C154    1.418   1_556 S
C981   N989    1.367   .     A
C981   H987    1.082   .     S
C981   C151    1.418   1_556 S
C982   N990    1.367   .     A
C982   H988    1.082   .     S
H983   C1017   1.088   .     S
H984   C1064   1.088   1_455 S
N989   Zn999   2.012   .     S
N990   Zn1000  2.012   .     S
O991   Zn999   1.988   .     S
O992   Zn1000  1.988   .     S
O993   Zn1000  1.988   .     S
O994   Zn999   1.988   .     S
O995   Zn999   1.970   .     S
O996   Zn1000  1.970   .     S
O997   Zn1000  1.981   .     S
O998   Zn999   1.981   .     S
N1001  H1002   1.045   .     S
N1001  H1003   1.045   .     S
N1004  H1006   1.045   .     S
N1004  H1005   1.045   .     S
N1007  H1008   1.045   .     S
N1007  H1009   1.045   .     S
N1010  H1012   1.045   .     S
N1010  H1011   1.045   .     S
C1013  O1037   1.280   .     A
C1013  C1024   1.410   .     S
C1013  O1039   1.280   .     A
C1014  C1023   1.410   .     S
C1014  O1038   1.280   .     A
C1014  O1040   1.280   .     A
C1015  O1043   1.281   .     A
C1015  O1041   1.279   .     A
C1015  C1017   1.402   .     S
C1016  O1044   1.281   .     A
C1016  C1018   1.402   .     S
C1016  O1042   1.279   .     A
C1018  C1063   1.330   .     S
C1018  H1076   1.088   .     S
C1019  C1024   1.400   .     A
C1019  N1047   1.437   .     S
C1020  N1050   1.437   .     S
C1020  C1023   1.400   .     A
C1020  C1160   1.388   .     S
C1021  C1023   1.400   .     A
C1021  N1053   1.437   .     S
C1021  C1157   1.388   .     S
C1022  C1024   1.400   .     A
C1022  N1056   1.437   .     S
C1025  H1031   1.082   .     S
C1025  N1036   1.367   .     A
C1026  N1035   1.367   .     A
C1026  H1032   1.082   .     S
C1026  C200    1.418   1_556 S
C1027  N1035   1.367   .     A
C1027  H1033   1.082   .     S
C1027  C197    1.418   1_556 S
C1028  N1036   1.367   .     A
C1028  H1034   1.082   .     S
H1029  C1063   1.088   .     S
N1035  Zn1045  2.012   .     S
N1036  Zn1046  2.012   .     S
O1037  Zn1045  1.988   .     S
O1038  Zn1046  1.988   .     S
O1039  Zn1046  1.988   .     S
O1040  Zn1045  1.988   .     S
O1041  Zn1045  1.970   .     S
O1042  Zn1046  1.970   .     S
O1043  Zn1046  1.981   .     S
O1044  Zn1045  1.981   .     S
N1047  H1048   1.045   .     S
N1047  H1049   1.045   .     S
N1050  H1052   1.045   .     S
N1050  H1051   1.045   .     S
N1053  H1054   1.045   .     S
N1053  H1055   1.045   .     S
N1056  H1058   1.045   .     S
N1056  H1057   1.045   .     S
C1059  O1083   1.280   .     A
C1059  C1070   1.410   .     S
C1059  O1085   1.280   .     A
C1060  C1069   1.410   .     S
C1060  O1084   1.280   .     A
C1060  O1086   1.280   .     A
C1061  O1089   1.281   .     A
C1061  O1087   1.279   .     A
C1061  C1063   1.402   .     S
C1062  O1090   1.281   .     A
C1062  C1064   1.402   .     S
C1062  O1088   1.279   .     A
C1064  C971    1.330   1_655 S
C1064  H984    1.088   1_655 S
C1065  C1070   1.400   .     A
C1065  N1093   1.437   .     S
C1066  N1096   1.437   .     S
C1066  C1069   1.400   .     A
C1066  C1206   1.388   .     S
C1067  C1069   1.400   .     A
C1067  N1099   1.437   .     S
C1067  C1203   1.388   .     S
C1068  C1070   1.400   .     A
C1068  N1102   1.437   .     S
C1071  H1077   1.082   .     S
C1071  N1082   1.367   .     A
C1072  N1081   1.367   .     A
C1072  H1078   1.082   .     S
C1072  C246    1.418   1_556 S
C1073  N1081   1.367   .     A
C1073  H1079   1.082   .     S
C1073  C243    1.418   1_556 S
C1074  N1082   1.367   .     A
C1074  H1080   1.082   .     S
H1075  C971    1.088   1_655 S
N1081  Zn1091  2.012   .     S
N1082  Zn1092  2.012   .     S
O1083  Zn1091  1.988   .     S
O1084  Zn1092  1.988   .     S
O1085  Zn1092  1.988   .     S
O1086  Zn1091  1.988   .     S
O1087  Zn1091  1.970   .     S
O1088  Zn1092  1.970   .     S
O1089  Zn1092  1.981   .     S
O1090  Zn1091  1.981   .     S
N1093  H1094   1.045   .     S
N1093  H1095   1.045   .     S
N1096  H1098   1.045   .     S
N1096  H1097   1.045   .     S
N1099  H1100   1.045   .     S
N1099  H1101   1.045   .     S
N1102  H1104   1.045   .     S
N1102  H1103   1.045   .     S
C1105  O1129   1.280   .     A
C1105  C1116   1.410   .     S
C1105  O1131   1.280   .     A
C1106  C1115   1.410   .     S
C1106  O1130   1.280   .     A
C1106  O1132   1.280   .     A
C1107  O1135   1.281   .     A
C1107  O1133   1.279   .     A
C1107  C1109   1.402   .     S
C1108  O1136   1.281   .     A
C1108  C1110   1.402   .     S
C1108  O1134   1.279   .     A
C1109  C1202   1.330   1_455 S
C1109  H1213   1.088   1_455 S
C1110  C1155   1.330   .     S
C1110  H1168   1.088   .     S
C1111  C1116   1.400   .     A
C1111  N1139   1.437   .     S
C1112  N1142   1.437   .     S
C1112  C1115   1.400   .     A
C1112  C838    1.388   1_565 S
C1113  C1115   1.400   .     A
C1113  N1145   1.437   .     S
C1113  C835    1.388   1_565 S
C1114  C1116   1.400   .     A
C1114  N1148   1.437   .     S
C1117  H1123   1.082   .     S
C1117  N1128   1.367   .     A
C1118  N1127   1.367   .     A
C1118  H1124   1.082   .     S
C1118  C292    1.418   1_556 S
C1119  N1127   1.367   .     A
C1119  H1125   1.082   .     S
C1119  C289    1.418   1_556 S
C1120  N1128   1.367   .     A
C1120  H1126   1.082   .     S
H1121  C1155   1.088   .     S
H1122  C1202   1.088   1_455 S
N1127  Zn1137  2.012   .     S
N1128  Zn1138  2.012   .     S
O1129  Zn1137  1.988   .     S
O1130  Zn1138  1.988   .     S
O1131  Zn1138  1.988   .     S
O1132  Zn1137  1.988   .     S
O1133  Zn1137  1.970   .     S
O1134  Zn1138  1.970   .     S
O1135  Zn1138  1.981   .     S
O1136  Zn1137  1.981   .     S
N1139  H1140   1.045   .     S
N1139  H1141   1.045   .     S
N1142  H1144   1.045   .     S
N1142  H1143   1.045   .     S
N1145  H1146   1.045   .     S
N1145  H1147   1.045   .     S
N1148  H1150   1.045   .     S
N1148  H1149   1.045   .     S
C1151  O1175   1.280   .     A
C1151  C1162   1.410   .     S
C1151  O1177   1.280   .     A
C1152  C1161   1.410   .     S
C1152  O1176   1.280   .     A
C1152  O1178   1.280   .     A
C1153  O1181   1.281   .     A
C1153  O1179   1.279   .     A
C1153  C1155   1.402   .     S
C1154  O1182   1.281   .     A
C1154  C1156   1.402   .     S
C1154  O1180   1.279   .     A
C1156  C1201   1.330   .     S
C1156  H1214   1.088   .     S
C1157  C1162   1.400   .     A
C1157  N1185   1.437   .     S
C1158  N1188   1.437   .     S
C1158  C1161   1.400   .     A
C1158  C884    1.388   1_565 S
C1159  C1161   1.400   .     A
C1159  N1191   1.437   .     S
C1159  C881    1.388   1_565 S
C1160  C1162   1.400   .     A
C1160  N1194   1.437   .     S
C1163  H1169   1.082   .     S
C1163  N1174   1.367   .     A
C1164  N1173   1.367   .     A
C1164  H1170   1.082   .     S
C1164  C338    1.418   1_556 S
C1165  N1173   1.367   .     A
C1165  H1171   1.082   .     S
C1165  C335    1.418   1_556 S
C1166  N1174   1.367   .     A
C1166  H1172   1.082   .     S
H1167  C1201   1.088   .     S
N1173  Zn1183  2.012   .     S
N1174  Zn1184  2.012   .     S
O1175  Zn1183  1.988   .     S
O1176  Zn1184  1.988   .     S
O1177  Zn1184  1.988   .     S
O1178  Zn1183  1.988   .     S
O1179  Zn1183  1.970   .     S
O1180  Zn1184  1.970   .     S
O1181  Zn1184  1.981   .     S
O1182  Zn1183  1.981   .     S
N1185  H1186   1.045   .     S
N1185  H1187   1.045   .     S
N1188  H1190   1.045   .     S
N1188  H1189   1.045   .     S
N1191  H1192   1.045   .     S
N1191  H1193   1.045   .     S
N1194  H1196   1.045   .     S
N1194  H1195   1.045   .     S
C1197  O1221   1.280   .     A
C1197  C1208   1.410   .     S
C1197  O1223   1.280   .     A
C1198  C1207   1.410   .     S
C1198  O1222   1.280   .     A
C1198  O1224   1.280   .     A
C1199  O1227   1.281   .     A
C1199  O1225   1.279   .     A
C1199  C1201   1.402   .     S
C1200  O1228   1.281   .     A
C1200  C1202   1.402   .     S
C1200  O1226   1.279   .     A
C1202  C1109   1.330   1_655 S
C1202  H1122   1.088   1_655 S
C1203  C1208   1.400   .     A
C1203  N1231   1.437   .     S
C1204  N1234   1.437   .     S
C1204  C1207   1.400   .     A
C1204  C930    1.388   1_565 S
C1205  C1207   1.400   .     A
C1205  N1237   1.437   .     S
C1205  C927    1.388   1_565 S
C1206  C1208   1.400   .     A
C1206  N1240   1.437   .     S
C1209  H1215   1.082   .     S
C1209  N1220   1.367   .     A
C1210  N1219   1.367   .     A
C1210  H1216   1.082   .     S
C1210  C384    1.418   1_556 S
C1211  N1219   1.367   .     A
C1211  H1217   1.082   .     S
C1211  C381    1.418   1_556 S
C1212  N1220   1.367   .     A
C1212  H1218   1.082   .     S
H1213  C1109   1.088   1_655 S
N1219  Zn1229  2.012   .     S
N1220  Zn1230  2.012   .     S
O1221  Zn1229  1.988   .     S
O1222  Zn1230  1.988   .     S
O1223  Zn1230  1.988   .     S
O1224  Zn1229  1.988   .     S
O1225  Zn1229  1.970   .     S
O1226  Zn1230  1.970   .     S
O1227  Zn1230  1.981   .     S
O1228  Zn1229  1.981   .     S
N1231  H1232   1.045   .     S
N1231  H1233   1.045   .     S
N1234  H1236   1.045   .     S
N1234  H1235   1.045   .     S
N1237  H1238   1.045   .     S
N1237  H1239   1.045   .     S
N1240  H1242   1.045   .     S
N1240  H1241   1.045   .     S
