data_str_m3_o10_o16_pcu_sym.149
_audit_creation_date              2020-01-03
_audit_creation_method            'Materials Studio'
_symmetry_space_group_name_H-M    'P1'
_symmetry_Int_Tables_number       1
_symmetry_cell_setting            triclinic
loop_
_symmetry_equiv_pos_as_xyz
  x,y,z
_cell_length_a                    23.5957
_cell_length_b                    25.7053
_cell_length_c                    24.9841
_cell_angle_alpha                 92.5496
_cell_angle_beta                  102.9885
_cell_angle_gamma                 93.8544
loop_
_atom_site_label
_atom_site_type_symbol
_atom_site_fract_x
_atom_site_fract_y
_atom_site_fract_z
_atom_site_U_iso_or_equiv
_atom_site_adp_type
_atom_site_occupancy
C1     C     0.01475   0.26478   0.24872   0.00000  Uiso   1.00
C2     C     0.13863   0.18773   0.49361   0.00000  Uiso   1.00
C3     C     0.12083   0.19262   0.43669   0.00000  Uiso   1.00
C4     C     0.19558   0.17273   0.01297   0.00000  Uiso   1.00
C5     C     0.22516   0.14961   0.47578   0.00000  Uiso   1.00
C6     C     0.20937   0.16098   0.42086   0.00000  Uiso   1.00
C7     C     0.16412   0.19339   0.40570   0.00000  Uiso   1.00
C8     C     0.22556   0.18293   0.06673   0.00000  Uiso   1.00
C9     C     0.29678   0.12353   0.05236   0.00000  Uiso   1.00
C10    C     0.06112   0.19365   0.41256   0.00000  Uiso   1.00
C11    C     0.02250   0.31936   0.24824   0.00000  Uiso   1.00
C12    C     0.03783   0.17663   0.35403   0.00000  Uiso   1.00
C13    C     0.31111   0.01401   0.25249   0.00000  Uiso   1.00
C14    C     0.31867   0.06857   0.25152   0.00000  Uiso   1.00
C15    C     0.29644   0.16158   0.14581   0.00000  Uiso   1.00
C16    C     0.27405   0.12223   0.49574   0.00000  Uiso   1.00
C17    C     0.27451   0.15687   0.08717   0.00000  Uiso   1.00
C18    C     0.02402   0.20897   0.44589   0.00000  Uiso   1.00
C19    C     0.04321   0.21161   0.00300   0.00000  Uiso   1.00
C20    C     0.09804   0.19515   0.02724   0.00000  Uiso   1.00
H21    H     0.33196   0.09991   0.06840   0.00000  Uiso   1.00
H22    H     0.26890   0.33038   0.25654   0.00000  Uiso   1.00
H23    H     0.15685   0.11908   0.21757   0.00000  Uiso   1.00
H24    H     0.17637   0.21692   0.27531   0.00000  Uiso   1.00
H25    H     0.23722   0.15234   0.39316   0.00000  Uiso   1.00
H26    H     0.29524   0.10149   0.46798   0.00000  Uiso   1.00
H27    H     0.21029   0.21039   0.09338   0.00000  Uiso   1.00
H28    H     0.31307   0.21716   0.42796   0.00000  Uiso   1.00
H29    H     0.01308   0.22128   0.02810   0.00000  Uiso   1.00
H30    H     0.06475   0.00299   0.24430   0.00000  Uiso   1.00
N31    N     0.14493   0.15223   0.23542   0.00000  Uiso   1.00
N32    N     0.18840   0.18110   0.26457   0.00000  Uiso   1.00
O33    O     0.29769   0.24629   0.25357   0.00000  Uiso   1.00
O34    O     0.05742   0.23704   0.24423   0.00000  Uiso   1.00
O35    O     0.31490   0.17358   0.33380   0.00000  Uiso   1.00
O36    O     0.07463   0.16433   0.32446   0.00000  Uiso   1.00
O37    O     0.27592   0.09629   0.25576   0.00000  Uiso   1.00
O38    O     0.03565   0.08704   0.24643   0.00000  Uiso   1.00
O39    O     0.25870   0.16901   0.17554   0.00000  Uiso   1.00
O40    O     0.01843   0.15976   0.16620   0.00000  Uiso   1.00
Zn41   Zn    0.27119   0.17284   0.25623   0.00000  Uiso   1.00
Zn42   Zn    0.06214   0.16049   0.24376   0.00000  Uiso   1.00
N43    N     0.10939   0.18224   0.08345   0.00000  Uiso   1.00
H44    H     0.08523   0.20055   0.10722   0.00000  Uiso   1.00
C45    C     0.11555   0.12732   0.09337   0.00000  Uiso   1.00
H46    H     0.16099   0.12159   0.11442   0.00000  Uiso   1.00
H47    H     0.10354   0.10205   0.05457   0.00000  Uiso   1.00
H48    H     0.08808   0.11390   0.12136   0.00000  Uiso   1.00
N49    N     0.16959   0.23312   0.36854   0.00000  Uiso   1.00
H50    H     0.21144   0.23867   0.36263   0.00000  Uiso   1.00
C51    C     0.14591   0.28266   0.37699   0.00000  Uiso   1.00
H52    H     0.09766   0.27802   0.36909   0.00000  Uiso   1.00
H53    H     0.15729   0.31043   0.34749   0.00000  Uiso   1.00
H54    H     0.16452   0.29957   0.41955   0.00000  Uiso   1.00
C55    C     0.34808   0.26478   0.24872   0.00000  Uiso   1.00
C56    C     0.47197   0.18773   0.49361   0.00000  Uiso   1.00
C57    C     0.45417   0.19262   0.43669   0.00000  Uiso   1.00
C58    C     0.52892   0.17273   0.01297   0.00000  Uiso   1.00
C59    C     0.55849   0.14961   0.47578   0.00000  Uiso   1.00
C60    C     0.54270   0.16098   0.42086   0.00000  Uiso   1.00
C61    C     0.49745   0.19339   0.40570   0.00000  Uiso   1.00
C62    C     0.55889   0.18293   0.06673   0.00000  Uiso   1.00
C63    C     0.63011   0.12353   0.05236   0.00000  Uiso   1.00
C64    C     0.39446   0.19365   0.41256   0.00000  Uiso   1.00
C65    C     0.35583   0.31936   0.24824   0.00000  Uiso   1.00
C66    C     0.37116   0.17663   0.35403   0.00000  Uiso   1.00
C67    C     0.64444   0.01401   0.25249   0.00000  Uiso   1.00
C68    C     0.65201   0.06857   0.25152   0.00000  Uiso   1.00
C69    C     0.62977   0.16158   0.14581   0.00000  Uiso   1.00
C70    C     0.60738   0.12223   0.49574   0.00000  Uiso   1.00
C71    C     0.60784   0.15687   0.08717   0.00000  Uiso   1.00
C72    C     0.35736   0.20897   0.44589   0.00000  Uiso   1.00
C73    C     0.37654   0.21161   0.00300   0.00000  Uiso   1.00
C74    C     0.43137   0.19515   0.02724   0.00000  Uiso   1.00
H75    H     0.66529   0.09991   0.06840   0.00000  Uiso   1.00
H76    H     0.60223   0.33038   0.25654   0.00000  Uiso   1.00
H77    H     0.49018   0.11908   0.21757   0.00000  Uiso   1.00
H78    H     0.50970   0.21692   0.27531   0.00000  Uiso   1.00
H79    H     0.57055   0.15234   0.39316   0.00000  Uiso   1.00
H80    H     0.62857   0.10149   0.46798   0.00000  Uiso   1.00
H81    H     0.54362   0.21039   0.09338   0.00000  Uiso   1.00
H82    H     0.64640   0.21716   0.42796   0.00000  Uiso   1.00
H83    H     0.34641   0.22128   0.02810   0.00000  Uiso   1.00
H84    H     0.39808   0.00299   0.24430   0.00000  Uiso   1.00
N85    N     0.47827   0.15223   0.23542   0.00000  Uiso   1.00
N86    N     0.52173   0.18110   0.26457   0.00000  Uiso   1.00
O87    O     0.63102   0.24629   0.25357   0.00000  Uiso   1.00
O88    O     0.39075   0.23704   0.24423   0.00000  Uiso   1.00
O89    O     0.64823   0.17358   0.33380   0.00000  Uiso   1.00
O90    O     0.40796   0.16433   0.32446   0.00000  Uiso   1.00
O91    O     0.60925   0.09629   0.25576   0.00000  Uiso   1.00
O92    O     0.36898   0.08704   0.24643   0.00000  Uiso   1.00
O93    O     0.59204   0.16901   0.17554   0.00000  Uiso   1.00
O94    O     0.35177   0.15976   0.16620   0.00000  Uiso   1.00
Zn95   Zn    0.60453   0.17284   0.25623   0.00000  Uiso   1.00
Zn96   Zn    0.39547   0.16049   0.24376   0.00000  Uiso   1.00
N97    N     0.44272   0.18224   0.08345   0.00000  Uiso   1.00
H98    H     0.41857   0.20055   0.10722   0.00000  Uiso   1.00
C99    C     0.44888   0.12732   0.09337   0.00000  Uiso   1.00
H100   H     0.49432   0.12159   0.11442   0.00000  Uiso   1.00
H101   H     0.43687   0.10205   0.05457   0.00000  Uiso   1.00
H102   H     0.42141   0.11390   0.12136   0.00000  Uiso   1.00
N103   N     0.50292   0.23312   0.36854   0.00000  Uiso   1.00
H104   H     0.54477   0.23867   0.36263   0.00000  Uiso   1.00
C105   C     0.47924   0.28266   0.37699   0.00000  Uiso   1.00
H106   H     0.43099   0.27802   0.36909   0.00000  Uiso   1.00
H107   H     0.49062   0.31043   0.34749   0.00000  Uiso   1.00
H108   H     0.49785   0.29957   0.41955   0.00000  Uiso   1.00
C109   C     0.68141   0.26478   0.24872   0.00000  Uiso   1.00
C110   C     0.80530   0.18773   0.49361   0.00000  Uiso   1.00
C111   C     0.78750   0.19262   0.43669   0.00000  Uiso   1.00
C112   C     0.86225   0.17273   0.01297   0.00000  Uiso   1.00
C113   C     0.89183   0.14961   0.47578   0.00000  Uiso   1.00
C114   C     0.87603   0.16098   0.42086   0.00000  Uiso   1.00
C115   C     0.83078   0.19339   0.40570   0.00000  Uiso   1.00
C116   C     0.89222   0.18293   0.06673   0.00000  Uiso   1.00
C117   C     0.96344   0.12353   0.05236   0.00000  Uiso   1.00
C118   C     0.72779   0.19365   0.41256   0.00000  Uiso   1.00
C119   C     0.68916   0.31936   0.24824   0.00000  Uiso   1.00
C120   C     0.70449   0.17663   0.35403   0.00000  Uiso   1.00
C121   C     0.97778   0.01401   0.25249   0.00000  Uiso   1.00
C122   C     0.98534   0.06857   0.25152   0.00000  Uiso   1.00
C123   C     0.96310   0.16158   0.14581   0.00000  Uiso   1.00
C124   C     0.94072   0.12223   0.49574   0.00000  Uiso   1.00
C125   C     0.94117   0.15687   0.08717   0.00000  Uiso   1.00
C126   C     0.69069   0.20897   0.44589   0.00000  Uiso   1.00
C127   C     0.70988   0.21161   0.00300   0.00000  Uiso   1.00
C128   C     0.76471   0.19515   0.02724   0.00000  Uiso   1.00
H129   H     0.99863   0.09991   0.06840   0.00000  Uiso   1.00
H130   H     0.93556   0.33038   0.25654   0.00000  Uiso   1.00
H131   H     0.82351   0.11908   0.21757   0.00000  Uiso   1.00
H132   H     0.84304   0.21692   0.27531   0.00000  Uiso   1.00
H133   H     0.90389   0.15234   0.39316   0.00000  Uiso   1.00
H134   H     0.96190   0.10149   0.46798   0.00000  Uiso   1.00
H135   H     0.87695   0.21039   0.09338   0.00000  Uiso   1.00
H136   H     0.97974   0.21716   0.42796   0.00000  Uiso   1.00
H137   H     0.67974   0.22128   0.02810   0.00000  Uiso   1.00
H138   H     0.73141   0.00299   0.24430   0.00000  Uiso   1.00
N139   N     0.81160   0.15223   0.23542   0.00000  Uiso   1.00
N140   N     0.85507   0.18110   0.26457   0.00000  Uiso   1.00
O141   O     0.96435   0.24629   0.25357   0.00000  Uiso   1.00
O142   O     0.72408   0.23704   0.24423   0.00000  Uiso   1.00
O143   O     0.98157   0.17358   0.33380   0.00000  Uiso   1.00
O144   O     0.74130   0.16433   0.32446   0.00000  Uiso   1.00
O145   O     0.94258   0.09629   0.25576   0.00000  Uiso   1.00
O146   O     0.70231   0.08704   0.24643   0.00000  Uiso   1.00
O147   O     0.92537   0.16901   0.17554   0.00000  Uiso   1.00
O148   O     0.68510   0.15976   0.16620   0.00000  Uiso   1.00
Zn149  Zn    0.93786   0.17284   0.25623   0.00000  Uiso   1.00
Zn150  Zn    0.72881   0.16049   0.24376   0.00000  Uiso   1.00
N151   N     0.77606   0.18224   0.08345   0.00000  Uiso   1.00
H152   H     0.75190   0.20055   0.10722   0.00000  Uiso   1.00
C153   C     0.78222   0.12732   0.09337   0.00000  Uiso   1.00
H154   H     0.82765   0.12159   0.11442   0.00000  Uiso   1.00
H155   H     0.77021   0.10205   0.05457   0.00000  Uiso   1.00
H156   H     0.75474   0.11390   0.12136   0.00000  Uiso   1.00
N157   N     0.83626   0.23312   0.36854   0.00000  Uiso   1.00
H158   H     0.87811   0.23867   0.36263   0.00000  Uiso   1.00
C159   C     0.81257   0.28266   0.37699   0.00000  Uiso   1.00
H160   H     0.76433   0.27802   0.36909   0.00000  Uiso   1.00
H161   H     0.82396   0.31043   0.34749   0.00000  Uiso   1.00
H162   H     0.83118   0.29957   0.41955   0.00000  Uiso   1.00
C163   C     0.01475   0.59812   0.24872   0.00000  Uiso   1.00
C164   C     0.13863   0.52106   0.49361   0.00000  Uiso   1.00
C165   C     0.12083   0.52595   0.43669   0.00000  Uiso   1.00
C166   C     0.19558   0.50606   0.01297   0.00000  Uiso   1.00
C167   C     0.22516   0.48294   0.47578   0.00000  Uiso   1.00
C168   C     0.20937   0.49432   0.42086   0.00000  Uiso   1.00
C169   C     0.16412   0.52673   0.40570   0.00000  Uiso   1.00
C170   C     0.22556   0.51627   0.06673   0.00000  Uiso   1.00
C171   C     0.29678   0.45686   0.05236   0.00000  Uiso   1.00
C172   C     0.06112   0.52698   0.41256   0.00000  Uiso   1.00
C173   C     0.02250   0.65270   0.24824   0.00000  Uiso   1.00
C174   C     0.03783   0.50997   0.35403   0.00000  Uiso   1.00
C175   C     0.31111   0.34734   0.25249   0.00000  Uiso   1.00
C176   C     0.31867   0.40190   0.25152   0.00000  Uiso   1.00
C177   C     0.29644   0.49492   0.14581   0.00000  Uiso   1.00
C178   C     0.27405   0.45556   0.49574   0.00000  Uiso   1.00
C179   C     0.27451   0.49020   0.08717   0.00000  Uiso   1.00
C180   C     0.02402   0.54230   0.44589   0.00000  Uiso   1.00
C181   C     0.04321   0.54494   0.00300   0.00000  Uiso   1.00
C182   C     0.09804   0.52849   0.02724   0.00000  Uiso   1.00
H183   H     0.33196   0.43325   0.06840   0.00000  Uiso   1.00
H184   H     0.26890   0.66371   0.25654   0.00000  Uiso   1.00
H185   H     0.15685   0.45241   0.21757   0.00000  Uiso   1.00
H186   H     0.17637   0.55025   0.27531   0.00000  Uiso   1.00
H187   H     0.23722   0.48567   0.39316   0.00000  Uiso   1.00
H188   H     0.29524   0.43482   0.46798   0.00000  Uiso   1.00
H189   H     0.21029   0.54372   0.09338   0.00000  Uiso   1.00
H190   H     0.31307   0.55049   0.42796   0.00000  Uiso   1.00
H191   H     0.01308   0.55461   0.02810   0.00000  Uiso   1.00
H192   H     0.06475   0.33632   0.24430   0.00000  Uiso   1.00
N193   N     0.14493   0.48556   0.23542   0.00000  Uiso   1.00
N194   N     0.18840   0.51444   0.26457   0.00000  Uiso   1.00
O195   O     0.29769   0.57963   0.25357   0.00000  Uiso   1.00
O196   O     0.05742   0.57038   0.24423   0.00000  Uiso   1.00
O197   O     0.31490   0.50691   0.33380   0.00000  Uiso   1.00
O198   O     0.07463   0.49766   0.32446   0.00000  Uiso   1.00
O199   O     0.27592   0.42962   0.25576   0.00000  Uiso   1.00
O200   O     0.03565   0.42037   0.24643   0.00000  Uiso   1.00
O201   O     0.25870   0.50234   0.17554   0.00000  Uiso   1.00
O202   O     0.01843   0.49309   0.16620   0.00000  Uiso   1.00
Zn203  Zn    0.27119   0.50618   0.25623   0.00000  Uiso   1.00
Zn204  Zn    0.06214   0.49382   0.24376   0.00000  Uiso   1.00
N205   N     0.10939   0.51557   0.08345   0.00000  Uiso   1.00
H206   H     0.08523   0.53388   0.10722   0.00000  Uiso   1.00
C207   C     0.11555   0.46065   0.09337   0.00000  Uiso   1.00
H208   H     0.16099   0.45492   0.11442   0.00000  Uiso   1.00
H209   H     0.10354   0.43538   0.05457   0.00000  Uiso   1.00
H210   H     0.08808   0.44723   0.12136   0.00000  Uiso   1.00
N211   N     0.16959   0.56645   0.36854   0.00000  Uiso   1.00
H212   H     0.21144   0.57201   0.36263   0.00000  Uiso   1.00
C213   C     0.14591   0.61599   0.37699   0.00000  Uiso   1.00
H214   H     0.09766   0.61135   0.36909   0.00000  Uiso   1.00
H215   H     0.15729   0.64376   0.34749   0.00000  Uiso   1.00
H216   H     0.16452   0.63291   0.41955   0.00000  Uiso   1.00
C217   C     0.34808   0.59812   0.24872   0.00000  Uiso   1.00
C218   C     0.47197   0.52106   0.49361   0.00000  Uiso   1.00
C219   C     0.45417   0.52595   0.43669   0.00000  Uiso   1.00
C220   C     0.52892   0.50606   0.01297   0.00000  Uiso   1.00
C221   C     0.55849   0.48294   0.47578   0.00000  Uiso   1.00
C222   C     0.54270   0.49432   0.42086   0.00000  Uiso   1.00
C223   C     0.49745   0.52673   0.40570   0.00000  Uiso   1.00
C224   C     0.55889   0.51627   0.06673   0.00000  Uiso   1.00
C225   C     0.63011   0.45686   0.05236   0.00000  Uiso   1.00
C226   C     0.39446   0.52698   0.41256   0.00000  Uiso   1.00
C227   C     0.35583   0.65270   0.24824   0.00000  Uiso   1.00
C228   C     0.37116   0.50997   0.35403   0.00000  Uiso   1.00
C229   C     0.64444   0.34734   0.25249   0.00000  Uiso   1.00
C230   C     0.65201   0.40190   0.25152   0.00000  Uiso   1.00
C231   C     0.62977   0.49492   0.14581   0.00000  Uiso   1.00
C232   C     0.60738   0.45556   0.49574   0.00000  Uiso   1.00
C233   C     0.60784   0.49020   0.08717   0.00000  Uiso   1.00
C234   C     0.35736   0.54230   0.44589   0.00000  Uiso   1.00
C235   C     0.37654   0.54494   0.00300   0.00000  Uiso   1.00
C236   C     0.43137   0.52849   0.02724   0.00000  Uiso   1.00
H237   H     0.66529   0.43325   0.06840   0.00000  Uiso   1.00
H238   H     0.60223   0.66371   0.25654   0.00000  Uiso   1.00
H239   H     0.49018   0.45241   0.21757   0.00000  Uiso   1.00
H240   H     0.50970   0.55025   0.27531   0.00000  Uiso   1.00
H241   H     0.57055   0.48567   0.39316   0.00000  Uiso   1.00
H242   H     0.62857   0.43482   0.46798   0.00000  Uiso   1.00
H243   H     0.54362   0.54372   0.09338   0.00000  Uiso   1.00
H244   H     0.64640   0.55049   0.42796   0.00000  Uiso   1.00
H245   H     0.34641   0.55461   0.02810   0.00000  Uiso   1.00
H246   H     0.39808   0.33632   0.24430   0.00000  Uiso   1.00
N247   N     0.47827   0.48556   0.23542   0.00000  Uiso   1.00
N248   N     0.52173   0.51444   0.26457   0.00000  Uiso   1.00
O249   O     0.63102   0.57963   0.25357   0.00000  Uiso   1.00
O250   O     0.39075   0.57038   0.24423   0.00000  Uiso   1.00
O251   O     0.64823   0.50691   0.33380   0.00000  Uiso   1.00
O252   O     0.40796   0.49766   0.32446   0.00000  Uiso   1.00
O253   O     0.60925   0.42962   0.25576   0.00000  Uiso   1.00
O254   O     0.36898   0.42037   0.24643   0.00000  Uiso   1.00
O255   O     0.59204   0.50234   0.17554   0.00000  Uiso   1.00
O256   O     0.35177   0.49309   0.16620   0.00000  Uiso   1.00
Zn257  Zn    0.60453   0.50618   0.25623   0.00000  Uiso   1.00
Zn258  Zn    0.39547   0.49382   0.24376   0.00000  Uiso   1.00
N259   N     0.44272   0.51557   0.08345   0.00000  Uiso   1.00
H260   H     0.41857   0.53388   0.10722   0.00000  Uiso   1.00
C261   C     0.44888   0.46065   0.09337   0.00000  Uiso   1.00
H262   H     0.49432   0.45492   0.11442   0.00000  Uiso   1.00
H263   H     0.43687   0.43538   0.05457   0.00000  Uiso   1.00
H264   H     0.42141   0.44723   0.12136   0.00000  Uiso   1.00
N265   N     0.50292   0.56645   0.36854   0.00000  Uiso   1.00
H266   H     0.54477   0.57201   0.36263   0.00000  Uiso   1.00
C267   C     0.47924   0.61599   0.37699   0.00000  Uiso   1.00
H268   H     0.43099   0.61135   0.36909   0.00000  Uiso   1.00
H269   H     0.49062   0.64376   0.34749   0.00000  Uiso   1.00
H270   H     0.49785   0.63291   0.41955   0.00000  Uiso   1.00
C271   C     0.68141   0.59812   0.24872   0.00000  Uiso   1.00
C272   C     0.80530   0.52106   0.49361   0.00000  Uiso   1.00
C273   C     0.78750   0.52595   0.43669   0.00000  Uiso   1.00
C274   C     0.86225   0.50606   0.01297   0.00000  Uiso   1.00
C275   C     0.89183   0.48294   0.47578   0.00000  Uiso   1.00
C276   C     0.87603   0.49432   0.42086   0.00000  Uiso   1.00
C277   C     0.83078   0.52673   0.40570   0.00000  Uiso   1.00
C278   C     0.89222   0.51627   0.06673   0.00000  Uiso   1.00
C279   C     0.96344   0.45686   0.05236   0.00000  Uiso   1.00
C280   C     0.72779   0.52698   0.41256   0.00000  Uiso   1.00
C281   C     0.68916   0.65270   0.24824   0.00000  Uiso   1.00
C282   C     0.70449   0.50997   0.35403   0.00000  Uiso   1.00
C283   C     0.97778   0.34734   0.25249   0.00000  Uiso   1.00
C284   C     0.98534   0.40190   0.25152   0.00000  Uiso   1.00
C285   C     0.96310   0.49492   0.14581   0.00000  Uiso   1.00
C286   C     0.94072   0.45556   0.49574   0.00000  Uiso   1.00
C287   C     0.94117   0.49020   0.08717   0.00000  Uiso   1.00
C288   C     0.69069   0.54230   0.44589   0.00000  Uiso   1.00
C289   C     0.70988   0.54494   0.00300   0.00000  Uiso   1.00
C290   C     0.76471   0.52849   0.02724   0.00000  Uiso   1.00
H291   H     0.99863   0.43325   0.06840   0.00000  Uiso   1.00
H292   H     0.93556   0.66371   0.25654   0.00000  Uiso   1.00
H293   H     0.82351   0.45241   0.21757   0.00000  Uiso   1.00
H294   H     0.84304   0.55025   0.27531   0.00000  Uiso   1.00
H295   H     0.90389   0.48567   0.39316   0.00000  Uiso   1.00
H296   H     0.96190   0.43482   0.46798   0.00000  Uiso   1.00
H297   H     0.87695   0.54372   0.09338   0.00000  Uiso   1.00
H298   H     0.97974   0.55049   0.42796   0.00000  Uiso   1.00
H299   H     0.67974   0.55461   0.02810   0.00000  Uiso   1.00
H300   H     0.73141   0.33632   0.24430   0.00000  Uiso   1.00
N301   N     0.81160   0.48556   0.23542   0.00000  Uiso   1.00
N302   N     0.85507   0.51444   0.26457   0.00000  Uiso   1.00
O303   O     0.96435   0.57963   0.25357   0.00000  Uiso   1.00
O304   O     0.72408   0.57038   0.24423   0.00000  Uiso   1.00
O305   O     0.98157   0.50691   0.33380   0.00000  Uiso   1.00
O306   O     0.74130   0.49766   0.32446   0.00000  Uiso   1.00
O307   O     0.94258   0.42962   0.25576   0.00000  Uiso   1.00
O308   O     0.70231   0.42037   0.24643   0.00000  Uiso   1.00
O309   O     0.92537   0.50234   0.17554   0.00000  Uiso   1.00
O310   O     0.68510   0.49309   0.16620   0.00000  Uiso   1.00
Zn311  Zn    0.93786   0.50618   0.25623   0.00000  Uiso   1.00
Zn312  Zn    0.72881   0.49382   0.24376   0.00000  Uiso   1.00
N313   N     0.77606   0.51557   0.08345   0.00000  Uiso   1.00
H314   H     0.75190   0.53388   0.10722   0.00000  Uiso   1.00
C315   C     0.78222   0.46065   0.09337   0.00000  Uiso   1.00
H316   H     0.82765   0.45492   0.11442   0.00000  Uiso   1.00
H317   H     0.77021   0.43538   0.05457   0.00000  Uiso   1.00
H318   H     0.75474   0.44723   0.12136   0.00000  Uiso   1.00
N319   N     0.83626   0.56645   0.36854   0.00000  Uiso   1.00
H320   H     0.87811   0.57201   0.36263   0.00000  Uiso   1.00
C321   C     0.81257   0.61599   0.37699   0.00000  Uiso   1.00
H322   H     0.76433   0.61135   0.36909   0.00000  Uiso   1.00
H323   H     0.82396   0.64376   0.34749   0.00000  Uiso   1.00
H324   H     0.83118   0.63291   0.41955   0.00000  Uiso   1.00
C325   C     0.01475   0.93145   0.24872   0.00000  Uiso   1.00
C326   C     0.13863   0.85439   0.49361   0.00000  Uiso   1.00
C327   C     0.12083   0.85928   0.43669   0.00000  Uiso   1.00
C328   C     0.19558   0.83940   0.01297   0.00000  Uiso   1.00
C329   C     0.22516   0.81627   0.47578   0.00000  Uiso   1.00
C330   C     0.20937   0.82765   0.42086   0.00000  Uiso   1.00
C331   C     0.16412   0.86006   0.40570   0.00000  Uiso   1.00
C332   C     0.22556   0.84960   0.06673   0.00000  Uiso   1.00
C333   C     0.29678   0.79019   0.05236   0.00000  Uiso   1.00
C334   C     0.06112   0.86032   0.41256   0.00000  Uiso   1.00
C335   C     0.02250   0.98603   0.24824   0.00000  Uiso   1.00
C336   C     0.03783   0.84330   0.35403   0.00000  Uiso   1.00
C337   C     0.31111   0.68067   0.25249   0.00000  Uiso   1.00
C338   C     0.31867   0.73523   0.25152   0.00000  Uiso   1.00
C339   C     0.29644   0.82825   0.14581   0.00000  Uiso   1.00
C340   C     0.27405   0.78890   0.49574   0.00000  Uiso   1.00
C341   C     0.27451   0.82354   0.08717   0.00000  Uiso   1.00
C342   C     0.02402   0.87564   0.44589   0.00000  Uiso   1.00
C343   C     0.04321   0.87828   0.00300   0.00000  Uiso   1.00
C344   C     0.09804   0.86182   0.02724   0.00000  Uiso   1.00
H345   H     0.33196   0.76658   0.06840   0.00000  Uiso   1.00
H346   H     0.26890   0.99704   0.25654   0.00000  Uiso   1.00
H347   H     0.15685   0.78575   0.21757   0.00000  Uiso   1.00
H348   H     0.17637   0.88359   0.27531   0.00000  Uiso   1.00
H349   H     0.23722   0.81901   0.39316   0.00000  Uiso   1.00
H350   H     0.29524   0.76815   0.46798   0.00000  Uiso   1.00
H351   H     0.21029   0.87706   0.09338   0.00000  Uiso   1.00
H352   H     0.31307   0.88382   0.42796   0.00000  Uiso   1.00
H353   H     0.01308   0.88795   0.02810   0.00000  Uiso   1.00
H354   H     0.06475   0.66965   0.24430   0.00000  Uiso   1.00
N355   N     0.14493   0.81890   0.23542   0.00000  Uiso   1.00
N356   N     0.18840   0.84777   0.26457   0.00000  Uiso   1.00
O357   O     0.29769   0.91296   0.25357   0.00000  Uiso   1.00
O358   O     0.05742   0.90371   0.24423   0.00000  Uiso   1.00
O359   O     0.31490   0.84024   0.33380   0.00000  Uiso   1.00
O360   O     0.07463   0.83099   0.32446   0.00000  Uiso   1.00
O361   O     0.27592   0.76296   0.25576   0.00000  Uiso   1.00
O362   O     0.03565   0.75371   0.24643   0.00000  Uiso   1.00
O363   O     0.25870   0.83567   0.17554   0.00000  Uiso   1.00
O364   O     0.01843   0.82642   0.16620   0.00000  Uiso   1.00
Zn365  Zn    0.27119   0.83951   0.25623   0.00000  Uiso   1.00
Zn366  Zn    0.06214   0.82716   0.24376   0.00000  Uiso   1.00
N367   N     0.10939   0.84891   0.08345   0.00000  Uiso   1.00
H368   H     0.08523   0.86721   0.10722   0.00000  Uiso   1.00
C369   C     0.11555   0.79399   0.09337   0.00000  Uiso   1.00
H370   H     0.16099   0.78825   0.11442   0.00000  Uiso   1.00
H371   H     0.10354   0.76871   0.05457   0.00000  Uiso   1.00
H372   H     0.08808   0.78057   0.12136   0.00000  Uiso   1.00
N373   N     0.16959   0.89978   0.36854   0.00000  Uiso   1.00
H374   H     0.21144   0.90534   0.36263   0.00000  Uiso   1.00
C375   C     0.14591   0.94933   0.37699   0.00000  Uiso   1.00
H376   H     0.09766   0.94469   0.36909   0.00000  Uiso   1.00
H377   H     0.15729   0.97710   0.34749   0.00000  Uiso   1.00
H378   H     0.16452   0.96624   0.41955   0.00000  Uiso   1.00
C379   C     0.34808   0.93145   0.24872   0.00000  Uiso   1.00
C380   C     0.47197   0.85439   0.49361   0.00000  Uiso   1.00
C381   C     0.45417   0.85928   0.43669   0.00000  Uiso   1.00
C382   C     0.52892   0.83940   0.01297   0.00000  Uiso   1.00
C383   C     0.55849   0.81627   0.47578   0.00000  Uiso   1.00
C384   C     0.54270   0.82765   0.42086   0.00000  Uiso   1.00
C385   C     0.49745   0.86006   0.40570   0.00000  Uiso   1.00
C386   C     0.55889   0.84960   0.06673   0.00000  Uiso   1.00
C387   C     0.63011   0.79019   0.05236   0.00000  Uiso   1.00
C388   C     0.39446   0.86032   0.41256   0.00000  Uiso   1.00
C389   C     0.35583   0.98603   0.24824   0.00000  Uiso   1.00
C390   C     0.37116   0.84330   0.35403   0.00000  Uiso   1.00
C391   C     0.64444   0.68067   0.25249   0.00000  Uiso   1.00
C392   C     0.65201   0.73523   0.25152   0.00000  Uiso   1.00
C393   C     0.62977   0.82825   0.14581   0.00000  Uiso   1.00
C394   C     0.60738   0.78890   0.49574   0.00000  Uiso   1.00
C395   C     0.60784   0.82354   0.08717   0.00000  Uiso   1.00
C396   C     0.35736   0.87564   0.44589   0.00000  Uiso   1.00
C397   C     0.37654   0.87828   0.00300   0.00000  Uiso   1.00
C398   C     0.43137   0.86182   0.02724   0.00000  Uiso   1.00
H399   H     0.66529   0.76658   0.06840   0.00000  Uiso   1.00
H400   H     0.60223   0.99704   0.25654   0.00000  Uiso   1.00
H401   H     0.49018   0.78575   0.21757   0.00000  Uiso   1.00
H402   H     0.50970   0.88359   0.27531   0.00000  Uiso   1.00
H403   H     0.57055   0.81901   0.39316   0.00000  Uiso   1.00
H404   H     0.62857   0.76815   0.46798   0.00000  Uiso   1.00
H405   H     0.54362   0.87706   0.09338   0.00000  Uiso   1.00
H406   H     0.64640   0.88382   0.42796   0.00000  Uiso   1.00
H407   H     0.34641   0.88795   0.02810   0.00000  Uiso   1.00
H408   H     0.39808   0.66965   0.24430   0.00000  Uiso   1.00
N409   N     0.47827   0.81890   0.23542   0.00000  Uiso   1.00
N410   N     0.52173   0.84777   0.26457   0.00000  Uiso   1.00
O411   O     0.63102   0.91296   0.25357   0.00000  Uiso   1.00
O412   O     0.39075   0.90371   0.24423   0.00000  Uiso   1.00
O413   O     0.64823   0.84024   0.33380   0.00000  Uiso   1.00
O414   O     0.40796   0.83099   0.32446   0.00000  Uiso   1.00
O415   O     0.60925   0.76296   0.25576   0.00000  Uiso   1.00
O416   O     0.36898   0.75371   0.24643   0.00000  Uiso   1.00
O417   O     0.59204   0.83567   0.17554   0.00000  Uiso   1.00
O418   O     0.35177   0.82642   0.16620   0.00000  Uiso   1.00
Zn419  Zn    0.60453   0.83951   0.25623   0.00000  Uiso   1.00
Zn420  Zn    0.39547   0.82716   0.24376   0.00000  Uiso   1.00
N421   N     0.44272   0.84891   0.08345   0.00000  Uiso   1.00
H422   H     0.41857   0.86721   0.10722   0.00000  Uiso   1.00
C423   C     0.44888   0.79399   0.09337   0.00000  Uiso   1.00
H424   H     0.49432   0.78825   0.11442   0.00000  Uiso   1.00
H425   H     0.43687   0.76871   0.05457   0.00000  Uiso   1.00
H426   H     0.42141   0.78057   0.12136   0.00000  Uiso   1.00
N427   N     0.50292   0.89978   0.36854   0.00000  Uiso   1.00
H428   H     0.54477   0.90534   0.36263   0.00000  Uiso   1.00
C429   C     0.47924   0.94933   0.37699   0.00000  Uiso   1.00
H430   H     0.43099   0.94469   0.36909   0.00000  Uiso   1.00
H431   H     0.49062   0.97710   0.34749   0.00000  Uiso   1.00
H432   H     0.49785   0.96624   0.41955   0.00000  Uiso   1.00
C433   C     0.68141   0.93145   0.24872   0.00000  Uiso   1.00
C434   C     0.80530   0.85439   0.49361   0.00000  Uiso   1.00
C435   C     0.78750   0.85928   0.43669   0.00000  Uiso   1.00
C436   C     0.86225   0.83940   0.01297   0.00000  Uiso   1.00
C437   C     0.89183   0.81627   0.47578   0.00000  Uiso   1.00
C438   C     0.87603   0.82765   0.42086   0.00000  Uiso   1.00
C439   C     0.83078   0.86006   0.40570   0.00000  Uiso   1.00
C440   C     0.89222   0.84960   0.06673   0.00000  Uiso   1.00
C441   C     0.96344   0.79019   0.05236   0.00000  Uiso   1.00
C442   C     0.72779   0.86032   0.41256   0.00000  Uiso   1.00
C443   C     0.68916   0.98603   0.24824   0.00000  Uiso   1.00
C444   C     0.70449   0.84330   0.35403   0.00000  Uiso   1.00
C445   C     0.97778   0.68067   0.25249   0.00000  Uiso   1.00
C446   C     0.98534   0.73523   0.25152   0.00000  Uiso   1.00
C447   C     0.96310   0.82825   0.14581   0.00000  Uiso   1.00
C448   C     0.94072   0.78890   0.49574   0.00000  Uiso   1.00
C449   C     0.94117   0.82354   0.08717   0.00000  Uiso   1.00
C450   C     0.69069   0.87564   0.44589   0.00000  Uiso   1.00
C451   C     0.70988   0.87828   0.00300   0.00000  Uiso   1.00
C452   C     0.76471   0.86182   0.02724   0.00000  Uiso   1.00
H453   H     0.99863   0.76658   0.06840   0.00000  Uiso   1.00
H454   H     0.93556   0.99704   0.25654   0.00000  Uiso   1.00
H455   H     0.82351   0.78575   0.21757   0.00000  Uiso   1.00
H456   H     0.84304   0.88359   0.27531   0.00000  Uiso   1.00
H457   H     0.90389   0.81901   0.39316   0.00000  Uiso   1.00
H458   H     0.96190   0.76815   0.46798   0.00000  Uiso   1.00
H459   H     0.87695   0.87706   0.09338   0.00000  Uiso   1.00
H460   H     0.97974   0.88382   0.42796   0.00000  Uiso   1.00
H461   H     0.67974   0.88795   0.02810   0.00000  Uiso   1.00
H462   H     0.73141   0.66965   0.24430   0.00000  Uiso   1.00
N463   N     0.81160   0.81890   0.23542   0.00000  Uiso   1.00
N464   N     0.85507   0.84777   0.26457   0.00000  Uiso   1.00
O465   O     0.96435   0.91296   0.25357   0.00000  Uiso   1.00
O466   O     0.72408   0.90371   0.24423   0.00000  Uiso   1.00
O467   O     0.98157   0.84024   0.33380   0.00000  Uiso   1.00
O468   O     0.74130   0.83099   0.32446   0.00000  Uiso   1.00
O469   O     0.94258   0.76296   0.25576   0.00000  Uiso   1.00
O470   O     0.70231   0.75371   0.24643   0.00000  Uiso   1.00
O471   O     0.92537   0.83567   0.17554   0.00000  Uiso   1.00
O472   O     0.68510   0.82642   0.16620   0.00000  Uiso   1.00
Zn473  Zn    0.93786   0.83951   0.25623   0.00000  Uiso   1.00
Zn474  Zn    0.72881   0.82716   0.24376   0.00000  Uiso   1.00
N475   N     0.77606   0.84891   0.08345   0.00000  Uiso   1.00
H476   H     0.75190   0.86721   0.10722   0.00000  Uiso   1.00
C477   C     0.78222   0.79399   0.09337   0.00000  Uiso   1.00
H478   H     0.82765   0.78825   0.11442   0.00000  Uiso   1.00
H479   H     0.77021   0.76871   0.05457   0.00000  Uiso   1.00
H480   H     0.75474   0.78057   0.12136   0.00000  Uiso   1.00
N481   N     0.83626   0.89978   0.36854   0.00000  Uiso   1.00
H482   H     0.87811   0.90534   0.36263   0.00000  Uiso   1.00
C483   C     0.81257   0.94933   0.37699   0.00000  Uiso   1.00
H484   H     0.76433   0.94469   0.36909   0.00000  Uiso   1.00
H485   H     0.82396   0.97710   0.34749   0.00000  Uiso   1.00
H486   H     0.83118   0.96624   0.41955   0.00000  Uiso   1.00
C487   C     0.01475   0.26478   0.74872   0.00000  Uiso   1.00
C488   C     0.13863   0.18773   0.99361   0.00000  Uiso   1.00
C489   C     0.12083   0.19262   0.93669   0.00000  Uiso   1.00
C490   C     0.19558   0.17273   0.51297   0.00000  Uiso   1.00
C491   C     0.22516   0.14961   0.97578   0.00000  Uiso   1.00
C492   C     0.20937   0.16098   0.92086   0.00000  Uiso   1.00
C493   C     0.16412   0.19339   0.90570   0.00000  Uiso   1.00
C494   C     0.22556   0.18293   0.56673   0.00000  Uiso   1.00
C495   C     0.29678   0.12353   0.55236   0.00000  Uiso   1.00
C496   C     0.06112   0.19365   0.91256   0.00000  Uiso   1.00
C497   C     0.02250   0.31936   0.74824   0.00000  Uiso   1.00
C498   C     0.03783   0.17663   0.85403   0.00000  Uiso   1.00
C499   C     0.31111   0.01401   0.75249   0.00000  Uiso   1.00
C500   C     0.31867   0.06857   0.75152   0.00000  Uiso   1.00
C501   C     0.29644   0.16158   0.64581   0.00000  Uiso   1.00
C502   C     0.27405   0.12223   0.99574   0.00000  Uiso   1.00
C503   C     0.27451   0.15687   0.58717   0.00000  Uiso   1.00
C504   C     0.02402   0.20897   0.94589   0.00000  Uiso   1.00
C505   C     0.04321   0.21161   0.50300   0.00000  Uiso   1.00
C506   C     0.09804   0.19515   0.52724   0.00000  Uiso   1.00
H507   H     0.33196   0.09991   0.56840   0.00000  Uiso   1.00
H508   H     0.26890   0.33038   0.75654   0.00000  Uiso   1.00
H509   H     0.15685   0.11908   0.71757   0.00000  Uiso   1.00
H510   H     0.17637   0.21692   0.77531   0.00000  Uiso   1.00
H511   H     0.23722   0.15234   0.89316   0.00000  Uiso   1.00
H512   H     0.29524   0.10149   0.96798   0.00000  Uiso   1.00
H513   H     0.21029   0.21039   0.59338   0.00000  Uiso   1.00
H514   H     0.31307   0.21716   0.92796   0.00000  Uiso   1.00
H515   H     0.01308   0.22128   0.52810   0.00000  Uiso   1.00
H516   H     0.06475   0.00299   0.74430   0.00000  Uiso   1.00
N517   N     0.14493   0.15223   0.73542   0.00000  Uiso   1.00
N518   N     0.18840   0.18110   0.76457   0.00000  Uiso   1.00
O519   O     0.29769   0.24629   0.75357   0.00000  Uiso   1.00
O520   O     0.05742   0.23704   0.74423   0.00000  Uiso   1.00
O521   O     0.31490   0.17358   0.83380   0.00000  Uiso   1.00
O522   O     0.07463   0.16433   0.82446   0.00000  Uiso   1.00
O523   O     0.27592   0.09629   0.75576   0.00000  Uiso   1.00
O524   O     0.03565   0.08704   0.74643   0.00000  Uiso   1.00
O525   O     0.25870   0.16901   0.67554   0.00000  Uiso   1.00
O526   O     0.01843   0.15976   0.66620   0.00000  Uiso   1.00
Zn527  Zn    0.27119   0.17284   0.75623   0.00000  Uiso   1.00
Zn528  Zn    0.06214   0.16049   0.74376   0.00000  Uiso   1.00
N529   N     0.10939   0.18224   0.58345   0.00000  Uiso   1.00
H530   H     0.08523   0.20055   0.60722   0.00000  Uiso   1.00
C531   C     0.11555   0.12732   0.59337   0.00000  Uiso   1.00
H532   H     0.16099   0.12159   0.61442   0.00000  Uiso   1.00
H533   H     0.10354   0.10205   0.55457   0.00000  Uiso   1.00
H534   H     0.08808   0.11390   0.62136   0.00000  Uiso   1.00
N535   N     0.16959   0.23312   0.86854   0.00000  Uiso   1.00
H536   H     0.21144   0.23867   0.86263   0.00000  Uiso   1.00
C537   C     0.14591   0.28266   0.87699   0.00000  Uiso   1.00
H538   H     0.09766   0.27802   0.86909   0.00000  Uiso   1.00
H539   H     0.15729   0.31043   0.84749   0.00000  Uiso   1.00
H540   H     0.16452   0.29957   0.91955   0.00000  Uiso   1.00
C541   C     0.34808   0.26478   0.74872   0.00000  Uiso   1.00
C542   C     0.47197   0.18773   0.99361   0.00000  Uiso   1.00
C543   C     0.45417   0.19262   0.93669   0.00000  Uiso   1.00
C544   C     0.52892   0.17273   0.51297   0.00000  Uiso   1.00
C545   C     0.55849   0.14961   0.97578   0.00000  Uiso   1.00
C546   C     0.54270   0.16098   0.92086   0.00000  Uiso   1.00
C547   C     0.49745   0.19339   0.90570   0.00000  Uiso   1.00
C548   C     0.55889   0.18293   0.56673   0.00000  Uiso   1.00
C549   C     0.63011   0.12353   0.55236   0.00000  Uiso   1.00
C550   C     0.39446   0.19365   0.91256   0.00000  Uiso   1.00
C551   C     0.35583   0.31936   0.74824   0.00000  Uiso   1.00
C552   C     0.37116   0.17663   0.85403   0.00000  Uiso   1.00
C553   C     0.64444   0.01401   0.75249   0.00000  Uiso   1.00
C554   C     0.65201   0.06857   0.75152   0.00000  Uiso   1.00
C555   C     0.62977   0.16158   0.64581   0.00000  Uiso   1.00
C556   C     0.60738   0.12223   0.99574   0.00000  Uiso   1.00
C557   C     0.60784   0.15687   0.58717   0.00000  Uiso   1.00
C558   C     0.35736   0.20897   0.94589   0.00000  Uiso   1.00
C559   C     0.37654   0.21161   0.50300   0.00000  Uiso   1.00
C560   C     0.43137   0.19515   0.52724   0.00000  Uiso   1.00
H561   H     0.66529   0.09991   0.56840   0.00000  Uiso   1.00
H562   H     0.60223   0.33038   0.75654   0.00000  Uiso   1.00
H563   H     0.49018   0.11908   0.71757   0.00000  Uiso   1.00
H564   H     0.50970   0.21692   0.77531   0.00000  Uiso   1.00
H565   H     0.57055   0.15234   0.89316   0.00000  Uiso   1.00
H566   H     0.62857   0.10149   0.96798   0.00000  Uiso   1.00
H567   H     0.54362   0.21039   0.59338   0.00000  Uiso   1.00
H568   H     0.64640   0.21716   0.92796   0.00000  Uiso   1.00
H569   H     0.34641   0.22128   0.52810   0.00000  Uiso   1.00
H570   H     0.39808   0.00299   0.74430   0.00000  Uiso   1.00
N571   N     0.47827   0.15223   0.73542   0.00000  Uiso   1.00
N572   N     0.52173   0.18110   0.76457   0.00000  Uiso   1.00
O573   O     0.63102   0.24629   0.75357   0.00000  Uiso   1.00
O574   O     0.39075   0.23704   0.74423   0.00000  Uiso   1.00
O575   O     0.64823   0.17358   0.83380   0.00000  Uiso   1.00
O576   O     0.40796   0.16433   0.82446   0.00000  Uiso   1.00
O577   O     0.60925   0.09629   0.75576   0.00000  Uiso   1.00
O578   O     0.36898   0.08704   0.74643   0.00000  Uiso   1.00
O579   O     0.59204   0.16901   0.67554   0.00000  Uiso   1.00
O580   O     0.35177   0.15976   0.66620   0.00000  Uiso   1.00
Zn581  Zn    0.60453   0.17284   0.75623   0.00000  Uiso   1.00
Zn582  Zn    0.39547   0.16049   0.74376   0.00000  Uiso   1.00
N583   N     0.44272   0.18224   0.58345   0.00000  Uiso   1.00
H584   H     0.41857   0.20055   0.60722   0.00000  Uiso   1.00
C585   C     0.44888   0.12732   0.59337   0.00000  Uiso   1.00
H586   H     0.49432   0.12159   0.61442   0.00000  Uiso   1.00
H587   H     0.43687   0.10205   0.55457   0.00000  Uiso   1.00
H588   H     0.42141   0.11390   0.62136   0.00000  Uiso   1.00
N589   N     0.50292   0.23312   0.86854   0.00000  Uiso   1.00
H590   H     0.54477   0.23867   0.86263   0.00000  Uiso   1.00
C591   C     0.47924   0.28266   0.87699   0.00000  Uiso   1.00
H592   H     0.43099   0.27802   0.86909   0.00000  Uiso   1.00
H593   H     0.49062   0.31043   0.84749   0.00000  Uiso   1.00
H594   H     0.49785   0.29957   0.91955   0.00000  Uiso   1.00
C595   C     0.68141   0.26478   0.74872   0.00000  Uiso   1.00
C596   C     0.80530   0.18773   0.99361   0.00000  Uiso   1.00
C597   C     0.78750   0.19262   0.93669   0.00000  Uiso   1.00
C598   C     0.86225   0.17273   0.51297   0.00000  Uiso   1.00
C599   C     0.89183   0.14961   0.97578   0.00000  Uiso   1.00
C600   C     0.87603   0.16098   0.92086   0.00000  Uiso   1.00
C601   C     0.83078   0.19339   0.90570   0.00000  Uiso   1.00
C602   C     0.89222   0.18293   0.56673   0.00000  Uiso   1.00
C603   C     0.96344   0.12353   0.55236   0.00000  Uiso   1.00
C604   C     0.72779   0.19365   0.91256   0.00000  Uiso   1.00
C605   C     0.68916   0.31936   0.74824   0.00000  Uiso   1.00
C606   C     0.70449   0.17663   0.85403   0.00000  Uiso   1.00
C607   C     0.97778   0.01401   0.75249   0.00000  Uiso   1.00
C608   C     0.98534   0.06857   0.75152   0.00000  Uiso   1.00
C609   C     0.96310   0.16158   0.64581   0.00000  Uiso   1.00
C610   C     0.94072   0.12223   0.99574   0.00000  Uiso   1.00
C611   C     0.94117   0.15687   0.58717   0.00000  Uiso   1.00
C612   C     0.69069   0.20897   0.94589   0.00000  Uiso   1.00
C613   C     0.70988   0.21161   0.50300   0.00000  Uiso   1.00
C614   C     0.76471   0.19515   0.52724   0.00000  Uiso   1.00
H615   H     0.99863   0.09991   0.56840   0.00000  Uiso   1.00
H616   H     0.93556   0.33038   0.75654   0.00000  Uiso   1.00
H617   H     0.82351   0.11908   0.71757   0.00000  Uiso   1.00
H618   H     0.84304   0.21692   0.77531   0.00000  Uiso   1.00
H619   H     0.90389   0.15234   0.89316   0.00000  Uiso   1.00
H620   H     0.96190   0.10149   0.96798   0.00000  Uiso   1.00
H621   H     0.87695   0.21039   0.59338   0.00000  Uiso   1.00
H622   H     0.97974   0.21716   0.92796   0.00000  Uiso   1.00
H623   H     0.67974   0.22128   0.52810   0.00000  Uiso   1.00
H624   H     0.73141   0.00299   0.74430   0.00000  Uiso   1.00
N625   N     0.81160   0.15223   0.73542   0.00000  Uiso   1.00
N626   N     0.85507   0.18110   0.76457   0.00000  Uiso   1.00
O627   O     0.96435   0.24629   0.75357   0.00000  Uiso   1.00
O628   O     0.72408   0.23704   0.74423   0.00000  Uiso   1.00
O629   O     0.98157   0.17358   0.83380   0.00000  Uiso   1.00
O630   O     0.74130   0.16433   0.82446   0.00000  Uiso   1.00
O631   O     0.94258   0.09629   0.75576   0.00000  Uiso   1.00
O632   O     0.70231   0.08704   0.74643   0.00000  Uiso   1.00
O633   O     0.92537   0.16901   0.67554   0.00000  Uiso   1.00
O634   O     0.68510   0.15976   0.66620   0.00000  Uiso   1.00
Zn635  Zn    0.93786   0.17284   0.75623   0.00000  Uiso   1.00
Zn636  Zn    0.72881   0.16049   0.74376   0.00000  Uiso   1.00
N637   N     0.77606   0.18224   0.58345   0.00000  Uiso   1.00
H638   H     0.75190   0.20055   0.60722   0.00000  Uiso   1.00
C639   C     0.78222   0.12732   0.59337   0.00000  Uiso   1.00
H640   H     0.82765   0.12159   0.61442   0.00000  Uiso   1.00
H641   H     0.77021   0.10205   0.55457   0.00000  Uiso   1.00
H642   H     0.75474   0.11390   0.62136   0.00000  Uiso   1.00
N643   N     0.83626   0.23312   0.86854   0.00000  Uiso   1.00
H644   H     0.87811   0.23867   0.86263   0.00000  Uiso   1.00
C645   C     0.81257   0.28266   0.87699   0.00000  Uiso   1.00
H646   H     0.76433   0.27802   0.86909   0.00000  Uiso   1.00
H647   H     0.82396   0.31043   0.84749   0.00000  Uiso   1.00
H648   H     0.83118   0.29957   0.91955   0.00000  Uiso   1.00
C649   C     0.01475   0.59812   0.74872   0.00000  Uiso   1.00
C650   C     0.13863   0.52106   0.99361   0.00000  Uiso   1.00
C651   C     0.12083   0.52595   0.93669   0.00000  Uiso   1.00
C652   C     0.19558   0.50606   0.51297   0.00000  Uiso   1.00
C653   C     0.22516   0.48294   0.97578   0.00000  Uiso   1.00
C654   C     0.20937   0.49432   0.92086   0.00000  Uiso   1.00
C655   C     0.16412   0.52673   0.90570   0.00000  Uiso   1.00
C656   C     0.22556   0.51627   0.56673   0.00000  Uiso   1.00
C657   C     0.29678   0.45686   0.55236   0.00000  Uiso   1.00
C658   C     0.06112   0.52698   0.91256   0.00000  Uiso   1.00
C659   C     0.02250   0.65270   0.74824   0.00000  Uiso   1.00
C660   C     0.03783   0.50997   0.85403   0.00000  Uiso   1.00
C661   C     0.31111   0.34734   0.75249   0.00000  Uiso   1.00
C662   C     0.31867   0.40190   0.75152   0.00000  Uiso   1.00
C663   C     0.29644   0.49492   0.64581   0.00000  Uiso   1.00
C664   C     0.27405   0.45556   0.99574   0.00000  Uiso   1.00
C665   C     0.27451   0.49020   0.58717   0.00000  Uiso   1.00
C666   C     0.02402   0.54230   0.94589   0.00000  Uiso   1.00
C667   C     0.04321   0.54494   0.50300   0.00000  Uiso   1.00
C668   C     0.09804   0.52849   0.52724   0.00000  Uiso   1.00
H669   H     0.33196   0.43325   0.56840   0.00000  Uiso   1.00
H670   H     0.26890   0.66371   0.75654   0.00000  Uiso   1.00
H671   H     0.15685   0.45241   0.71757   0.00000  Uiso   1.00
H672   H     0.17637   0.55025   0.77531   0.00000  Uiso   1.00
H673   H     0.23722   0.48567   0.89316   0.00000  Uiso   1.00
H674   H     0.29524   0.43482   0.96798   0.00000  Uiso   1.00
H675   H     0.21029   0.54372   0.59338   0.00000  Uiso   1.00
H676   H     0.31307   0.55049   0.92796   0.00000  Uiso   1.00
H677   H     0.01308   0.55461   0.52810   0.00000  Uiso   1.00
H678   H     0.06475   0.33632   0.74430   0.00000  Uiso   1.00
N679   N     0.14493   0.48556   0.73542   0.00000  Uiso   1.00
N680   N     0.18840   0.51444   0.76457   0.00000  Uiso   1.00
O681   O     0.29769   0.57963   0.75357   0.00000  Uiso   1.00
O682   O     0.05742   0.57038   0.74423   0.00000  Uiso   1.00
O683   O     0.31490   0.50691   0.83380   0.00000  Uiso   1.00
O684   O     0.07463   0.49766   0.82446   0.00000  Uiso   1.00
O685   O     0.27592   0.42962   0.75576   0.00000  Uiso   1.00
O686   O     0.03565   0.42037   0.74643   0.00000  Uiso   1.00
O687   O     0.25870   0.50234   0.67554   0.00000  Uiso   1.00
O688   O     0.01843   0.49309   0.66620   0.00000  Uiso   1.00
Zn689  Zn    0.27119   0.50618   0.75623   0.00000  Uiso   1.00
Zn690  Zn    0.06214   0.49382   0.74376   0.00000  Uiso   1.00
N691   N     0.10939   0.51557   0.58345   0.00000  Uiso   1.00
H692   H     0.08523   0.53388   0.60722   0.00000  Uiso   1.00
C693   C     0.11555   0.46065   0.59337   0.00000  Uiso   1.00
H694   H     0.16099   0.45492   0.61442   0.00000  Uiso   1.00
H695   H     0.10354   0.43538   0.55457   0.00000  Uiso   1.00
H696   H     0.08808   0.44723   0.62136   0.00000  Uiso   1.00
N697   N     0.16959   0.56645   0.86854   0.00000  Uiso   1.00
H698   H     0.21144   0.57201   0.86263   0.00000  Uiso   1.00
C699   C     0.14591   0.61599   0.87699   0.00000  Uiso   1.00
H700   H     0.09766   0.61135   0.86909   0.00000  Uiso   1.00
H701   H     0.15729   0.64376   0.84749   0.00000  Uiso   1.00
H702   H     0.16452   0.63291   0.91955   0.00000  Uiso   1.00
C703   C     0.34808   0.59812   0.74872   0.00000  Uiso   1.00
C704   C     0.47197   0.52106   0.99361   0.00000  Uiso   1.00
C705   C     0.45417   0.52595   0.93669   0.00000  Uiso   1.00
C706   C     0.52892   0.50606   0.51297   0.00000  Uiso   1.00
C707   C     0.55849   0.48294   0.97578   0.00000  Uiso   1.00
C708   C     0.54270   0.49432   0.92086   0.00000  Uiso   1.00
C709   C     0.49745   0.52673   0.90570   0.00000  Uiso   1.00
C710   C     0.55889   0.51627   0.56673   0.00000  Uiso   1.00
C711   C     0.63011   0.45686   0.55236   0.00000  Uiso   1.00
C712   C     0.39446   0.52698   0.91256   0.00000  Uiso   1.00
C713   C     0.35583   0.65270   0.74824   0.00000  Uiso   1.00
C714   C     0.37116   0.50997   0.85403   0.00000  Uiso   1.00
C715   C     0.64444   0.34734   0.75249   0.00000  Uiso   1.00
C716   C     0.65201   0.40190   0.75152   0.00000  Uiso   1.00
C717   C     0.62977   0.49492   0.64581   0.00000  Uiso   1.00
C718   C     0.60738   0.45556   0.99574   0.00000  Uiso   1.00
C719   C     0.60784   0.49020   0.58717   0.00000  Uiso   1.00
C720   C     0.35736   0.54230   0.94589   0.00000  Uiso   1.00
C721   C     0.37654   0.54494   0.50300   0.00000  Uiso   1.00
C722   C     0.43137   0.52849   0.52724   0.00000  Uiso   1.00
H723   H     0.66529   0.43325   0.56840   0.00000  Uiso   1.00
H724   H     0.60223   0.66371   0.75654   0.00000  Uiso   1.00
H725   H     0.49018   0.45241   0.71757   0.00000  Uiso   1.00
H726   H     0.50970   0.55025   0.77531   0.00000  Uiso   1.00
H727   H     0.57055   0.48567   0.89316   0.00000  Uiso   1.00
H728   H     0.62857   0.43482   0.96798   0.00000  Uiso   1.00
H729   H     0.54362   0.54372   0.59338   0.00000  Uiso   1.00
H730   H     0.64640   0.55049   0.92796   0.00000  Uiso   1.00
H731   H     0.34641   0.55461   0.52810   0.00000  Uiso   1.00
H732   H     0.39808   0.33632   0.74430   0.00000  Uiso   1.00
N733   N     0.47827   0.48556   0.73542   0.00000  Uiso   1.00
N734   N     0.52173   0.51444   0.76457   0.00000  Uiso   1.00
O735   O     0.63102   0.57963   0.75357   0.00000  Uiso   1.00
O736   O     0.39075   0.57038   0.74423   0.00000  Uiso   1.00
O737   O     0.64823   0.50691   0.83380   0.00000  Uiso   1.00
O738   O     0.40796   0.49766   0.82446   0.00000  Uiso   1.00
O739   O     0.60925   0.42962   0.75576   0.00000  Uiso   1.00
O740   O     0.36898   0.42037   0.74643   0.00000  Uiso   1.00
O741   O     0.59204   0.50234   0.67554   0.00000  Uiso   1.00
O742   O     0.35177   0.49309   0.66620   0.00000  Uiso   1.00
Zn743  Zn    0.60453   0.50618   0.75623   0.00000  Uiso   1.00
Zn744  Zn    0.39547   0.49382   0.74376   0.00000  Uiso   1.00
N745   N     0.44272   0.51557   0.58345   0.00000  Uiso   1.00
H746   H     0.41857   0.53388   0.60722   0.00000  Uiso   1.00
C747   C     0.44888   0.46065   0.59337   0.00000  Uiso   1.00
H748   H     0.49432   0.45492   0.61442   0.00000  Uiso   1.00
H749   H     0.43687   0.43538   0.55457   0.00000  Uiso   1.00
H750   H     0.42141   0.44723   0.62136   0.00000  Uiso   1.00
N751   N     0.50292   0.56645   0.86854   0.00000  Uiso   1.00
H752   H     0.54477   0.57201   0.86263   0.00000  Uiso   1.00
C753   C     0.47924   0.61599   0.87699   0.00000  Uiso   1.00
H754   H     0.43099   0.61135   0.86909   0.00000  Uiso   1.00
H755   H     0.49062   0.64376   0.84749   0.00000  Uiso   1.00
H756   H     0.49785   0.63291   0.91955   0.00000  Uiso   1.00
C757   C     0.68141   0.59812   0.74872   0.00000  Uiso   1.00
C758   C     0.80530   0.52106   0.99361   0.00000  Uiso   1.00
C759   C     0.78750   0.52595   0.93669   0.00000  Uiso   1.00
C760   C     0.86225   0.50606   0.51297   0.00000  Uiso   1.00
C761   C     0.89183   0.48294   0.97578   0.00000  Uiso   1.00
C762   C     0.87603   0.49432   0.92086   0.00000  Uiso   1.00
C763   C     0.83078   0.52673   0.90570   0.00000  Uiso   1.00
C764   C     0.89222   0.51627   0.56673   0.00000  Uiso   1.00
C765   C     0.96344   0.45686   0.55236   0.00000  Uiso   1.00
C766   C     0.72779   0.52698   0.91256   0.00000  Uiso   1.00
C767   C     0.68916   0.65270   0.74824   0.00000  Uiso   1.00
C768   C     0.70449   0.50997   0.85403   0.00000  Uiso   1.00
C769   C     0.97778   0.34734   0.75249   0.00000  Uiso   1.00
C770   C     0.98534   0.40190   0.75152   0.00000  Uiso   1.00
C771   C     0.96310   0.49492   0.64581   0.00000  Uiso   1.00
C772   C     0.94072   0.45556   0.99574   0.00000  Uiso   1.00
C773   C     0.94117   0.49020   0.58717   0.00000  Uiso   1.00
C774   C     0.69069   0.54230   0.94589   0.00000  Uiso   1.00
C775   C     0.70988   0.54494   0.50300   0.00000  Uiso   1.00
C776   C     0.76471   0.52849   0.52724   0.00000  Uiso   1.00
H777   H     0.99863   0.43325   0.56840   0.00000  Uiso   1.00
H778   H     0.93556   0.66371   0.75654   0.00000  Uiso   1.00
H779   H     0.82351   0.45241   0.71757   0.00000  Uiso   1.00
H780   H     0.84304   0.55025   0.77531   0.00000  Uiso   1.00
H781   H     0.90389   0.48567   0.89316   0.00000  Uiso   1.00
H782   H     0.96190   0.43482   0.96798   0.00000  Uiso   1.00
H783   H     0.87695   0.54372   0.59338   0.00000  Uiso   1.00
H784   H     0.97974   0.55049   0.92796   0.00000  Uiso   1.00
H785   H     0.67974   0.55461   0.52810   0.00000  Uiso   1.00
H786   H     0.73141   0.33632   0.74430   0.00000  Uiso   1.00
N787   N     0.81160   0.48556   0.73542   0.00000  Uiso   1.00
N788   N     0.85507   0.51444   0.76457   0.00000  Uiso   1.00
O789   O     0.96435   0.57963   0.75357   0.00000  Uiso   1.00
O790   O     0.72408   0.57038   0.74423   0.00000  Uiso   1.00
O791   O     0.98157   0.50691   0.83380   0.00000  Uiso   1.00
O792   O     0.74130   0.49766   0.82446   0.00000  Uiso   1.00
O793   O     0.94258   0.42962   0.75576   0.00000  Uiso   1.00
O794   O     0.70231   0.42037   0.74643   0.00000  Uiso   1.00
O795   O     0.92537   0.50234   0.67554   0.00000  Uiso   1.00
O796   O     0.68510   0.49309   0.66620   0.00000  Uiso   1.00
Zn797  Zn    0.93786   0.50618   0.75623   0.00000  Uiso   1.00
Zn798  Zn    0.72881   0.49382   0.74376   0.00000  Uiso   1.00
N799   N     0.77606   0.51557   0.58345   0.00000  Uiso   1.00
H800   H     0.75190   0.53388   0.60722   0.00000  Uiso   1.00
C801   C     0.78222   0.46065   0.59337   0.00000  Uiso   1.00
H802   H     0.82765   0.45492   0.61442   0.00000  Uiso   1.00
H803   H     0.77021   0.43538   0.55457   0.00000  Uiso   1.00
H804   H     0.75474   0.44723   0.62136   0.00000  Uiso   1.00
N805   N     0.83626   0.56645   0.86854   0.00000  Uiso   1.00
H806   H     0.87811   0.57201   0.86263   0.00000  Uiso   1.00
C807   C     0.81257   0.61599   0.87699   0.00000  Uiso   1.00
H808   H     0.76433   0.61135   0.86909   0.00000  Uiso   1.00
H809   H     0.82396   0.64376   0.84749   0.00000  Uiso   1.00
H810   H     0.83118   0.63291   0.91955   0.00000  Uiso   1.00
C811   C     0.01475   0.93145   0.74872   0.00000  Uiso   1.00
C812   C     0.13863   0.85439   0.99361   0.00000  Uiso   1.00
C813   C     0.12083   0.85928   0.93669   0.00000  Uiso   1.00
C814   C     0.19558   0.83940   0.51297   0.00000  Uiso   1.00
C815   C     0.22516   0.81627   0.97578   0.00000  Uiso   1.00
C816   C     0.20937   0.82765   0.92086   0.00000  Uiso   1.00
C817   C     0.16412   0.86006   0.90570   0.00000  Uiso   1.00
C818   C     0.22556   0.84960   0.56673   0.00000  Uiso   1.00
C819   C     0.29678   0.79019   0.55236   0.00000  Uiso   1.00
C820   C     0.06112   0.86032   0.91256   0.00000  Uiso   1.00
C821   C     0.02250   0.98603   0.74824   0.00000  Uiso   1.00
C822   C     0.03783   0.84330   0.85403   0.00000  Uiso   1.00
C823   C     0.31111   0.68067   0.75249   0.00000  Uiso   1.00
C824   C     0.31867   0.73523   0.75152   0.00000  Uiso   1.00
C825   C     0.29644   0.82825   0.64581   0.00000  Uiso   1.00
C826   C     0.27405   0.78890   0.99574   0.00000  Uiso   1.00
C827   C     0.27451   0.82354   0.58717   0.00000  Uiso   1.00
C828   C     0.02402   0.87564   0.94589   0.00000  Uiso   1.00
C829   C     0.04321   0.87828   0.50300   0.00000  Uiso   1.00
C830   C     0.09804   0.86182   0.52724   0.00000  Uiso   1.00
H831   H     0.33196   0.76658   0.56840   0.00000  Uiso   1.00
H832   H     0.26890   0.99704   0.75654   0.00000  Uiso   1.00
H833   H     0.15685   0.78575   0.71757   0.00000  Uiso   1.00
H834   H     0.17637   0.88359   0.77531   0.00000  Uiso   1.00
H835   H     0.23722   0.81901   0.89316   0.00000  Uiso   1.00
H836   H     0.29524   0.76815   0.96798   0.00000  Uiso   1.00
H837   H     0.21029   0.87706   0.59338   0.00000  Uiso   1.00
H838   H     0.31307   0.88382   0.92796   0.00000  Uiso   1.00
H839   H     0.01308   0.88795   0.52810   0.00000  Uiso   1.00
H840   H     0.06475   0.66965   0.74430   0.00000  Uiso   1.00
N841   N     0.14493   0.81890   0.73542   0.00000  Uiso   1.00
N842   N     0.18840   0.84777   0.76457   0.00000  Uiso   1.00
O843   O     0.29769   0.91296   0.75357   0.00000  Uiso   1.00
O844   O     0.05742   0.90371   0.74423   0.00000  Uiso   1.00
O845   O     0.31490   0.84024   0.83380   0.00000  Uiso   1.00
O846   O     0.07463   0.83099   0.82446   0.00000  Uiso   1.00
O847   O     0.27592   0.76296   0.75576   0.00000  Uiso   1.00
O848   O     0.03565   0.75371   0.74643   0.00000  Uiso   1.00
O849   O     0.25870   0.83567   0.67554   0.00000  Uiso   1.00
O850   O     0.01843   0.82642   0.66620   0.00000  Uiso   1.00
Zn851  Zn    0.27119   0.83951   0.75623   0.00000  Uiso   1.00
Zn852  Zn    0.06214   0.82716   0.74376   0.00000  Uiso   1.00
N853   N     0.10939   0.84891   0.58345   0.00000  Uiso   1.00
H854   H     0.08523   0.86721   0.60722   0.00000  Uiso   1.00
C855   C     0.11555   0.79399   0.59337   0.00000  Uiso   1.00
H856   H     0.16099   0.78825   0.61442   0.00000  Uiso   1.00
H857   H     0.10354   0.76871   0.55457   0.00000  Uiso   1.00
H858   H     0.08808   0.78057   0.62136   0.00000  Uiso   1.00
N859   N     0.16959   0.89978   0.86854   0.00000  Uiso   1.00
H860   H     0.21144   0.90534   0.86263   0.00000  Uiso   1.00
C861   C     0.14591   0.94933   0.87699   0.00000  Uiso   1.00
H862   H     0.09766   0.94469   0.86909   0.00000  Uiso   1.00
H863   H     0.15729   0.97710   0.84749   0.00000  Uiso   1.00
H864   H     0.16452   0.96624   0.91955   0.00000  Uiso   1.00
C865   C     0.34808   0.93145   0.74872   0.00000  Uiso   1.00
C866   C     0.47197   0.85439   0.99361   0.00000  Uiso   1.00
C867   C     0.45417   0.85928   0.93669   0.00000  Uiso   1.00
C868   C     0.52892   0.83940   0.51297   0.00000  Uiso   1.00
C869   C     0.55849   0.81627   0.97578   0.00000  Uiso   1.00
C870   C     0.54270   0.82765   0.92086   0.00000  Uiso   1.00
C871   C     0.49745   0.86006   0.90570   0.00000  Uiso   1.00
C872   C     0.55889   0.84960   0.56673   0.00000  Uiso   1.00
C873   C     0.63011   0.79019   0.55236   0.00000  Uiso   1.00
C874   C     0.39446   0.86032   0.91256   0.00000  Uiso   1.00
C875   C     0.35583   0.98603   0.74824   0.00000  Uiso   1.00
C876   C     0.37116   0.84330   0.85403   0.00000  Uiso   1.00
C877   C     0.64444   0.68067   0.75249   0.00000  Uiso   1.00
C878   C     0.65201   0.73523   0.75152   0.00000  Uiso   1.00
C879   C     0.62977   0.82825   0.64581   0.00000  Uiso   1.00
C880   C     0.60738   0.78890   0.99574   0.00000  Uiso   1.00
C881   C     0.60784   0.82354   0.58717   0.00000  Uiso   1.00
C882   C     0.35736   0.87564   0.94589   0.00000  Uiso   1.00
C883   C     0.37654   0.87828   0.50300   0.00000  Uiso   1.00
C884   C     0.43137   0.86182   0.52724   0.00000  Uiso   1.00
H885   H     0.66529   0.76658   0.56840   0.00000  Uiso   1.00
H886   H     0.60223   0.99704   0.75654   0.00000  Uiso   1.00
H887   H     0.49018   0.78575   0.71757   0.00000  Uiso   1.00
H888   H     0.50970   0.88359   0.77531   0.00000  Uiso   1.00
H889   H     0.57055   0.81901   0.89316   0.00000  Uiso   1.00
H890   H     0.62857   0.76815   0.96798   0.00000  Uiso   1.00
H891   H     0.54362   0.87706   0.59338   0.00000  Uiso   1.00
H892   H     0.64640   0.88382   0.92796   0.00000  Uiso   1.00
H893   H     0.34641   0.88795   0.52810   0.00000  Uiso   1.00
H894   H     0.39808   0.66965   0.74430   0.00000  Uiso   1.00
N895   N     0.47827   0.81890   0.73542   0.00000  Uiso   1.00
N896   N     0.52173   0.84777   0.76457   0.00000  Uiso   1.00
O897   O     0.63102   0.91296   0.75357   0.00000  Uiso   1.00
O898   O     0.39075   0.90371   0.74423   0.00000  Uiso   1.00
O899   O     0.64823   0.84024   0.83380   0.00000  Uiso   1.00
O900   O     0.40796   0.83099   0.82446   0.00000  Uiso   1.00
O901   O     0.60925   0.76296   0.75576   0.00000  Uiso   1.00
O902   O     0.36898   0.75371   0.74643   0.00000  Uiso   1.00
O903   O     0.59204   0.83567   0.67554   0.00000  Uiso   1.00
O904   O     0.35177   0.82642   0.66620   0.00000  Uiso   1.00
Zn905  Zn    0.60453   0.83951   0.75623   0.00000  Uiso   1.00
Zn906  Zn    0.39547   0.82716   0.74376   0.00000  Uiso   1.00
N907   N     0.44272   0.84891   0.58345   0.00000  Uiso   1.00
H908   H     0.41857   0.86721   0.60722   0.00000  Uiso   1.00
C909   C     0.44888   0.79399   0.59337   0.00000  Uiso   1.00
H910   H     0.49432   0.78825   0.61442   0.00000  Uiso   1.00
H911   H     0.43687   0.76871   0.55457   0.00000  Uiso   1.00
H912   H     0.42141   0.78057   0.62136   0.00000  Uiso   1.00
N913   N     0.50292   0.89978   0.86854   0.00000  Uiso   1.00
H914   H     0.54477   0.90534   0.86263   0.00000  Uiso   1.00
C915   C     0.47924   0.94933   0.87699   0.00000  Uiso   1.00
H916   H     0.43099   0.94469   0.86909   0.00000  Uiso   1.00
H917   H     0.49062   0.97710   0.84749   0.00000  Uiso   1.00
H918   H     0.49785   0.96624   0.91955   0.00000  Uiso   1.00
C919   C     0.68141   0.93145   0.74872   0.00000  Uiso   1.00
C920   C     0.80530   0.85439   0.99361   0.00000  Uiso   1.00
C921   C     0.78750   0.85928   0.93669   0.00000  Uiso   1.00
C922   C     0.86225   0.83940   0.51297   0.00000  Uiso   1.00
C923   C     0.89183   0.81627   0.97578   0.00000  Uiso   1.00
C924   C     0.87603   0.82765   0.92086   0.00000  Uiso   1.00
C925   C     0.83078   0.86006   0.90570   0.00000  Uiso   1.00
C926   C     0.89222   0.84960   0.56673   0.00000  Uiso   1.00
C927   C     0.96344   0.79019   0.55236   0.00000  Uiso   1.00
C928   C     0.72779   0.86032   0.91256   0.00000  Uiso   1.00
C929   C     0.68916   0.98603   0.74824   0.00000  Uiso   1.00
C930   C     0.70449   0.84330   0.85403   0.00000  Uiso   1.00
C931   C     0.97778   0.68067   0.75249   0.00000  Uiso   1.00
C932   C     0.98534   0.73523   0.75152   0.00000  Uiso   1.00
C933   C     0.96310   0.82825   0.64581   0.00000  Uiso   1.00
C934   C     0.94072   0.78890   0.99574   0.00000  Uiso   1.00
C935   C     0.94117   0.82354   0.58717   0.00000  Uiso   1.00
C936   C     0.69069   0.87564   0.94589   0.00000  Uiso   1.00
C937   C     0.70988   0.87828   0.50300   0.00000  Uiso   1.00
C938   C     0.76471   0.86182   0.52724   0.00000  Uiso   1.00
H939   H     0.99863   0.76658   0.56840   0.00000  Uiso   1.00
H940   H     0.93556   0.99704   0.75654   0.00000  Uiso   1.00
H941   H     0.82351   0.78575   0.71757   0.00000  Uiso   1.00
H942   H     0.84304   0.88359   0.77531   0.00000  Uiso   1.00
H943   H     0.90389   0.81901   0.89316   0.00000  Uiso   1.00
H944   H     0.96190   0.76815   0.96798   0.00000  Uiso   1.00
H945   H     0.87695   0.87706   0.59338   0.00000  Uiso   1.00
H946   H     0.97974   0.88382   0.92796   0.00000  Uiso   1.00
H947   H     0.67974   0.88795   0.52810   0.00000  Uiso   1.00
H948   H     0.73141   0.66965   0.74430   0.00000  Uiso   1.00
N949   N     0.81160   0.81890   0.73542   0.00000  Uiso   1.00
N950   N     0.85507   0.84777   0.76457   0.00000  Uiso   1.00
O951   O     0.96435   0.91296   0.75357   0.00000  Uiso   1.00
O952   O     0.72408   0.90371   0.74423   0.00000  Uiso   1.00
O953   O     0.98157   0.84024   0.83380   0.00000  Uiso   1.00
O954   O     0.74130   0.83099   0.82446   0.00000  Uiso   1.00
O955   O     0.94258   0.76296   0.75576   0.00000  Uiso   1.00
O956   O     0.70231   0.75371   0.74643   0.00000  Uiso   1.00
O957   O     0.92537   0.83567   0.67554   0.00000  Uiso   1.00
O958   O     0.68510   0.82642   0.66620   0.00000  Uiso   1.00
Zn959  Zn    0.93786   0.83951   0.75623   0.00000  Uiso   1.00
Zn960  Zn    0.72881   0.82716   0.74376   0.00000  Uiso   1.00
N961   N     0.77606   0.84891   0.58345   0.00000  Uiso   1.00
H962   H     0.75190   0.86721   0.60722   0.00000  Uiso   1.00
C963   C     0.78222   0.79399   0.59337   0.00000  Uiso   1.00
H964   H     0.82765   0.78825   0.61442   0.00000  Uiso   1.00
H965   H     0.77021   0.76871   0.55457   0.00000  Uiso   1.00
H966   H     0.75474   0.78057   0.62136   0.00000  Uiso   1.00
N967   N     0.83626   0.89978   0.86854   0.00000  Uiso   1.00
H968   H     0.87811   0.90534   0.86263   0.00000  Uiso   1.00
C969   C     0.81257   0.94933   0.87699   0.00000  Uiso   1.00
H970   H     0.76433   0.94469   0.86909   0.00000  Uiso   1.00
H971   H     0.82396   0.97710   0.84749   0.00000  Uiso   1.00
H972   H     0.83118   0.96624   0.91955   0.00000  Uiso   1.00
loop_
_geom_bond_atom_site_label_1
_geom_bond_atom_site_label_2
_geom_bond_distance
_geom_bond_site_symmetry_2
_ccdc_geom_bond_type
C1     O34     1.294   .     A
C1     C11     1.404   .     S
C1     O141    1.284   1_455 S
C2     C3      1.403   .     A
C2     C490    1.408   .     S
C2     C506    1.426   .     S
C3     C10     1.405   .     A
C3     C7      1.413   .     A
C4     C8      1.375   .     A
C4     C488    1.408   1_554 S
C4     C491    1.415   1_554 S
C5     C6      1.388   .     A
C5     C16     1.399   .     A
C5     C490    1.415   .     S
C6     C7      1.394   .     A
C6     H25     1.082   .     S
C7     N49     1.429   .     S
C8     C17     1.383   .     A
C8     H27     1.082   .     S
C9     H21     1.076   .     S
C9     C17     1.402   .     A
C9     C502    1.394   1_554 S
C10    C12     1.477   .     S
C10    C18     1.400   .     A
C11    C283    1.337   1_455 S
C11    H192    1.088   .     S
C12    O36     1.306   .     A
C12    O143    1.306   1_455 S
C13    C14     1.404   .     S
C13    C389    1.337   1_545 S
C13    H346    1.088   1_545 S
C14    O37     1.294   .     A
C14    O92     1.284   .     S
C15    O39     1.299   .     A
C15    C17     1.437   .     S
C15    O94     1.295   .     S
C16    H26     1.084   .     S
C16    C495    1.394   .     S
C18    C505    1.394   .     S
C18    H136    1.079   1_455 S
C19    H29     1.082   .     S
C19    C20     1.401   .     A
C19    C504    1.394   1_554 S
C20    N43     1.428   .     S
C20    C488    1.426   1_554 S
H22    C175    1.088   .     S
H23    N31     1.029   .     S
H24    N32     1.024   .     S
H28    C72     1.079   .     S
H30    C335    1.088   1_545 S
N31    Zn42    2.035   .     S
N31    N32     1.283   .     D
N32    Zn41    2.035   .     S
O33    Zn41    1.957   .     S
O33    C55     1.284   .     S
O34    Zn42    1.978   .     S
O35    Zn41    1.979   .     S
O35    C66     1.306   .     S
O36    Zn42    1.968   .     S
O37    Zn41    1.978   .     S
O38    Zn42    1.957   .     S
O38    C122    1.284   1_455 S
O39    Zn41    1.968   .     S
O40    Zn42    1.979   .     S
O40    C123    1.295   1_455 S
N43    C45     1.455   .     S
N43    H44     1.031   .     S
C45    H47     1.113   .     S
C45    H48     1.106   .     S
C45    H46     1.106   .     S
N49    H50     1.032   .     S
N49    C51     1.450   .     S
C51    H54     1.112   .     S
C51    H53     1.111   .     S
C51    H52     1.108   .     S
C55    O88     1.294   .     A
C55    C65     1.404   .     S
C56    C57     1.403   .     A
C56    C544    1.408   .     S
C56    C560    1.426   .     S
C57    C64     1.405   .     A
C57    C61     1.413   .     A
C58    C62     1.375   .     A
C58    C542    1.408   1_554 S
C58    C545    1.415   1_554 S
C59    C60     1.388   .     A
C59    C70     1.399   .     A
C59    C544    1.415   .     S
C60    C61     1.394   .     A
C60    H79     1.082   .     S
C61    N103    1.429   .     S
C62    C71     1.383   .     A
C62    H81     1.082   .     S
C63    H75     1.076   .     S
C63    C71     1.402   .     A
C63    C556    1.394   1_554 S
C64    C66     1.477   .     S
C64    C72     1.400   .     A
C65    C175    1.337   .     S
C65    H246    1.088   .     S
C66    O90     1.306   .     A
C67    C68     1.404   .     S
C67    C443    1.337   1_545 S
C67    H400    1.088   1_545 S
C68    O91     1.294   .     A
C68    O146    1.284   .     S
C69    O93     1.299   .     A
C69    C71     1.437   .     S
C69    O148    1.295   .     S
C70    H80     1.084   .     S
C70    C549    1.394   .     S
C72    C559    1.394   .     S
C73    H83     1.082   .     S
C73    C74     1.401   .     A
C73    C558    1.394   1_554 S
C74    N97     1.428   .     S
C74    C542    1.426   1_554 S
H76    C229    1.088   .     S
H77    N85     1.029   .     S
H78    N86     1.024   .     S
H82    C126    1.079   .     S
H84    C389    1.088   1_545 S
N85    Zn96    2.035   .     S
N85    N86     1.283   .     D
N86    Zn95    2.035   .     S
O87    Zn95    1.957   .     S
O87    C109    1.284   .     S
O88    Zn96    1.978   .     S
O89    Zn95    1.979   .     S
O89    C120    1.306   .     S
O90    Zn96    1.968   .     S
O91    Zn95    1.978   .     S
O92    Zn96    1.957   .     S
O93    Zn95    1.968   .     S
O94    Zn96    1.979   .     S
N97    C99     1.455   .     S
N97    H98     1.031   .     S
C99    H101    1.113   .     S
C99    H102    1.106   .     S
C99    H100    1.106   .     S
N103   H104    1.032   .     S
N103   C105    1.450   .     S
C105   H108    1.112   .     S
C105   H107    1.111   .     S
C105   H106    1.108   .     S
C109   O142    1.294   .     A
C109   C119    1.404   .     S
C110   C111    1.403   .     A
C110   C598    1.408   .     S
C110   C614    1.426   .     S
C111   C118    1.405   .     A
C111   C115    1.413   .     A
C112   C116    1.375   .     A
C112   C596    1.408   1_554 S
C112   C599    1.415   1_554 S
C113   C114    1.388   .     A
C113   C124    1.399   .     A
C113   C598    1.415   .     S
C114   C115    1.394   .     A
C114   H133    1.082   .     S
C115   N157    1.429   .     S
C116   C125    1.383   .     A
C116   H135    1.082   .     S
C117   H129    1.076   .     S
C117   C125    1.402   .     A
C117   C610    1.394   1_554 S
C118   C120    1.477   .     S
C118   C126    1.400   .     A
C119   C229    1.337   .     S
C119   H300    1.088   .     S
C120   O144    1.306   .     A
C121   C122    1.404   .     S
C121   C335    1.337   1_645 S
C121   H454    1.088   1_545 S
C122   O145    1.294   .     A
C122   O38     1.284   1_655 S
C123   O147    1.299   .     A
C123   C125    1.437   .     S
C123   O40     1.295   1_655 S
C124   H134    1.084   .     S
C124   C603    1.394   .     S
C126   C613    1.394   .     S
C127   H137    1.082   .     S
C127   C128    1.401   .     A
C127   C612    1.394   1_554 S
C128   N151    1.428   .     S
C128   C596    1.426   1_554 S
H130   C283    1.088   .     S
H131   N139    1.029   .     S
H132   N140    1.024   .     S
H136   C18     1.079   1_655 S
H138   C443    1.088   1_545 S
N139   Zn150   2.035   .     S
N139   N140    1.283   .     D
N140   Zn149   2.035   .     S
O141   Zn149   1.957   .     S
O141   C1      1.284   1_655 S
O142   Zn150   1.978   .     S
O143   Zn149   1.979   .     S
O143   C12     1.306   1_655 S
O144   Zn150   1.968   .     S
O145   Zn149   1.978   .     S
O146   Zn150   1.957   .     S
O147   Zn149   1.968   .     S
O148   Zn150   1.979   .     S
N151   C153    1.455   .     S
N151   H152    1.031   .     S
C153   H155    1.113   .     S
C153   H156    1.106   .     S
C153   H154    1.106   .     S
N157   H158    1.032   .     S
N157   C159    1.450   .     S
C159   H162    1.112   .     S
C159   H161    1.111   .     S
C159   H160    1.108   .     S
C163   O196    1.294   .     A
C163   C173    1.404   .     S
C163   O303    1.284   1_455 S
C164   C165    1.403   .     A
C164   C652    1.408   .     S
C164   C668    1.426   .     S
C165   C172    1.405   .     A
C165   C169    1.413   .     A
C166   C170    1.375   .     A
C166   C650    1.408   1_554 S
C166   C653    1.415   1_554 S
C167   C168    1.388   .     A
C167   C178    1.399   .     A
C167   C652    1.415   .     S
C168   C169    1.394   .     A
C168   H187    1.082   .     S
C169   N211    1.429   .     S
C170   C179    1.383   .     A
C170   H189    1.082   .     S
C171   H183    1.076   .     S
C171   C179    1.402   .     A
C171   C664    1.394   1_554 S
C172   C174    1.477   .     S
C172   C180    1.400   .     A
C173   C445    1.337   1_455 S
C173   H354    1.088   .     S
C174   O198    1.306   .     A
C174   O305    1.306   1_455 S
C175   C176    1.404   .     S
C176   O199    1.294   .     A
C176   O254    1.284   .     S
C177   O201    1.299   .     A
C177   C179    1.437   .     S
C177   O256    1.295   .     S
C178   H188    1.084   .     S
C178   C657    1.394   .     S
C180   C667    1.394   .     S
C180   H298    1.079   1_455 S
C181   H191    1.082   .     S
C181   C182    1.401   .     A
C181   C666    1.394   1_554 S
C182   N205    1.428   .     S
C182   C650    1.426   1_554 S
H184   C337    1.088   .     S
H185   N193    1.029   .     S
H186   N194    1.024   .     S
H190   C234    1.079   .     S
N193   Zn204   2.035   .     S
N193   N194    1.283   .     D
N194   Zn203   2.035   .     S
O195   Zn203   1.957   .     S
O195   C217    1.284   .     S
O196   Zn204   1.978   .     S
O197   Zn203   1.979   .     S
O197   C228    1.306   .     S
O198   Zn204   1.968   .     S
O199   Zn203   1.978   .     S
O200   Zn204   1.957   .     S
O200   C284    1.284   1_455 S
O201   Zn203   1.968   .     S
O202   Zn204   1.979   .     S
O202   C285    1.295   1_455 S
N205   C207    1.455   .     S
N205   H206    1.031   .     S
C207   H209    1.113   .     S
C207   H210    1.106   .     S
C207   H208    1.106   .     S
N211   H212    1.032   .     S
N211   C213    1.450   .     S
C213   H216    1.112   .     S
C213   H215    1.111   .     S
C213   H214    1.108   .     S
C217   O250    1.294   .     A
C217   C227    1.404   .     S
C218   C219    1.403   .     A
C218   C706    1.408   .     S
C218   C722    1.426   .     S
C219   C226    1.405   .     A
C219   C223    1.413   .     A
C220   C224    1.375   .     A
C220   C704    1.408   1_554 S
C220   C707    1.415   1_554 S
C221   C222    1.388   .     A
C221   C232    1.399   .     A
C221   C706    1.415   .     S
C222   C223    1.394   .     A
C222   H241    1.082   .     S
C223   N265    1.429   .     S
C224   C233    1.383   .     A
C224   H243    1.082   .     S
C225   H237    1.076   .     S
C225   C233    1.402   .     A
C225   C718    1.394   1_554 S
C226   C228    1.477   .     S
C226   C234    1.400   .     A
C227   C337    1.337   .     S
C227   H408    1.088   .     S
C228   O252    1.306   .     A
C229   C230    1.404   .     S
C230   O253    1.294   .     A
C230   O308    1.284   .     S
C231   O255    1.299   .     A
C231   C233    1.437   .     S
C231   O310    1.295   .     S
C232   H242    1.084   .     S
C232   C711    1.394   .     S
C234   C721    1.394   .     S
C235   H245    1.082   .     S
C235   C236    1.401   .     A
C235   C720    1.394   1_554 S
C236   N259    1.428   .     S
C236   C704    1.426   1_554 S
H238   C391    1.088   .     S
H239   N247    1.029   .     S
H240   N248    1.024   .     S
H244   C288    1.079   .     S
N247   Zn258   2.035   .     S
N247   N248    1.283   .     D
N248   Zn257   2.035   .     S
O249   Zn257   1.957   .     S
O249   C271    1.284   .     S
O250   Zn258   1.978   .     S
O251   Zn257   1.979   .     S
O251   C282    1.306   .     S
O252   Zn258   1.968   .     S
O253   Zn257   1.978   .     S
O254   Zn258   1.957   .     S
O255   Zn257   1.968   .     S
O256   Zn258   1.979   .     S
N259   C261    1.455   .     S
N259   H260    1.031   .     S
C261   H263    1.113   .     S
C261   H264    1.106   .     S
C261   H262    1.106   .     S
N265   H266    1.032   .     S
N265   C267    1.450   .     S
C267   H270    1.112   .     S
C267   H269    1.111   .     S
C267   H268    1.108   .     S
C271   O304    1.294   .     A
C271   C281    1.404   .     S
C272   C273    1.403   .     A
C272   C760    1.408   .     S
C272   C776    1.426   .     S
C273   C280    1.405   .     A
C273   C277    1.413   .     A
C274   C278    1.375   .     A
C274   C758    1.408   1_554 S
C274   C761    1.415   1_554 S
C275   C276    1.388   .     A
C275   C286    1.399   .     A
C275   C760    1.415   .     S
C276   C277    1.394   .     A
C276   H295    1.082   .     S
C277   N319    1.429   .     S
C278   C287    1.383   .     A
C278   H297    1.082   .     S
C279   H291    1.076   .     S
C279   C287    1.402   .     A
C279   C772    1.394   1_554 S
C280   C282    1.477   .     S
C280   C288    1.400   .     A
C281   C391    1.337   .     S
C281   H462    1.088   .     S
C282   O306    1.306   .     A
C283   C284    1.404   .     S
C283   C11     1.337   1_655 S
C284   O307    1.294   .     A
C284   O200    1.284   1_655 S
C285   O309    1.299   .     A
C285   C287    1.437   .     S
C285   O202    1.295   1_655 S
C286   H296    1.084   .     S
C286   C765    1.394   .     S
C288   C775    1.394   .     S
C289   H299    1.082   .     S
C289   C290    1.401   .     A
C289   C774    1.394   1_554 S
C290   N313    1.428   .     S
C290   C758    1.426   1_554 S
H292   C445    1.088   .     S
H293   N301    1.029   .     S
H294   N302    1.024   .     S
H298   C180    1.079   1_655 S
N301   Zn312   2.035   .     S
N301   N302    1.283   .     D
N302   Zn311   2.035   .     S
O303   Zn311   1.957   .     S
O303   C163    1.284   1_655 S
O304   Zn312   1.978   .     S
O305   Zn311   1.979   .     S
O305   C174    1.306   1_655 S
O306   Zn312   1.968   .     S
O307   Zn311   1.978   .     S
O308   Zn312   1.957   .     S
O309   Zn311   1.968   .     S
O310   Zn312   1.979   .     S
N313   C315    1.455   .     S
N313   H314    1.031   .     S
C315   H317    1.113   .     S
C315   H318    1.106   .     S
C315   H316    1.106   .     S
N319   H320    1.032   .     S
N319   C321    1.450   .     S
C321   H324    1.112   .     S
C321   H323    1.111   .     S
C321   H322    1.108   .     S
C325   O358    1.294   .     A
C325   C335    1.404   .     S
C325   O465    1.284   1_455 S
C326   C327    1.403   .     A
C326   C814    1.408   .     S
C326   C830    1.426   .     S
C327   C334    1.405   .     A
C327   C331    1.413   .     A
C328   C332    1.375   .     A
C328   C812    1.408   1_554 S
C328   C815    1.415   1_554 S
C329   C330    1.388   .     A
C329   C340    1.399   .     A
C329   C814    1.415   .     S
C330   C331    1.394   .     A
C330   H349    1.082   .     S
C331   N373    1.429   .     S
C332   C341    1.383   .     A
C332   H351    1.082   .     S
C333   H345    1.076   .     S
C333   C341    1.402   .     A
C333   C826    1.394   1_554 S
C334   C336    1.477   .     S
C334   C342    1.400   .     A
C335   C121    1.337   1_465 S
C335   H30     1.088   1_565 S
C336   O360    1.306   .     A
C336   O467    1.306   1_455 S
C337   C338    1.404   .     S
C338   O361    1.294   .     A
C338   O416    1.284   .     S
C339   O363    1.299   .     A
C339   C341    1.437   .     S
C339   O418    1.295   .     S
C340   H350    1.084   .     S
C340   C819    1.394   .     S
C342   C829    1.394   .     S
C342   H460    1.079   1_455 S
C343   H353    1.082   .     S
C343   C344    1.401   .     A
C343   C828    1.394   1_554 S
C344   N367    1.428   .     S
C344   C812    1.426   1_554 S
H346   C13     1.088   1_565 S
H347   N355    1.029   .     S
H348   N356    1.024   .     S
H352   C396    1.079   .     S
N355   Zn366   2.035   .     S
N355   N356    1.283   .     D
N356   Zn365   2.035   .     S
O357   Zn365   1.957   .     S
O357   C379    1.284   .     S
O358   Zn366   1.978   .     S
O359   Zn365   1.979   .     S
O359   C390    1.306   .     S
O360   Zn366   1.968   .     S
O361   Zn365   1.978   .     S
O362   Zn366   1.957   .     S
O362   C446    1.284   1_455 S
O363   Zn365   1.968   .     S
O364   Zn366   1.979   .     S
O364   C447    1.295   1_455 S
N367   C369    1.455   .     S
N367   H368    1.031   .     S
C369   H371    1.113   .     S
C369   H372    1.106   .     S
C369   H370    1.106   .     S
N373   H374    1.032   .     S
N373   C375    1.450   .     S
C375   H378    1.112   .     S
C375   H377    1.111   .     S
C375   H376    1.108   .     S
C379   O412    1.294   .     A
C379   C389    1.404   .     S
C380   C381    1.403   .     A
C380   C868    1.408   .     S
C380   C884    1.426   .     S
C381   C388    1.405   .     A
C381   C385    1.413   .     A
C382   C386    1.375   .     A
C382   C866    1.408   1_554 S
C382   C869    1.415   1_554 S
C383   C384    1.388   .     A
C383   C394    1.399   .     A
C383   C868    1.415   .     S
C384   C385    1.394   .     A
C384   H403    1.082   .     S
C385   N427    1.429   .     S
C386   C395    1.383   .     A
C386   H405    1.082   .     S
C387   H399    1.076   .     S
C387   C395    1.402   .     A
C387   C880    1.394   1_554 S
C388   C390    1.477   .     S
C388   C396    1.400   .     A
C389   C13     1.337   1_565 S
C389   H84     1.088   1_565 S
C390   O414    1.306   .     A
C391   C392    1.404   .     S
C392   O415    1.294   .     A
C392   O470    1.284   .     S
C393   O417    1.299   .     A
C393   C395    1.437   .     S
C393   O472    1.295   .     S
C394   H404    1.084   .     S
C394   C873    1.394   .     S
C396   C883    1.394   .     S
C397   H407    1.082   .     S
C397   C398    1.401   .     A
C397   C882    1.394   1_554 S
C398   N421    1.428   .     S
C398   C866    1.426   1_554 S
H400   C67     1.088   1_565 S
H401   N409    1.029   .     S
H402   N410    1.024   .     S
H406   C450    1.079   .     S
N409   Zn420   2.035   .     S
N409   N410    1.283   .     D
N410   Zn419   2.035   .     S
O411   Zn419   1.957   .     S
O411   C433    1.284   .     S
O412   Zn420   1.978   .     S
O413   Zn419   1.979   .     S
O413   C444    1.306   .     S
O414   Zn420   1.968   .     S
O415   Zn419   1.978   .     S
O416   Zn420   1.957   .     S
O417   Zn419   1.968   .     S
O418   Zn420   1.979   .     S
N421   C423    1.455   .     S
N421   H422    1.031   .     S
C423   H425    1.113   .     S
C423   H426    1.106   .     S
C423   H424    1.106   .     S
N427   H428    1.032   .     S
N427   C429    1.450   .     S
C429   H432    1.112   .     S
C429   H431    1.111   .     S
C429   H430    1.108   .     S
C433   O466    1.294   .     A
C433   C443    1.404   .     S
C434   C435    1.403   .     A
C434   C922    1.408   .     S
C434   C938    1.426   .     S
C435   C442    1.405   .     A
C435   C439    1.413   .     A
C436   C440    1.375   .     A
C436   C920    1.408   1_554 S
C436   C923    1.415   1_554 S
C437   C438    1.388   .     A
C437   C448    1.399   .     A
C437   C922    1.415   .     S
C438   C439    1.394   .     A
C438   H457    1.082   .     S
C439   N481    1.429   .     S
C440   C449    1.383   .     A
C440   H459    1.082   .     S
C441   H453    1.076   .     S
C441   C449    1.402   .     A
C441   C934    1.394   1_554 S
C442   C444    1.477   .     S
C442   C450    1.400   .     A
C443   C67     1.337   1_565 S
C443   H138    1.088   1_565 S
C444   O468    1.306   .     A
C445   C446    1.404   .     S
C445   C173    1.337   1_655 S
C446   O469    1.294   .     A
C446   O362    1.284   1_655 S
C447   O471    1.299   .     A
C447   C449    1.437   .     S
C447   O364    1.295   1_655 S
C448   H458    1.084   .     S
C448   C927    1.394   .     S
C450   C937    1.394   .     S
C451   H461    1.082   .     S
C451   C452    1.401   .     A
C451   C936    1.394   1_554 S
C452   N475    1.428   .     S
C452   C920    1.426   1_554 S
H454   C121    1.088   1_565 S
H455   N463    1.029   .     S
H456   N464    1.024   .     S
H460   C342    1.079   1_655 S
N463   Zn474   2.035   .     S
N463   N464    1.283   .     D
N464   Zn473   2.035   .     S
O465   Zn473   1.957   .     S
O465   C325    1.284   1_655 S
O466   Zn474   1.978   .     S
O467   Zn473   1.979   .     S
O467   C336    1.306   1_655 S
O468   Zn474   1.968   .     S
O469   Zn473   1.978   .     S
O470   Zn474   1.957   .     S
O471   Zn473   1.968   .     S
O472   Zn474   1.979   .     S
N475   C477    1.455   .     S
N475   H476    1.031   .     S
C477   H479    1.113   .     S
C477   H480    1.106   .     S
C477   H478    1.106   .     S
N481   H482    1.032   .     S
N481   C483    1.450   .     S
C483   H486    1.112   .     S
C483   H485    1.111   .     S
C483   H484    1.108   .     S
C487   O520    1.294   .     A
C487   C497    1.404   .     S
C487   O627    1.284   1_455 S
C488   C489    1.403   .     A
C488   C4      1.408   1_556 S
C488   C20     1.426   1_556 S
C489   C496    1.405   .     A
C489   C493    1.413   .     A
C490   C494    1.375   .     A
C491   C492    1.388   .     A
C491   C502    1.399   .     A
C491   C4      1.415   1_556 S
C492   C493    1.394   .     A
C492   H511    1.082   .     S
C493   N535    1.429   .     S
C494   C503    1.383   .     A
C494   H513    1.082   .     S
C495   H507    1.076   .     S
C495   C503    1.402   .     A
C496   C498    1.477   .     S
C496   C504    1.400   .     A
C497   C769    1.337   1_455 S
C497   H678    1.088   .     S
C498   O522    1.306   .     A
C498   O629    1.306   1_455 S
C499   C500    1.404   .     S
C499   C875    1.337   1_545 S
C499   H832    1.088   1_545 S
C500   O523    1.294   .     A
C500   O578    1.284   .     S
C501   O525    1.299   .     A
C501   C503    1.437   .     S
C501   O580    1.295   .     S
C502   H512    1.084   .     S
C502   C9      1.394   1_556 S
C504   C19     1.394   1_556 S
C504   H622    1.079   1_455 S
C505   H515    1.082   .     S
C505   C506    1.401   .     A
C506   N529    1.428   .     S
H508   C661    1.088   .     S
H509   N517    1.029   .     S
H510   N518    1.024   .     S
H514   C558    1.079   .     S
H516   C821    1.088   1_545 S
N517   Zn528   2.035   .     S
N517   N518    1.283   .     D
N518   Zn527   2.035   .     S
O519   Zn527   1.957   .     S
O519   C541    1.284   .     S
O520   Zn528   1.978   .     S
O521   Zn527   1.979   .     S
O521   C552    1.306   .     S
O522   Zn528   1.968   .     S
O523   Zn527   1.978   .     S
O524   Zn528   1.957   .     S
O524   C608    1.284   1_455 S
O525   Zn527   1.968   .     S
O526   Zn528   1.979   .     S
O526   C609    1.295   1_455 S
N529   C531    1.455   .     S
N529   H530    1.031   .     S
C531   H533    1.113   .     S
C531   H534    1.106   .     S
C531   H532    1.106   .     S
N535   H536    1.032   .     S
N535   C537    1.450   .     S
C537   H540    1.112   .     S
C537   H539    1.111   .     S
C537   H538    1.108   .     S
C541   O574    1.294   .     A
C541   C551    1.404   .     S
C542   C543    1.403   .     A
C542   C58     1.408   1_556 S
C542   C74     1.426   1_556 S
C543   C550    1.405   .     A
C543   C547    1.413   .     A
C544   C548    1.375   .     A
C545   C546    1.388   .     A
C545   C556    1.399   .     A
C545   C58     1.415   1_556 S
C546   C547    1.394   .     A
C546   H565    1.082   .     S
C547   N589    1.429   .     S
C548   C557    1.383   .     A
C548   H567    1.082   .     S
C549   H561    1.076   .     S
C549   C557    1.402   .     A
C550   C552    1.477   .     S
C550   C558    1.400   .     A
C551   C661    1.337   .     S
C551   H732    1.088   .     S
C552   O576    1.306   .     A
C553   C554    1.404   .     S
C553   C929    1.337   1_545 S
C553   H886    1.088   1_545 S
C554   O577    1.294   .     A
C554   O632    1.284   .     S
C555   O579    1.299   .     A
C555   C557    1.437   .     S
C555   O634    1.295   .     S
C556   H566    1.084   .     S
C556   C63     1.394   1_556 S
C558   C73     1.394   1_556 S
C559   H569    1.082   .     S
C559   C560    1.401   .     A
C560   N583    1.428   .     S
H562   C715    1.088   .     S
H563   N571    1.029   .     S
H564   N572    1.024   .     S
H568   C612    1.079   .     S
H570   C875    1.088   1_545 S
N571   Zn582   2.035   .     S
N571   N572    1.283   .     D
N572   Zn581   2.035   .     S
O573   Zn581   1.957   .     S
O573   C595    1.284   .     S
O574   Zn582   1.978   .     S
O575   Zn581   1.979   .     S
O575   C606    1.306   .     S
O576   Zn582   1.968   .     S
O577   Zn581   1.978   .     S
O578   Zn582   1.957   .     S
O579   Zn581   1.968   .     S
O580   Zn582   1.979   .     S
N583   C585    1.455   .     S
N583   H584    1.031   .     S
C585   H587    1.113   .     S
C585   H588    1.106   .     S
C585   H586    1.106   .     S
N589   H590    1.032   .     S
N589   C591    1.450   .     S
C591   H594    1.112   .     S
C591   H593    1.111   .     S
C591   H592    1.108   .     S
C595   O628    1.294   .     A
C595   C605    1.404   .     S
C596   C597    1.403   .     A
C596   C112    1.408   1_556 S
C596   C128    1.426   1_556 S
C597   C604    1.405   .     A
C597   C601    1.413   .     A
C598   C602    1.375   .     A
C599   C600    1.388   .     A
C599   C610    1.399   .     A
C599   C112    1.415   1_556 S
C600   C601    1.394   .     A
C600   H619    1.082   .     S
C601   N643    1.429   .     S
C602   C611    1.383   .     A
C602   H621    1.082   .     S
C603   H615    1.076   .     S
C603   C611    1.402   .     A
C604   C606    1.477   .     S
C604   C612    1.400   .     A
C605   C715    1.337   .     S
C605   H786    1.088   .     S
C606   O630    1.306   .     A
C607   C608    1.404   .     S
C607   C821    1.337   1_645 S
C607   H940    1.088   1_545 S
C608   O631    1.294   .     A
C608   O524    1.284   1_655 S
C609   O633    1.299   .     A
C609   C611    1.437   .     S
C609   O526    1.295   1_655 S
C610   H620    1.084   .     S
C610   C117    1.394   1_556 S
C612   C127    1.394   1_556 S
C613   H623    1.082   .     S
C613   C614    1.401   .     A
C614   N637    1.428   .     S
H616   C769    1.088   .     S
H617   N625    1.029   .     S
H618   N626    1.024   .     S
H622   C504    1.079   1_655 S
H624   C929    1.088   1_545 S
N625   Zn636   2.035   .     S
N625   N626    1.283   .     D
N626   Zn635   2.035   .     S
O627   Zn635   1.957   .     S
O627   C487    1.284   1_655 S
O628   Zn636   1.978   .     S
O629   Zn635   1.979   .     S
O629   C498    1.306   1_655 S
O630   Zn636   1.968   .     S
O631   Zn635   1.978   .     S
O632   Zn636   1.957   .     S
O633   Zn635   1.968   .     S
O634   Zn636   1.979   .     S
N637   C639    1.455   .     S
N637   H638    1.031   .     S
C639   H641    1.113   .     S
C639   H642    1.106   .     S
C639   H640    1.106   .     S
N643   H644    1.032   .     S
N643   C645    1.450   .     S
C645   H648    1.112   .     S
C645   H647    1.111   .     S
C645   H646    1.108   .     S
C649   O682    1.294   .     A
C649   C659    1.404   .     S
C649   O789    1.284   1_455 S
C650   C651    1.403   .     A
C650   C166    1.408   1_556 S
C650   C182    1.426   1_556 S
C651   C658    1.405   .     A
C651   C655    1.413   .     A
C652   C656    1.375   .     A
C653   C654    1.388   .     A
C653   C664    1.399   .     A
C653   C166    1.415   1_556 S
C654   C655    1.394   .     A
C654   H673    1.082   .     S
C655   N697    1.429   .     S
C656   C665    1.383   .     A
C656   H675    1.082   .     S
C657   H669    1.076   .     S
C657   C665    1.402   .     A
C658   C660    1.477   .     S
C658   C666    1.400   .     A
C659   C931    1.337   1_455 S
C659   H840    1.088   .     S
C660   O684    1.306   .     A
C660   O791    1.306   1_455 S
C661   C662    1.404   .     S
C662   O685    1.294   .     A
C662   O740    1.284   .     S
C663   O687    1.299   .     A
C663   C665    1.437   .     S
C663   O742    1.295   .     S
C664   H674    1.084   .     S
C664   C171    1.394   1_556 S
C666   C181    1.394   1_556 S
C666   H784    1.079   1_455 S
C667   H677    1.082   .     S
C667   C668    1.401   .     A
C668   N691    1.428   .     S
H670   C823    1.088   .     S
H671   N679    1.029   .     S
H672   N680    1.024   .     S
H676   C720    1.079   .     S
N679   Zn690   2.035   .     S
N679   N680    1.283   .     D
N680   Zn689   2.035   .     S
O681   Zn689   1.957   .     S
O681   C703    1.284   .     S
O682   Zn690   1.978   .     S
O683   Zn689   1.979   .     S
O683   C714    1.306   .     S
O684   Zn690   1.968   .     S
O685   Zn689   1.978   .     S
O686   Zn690   1.957   .     S
O686   C770    1.284   1_455 S
O687   Zn689   1.968   .     S
O688   Zn690   1.979   .     S
O688   C771    1.295   1_455 S
N691   C693    1.455   .     S
N691   H692    1.031   .     S
C693   H695    1.113   .     S
C693   H696    1.106   .     S
C693   H694    1.106   .     S
N697   H698    1.032   .     S
N697   C699    1.450   .     S
C699   H702    1.112   .     S
C699   H701    1.111   .     S
C699   H700    1.108   .     S
C703   O736    1.294   .     A
C703   C713    1.404   .     S
C704   C705    1.403   .     A
C704   C220    1.408   1_556 S
C704   C236    1.426   1_556 S
C705   C712    1.405   .     A
C705   C709    1.413   .     A
C706   C710    1.375   .     A
C707   C708    1.388   .     A
C707   C718    1.399   .     A
C707   C220    1.415   1_556 S
C708   C709    1.394   .     A
C708   H727    1.082   .     S
C709   N751    1.429   .     S
C710   C719    1.383   .     A
C710   H729    1.082   .     S
C711   H723    1.076   .     S
C711   C719    1.402   .     A
C712   C714    1.477   .     S
C712   C720    1.400   .     A
C713   C823    1.337   .     S
C713   H894    1.088   .     S
C714   O738    1.306   .     A
C715   C716    1.404   .     S
C716   O739    1.294   .     A
C716   O794    1.284   .     S
C717   O741    1.299   .     A
C717   C719    1.437   .     S
C717   O796    1.295   .     S
C718   H728    1.084   .     S
C718   C225    1.394   1_556 S
C720   C235    1.394   1_556 S
C721   H731    1.082   .     S
C721   C722    1.401   .     A
C722   N745    1.428   .     S
H724   C877    1.088   .     S
H725   N733    1.029   .     S
H726   N734    1.024   .     S
H730   C774    1.079   .     S
N733   Zn744   2.035   .     S
N733   N734    1.283   .     D
N734   Zn743   2.035   .     S
O735   Zn743   1.957   .     S
O735   C757    1.284   .     S
O736   Zn744   1.978   .     S
O737   Zn743   1.979   .     S
O737   C768    1.306   .     S
O738   Zn744   1.968   .     S
O739   Zn743   1.978   .     S
O740   Zn744   1.957   .     S
O741   Zn743   1.968   .     S
O742   Zn744   1.979   .     S
N745   C747    1.455   .     S
N745   H746    1.031   .     S
C747   H749    1.113   .     S
C747   H750    1.106   .     S
C747   H748    1.106   .     S
N751   H752    1.032   .     S
N751   C753    1.450   .     S
C753   H756    1.112   .     S
C753   H755    1.111   .     S
C753   H754    1.108   .     S
C757   O790    1.294   .     A
C757   C767    1.404   .     S
C758   C759    1.403   .     A
C758   C274    1.408   1_556 S
C758   C290    1.426   1_556 S
C759   C766    1.405   .     A
C759   C763    1.413   .     A
C760   C764    1.375   .     A
C761   C762    1.388   .     A
C761   C772    1.399   .     A
C761   C274    1.415   1_556 S
C762   C763    1.394   .     A
C762   H781    1.082   .     S
C763   N805    1.429   .     S
C764   C773    1.383   .     A
C764   H783    1.082   .     S
C765   H777    1.076   .     S
C765   C773    1.402   .     A
C766   C768    1.477   .     S
C766   C774    1.400   .     A
C767   C877    1.337   .     S
C767   H948    1.088   .     S
C768   O792    1.306   .     A
C769   C770    1.404   .     S
C769   C497    1.337   1_655 S
C770   O793    1.294   .     A
C770   O686    1.284   1_655 S
C771   O795    1.299   .     A
C771   C773    1.437   .     S
C771   O688    1.295   1_655 S
C772   H782    1.084   .     S
C772   C279    1.394   1_556 S
C774   C289    1.394   1_556 S
C775   H785    1.082   .     S
C775   C776    1.401   .     A
C776   N799    1.428   .     S
H778   C931    1.088   .     S
H779   N787    1.029   .     S
H780   N788    1.024   .     S
H784   C666    1.079   1_655 S
N787   Zn798   2.035   .     S
N787   N788    1.283   .     D
N788   Zn797   2.035   .     S
O789   Zn797   1.957   .     S
O789   C649    1.284   1_655 S
O790   Zn798   1.978   .     S
O791   Zn797   1.979   .     S
O791   C660    1.306   1_655 S
O792   Zn798   1.968   .     S
O793   Zn797   1.978   .     S
O794   Zn798   1.957   .     S
O795   Zn797   1.968   .     S
O796   Zn798   1.979   .     S
N799   C801    1.455   .     S
N799   H800    1.031   .     S
C801   H803    1.113   .     S
C801   H804    1.106   .     S
C801   H802    1.106   .     S
N805   H806    1.032   .     S
N805   C807    1.450   .     S
C807   H810    1.112   .     S
C807   H809    1.111   .     S
C807   H808    1.108   .     S
C811   O844    1.294   .     A
C811   C821    1.404   .     S
C811   O951    1.284   1_455 S
C812   C813    1.403   .     A
C812   C328    1.408   1_556 S
C812   C344    1.426   1_556 S
C813   C820    1.405   .     A
C813   C817    1.413   .     A
C814   C818    1.375   .     A
C815   C816    1.388   .     A
C815   C826    1.399   .     A
C815   C328    1.415   1_556 S
C816   C817    1.394   .     A
C816   H835    1.082   .     S
C817   N859    1.429   .     S
C818   C827    1.383   .     A
C818   H837    1.082   .     S
C819   H831    1.076   .     S
C819   C827    1.402   .     A
C820   C822    1.477   .     S
C820   C828    1.400   .     A
C821   C607    1.337   1_465 S
C821   H516    1.088   1_565 S
C822   O846    1.306   .     A
C822   O953    1.306   1_455 S
C823   C824    1.404   .     S
C824   O847    1.294   .     A
C824   O902    1.284   .     S
C825   O849    1.299   .     A
C825   C827    1.437   .     S
C825   O904    1.295   .     S
C826   H836    1.084   .     S
C826   C333    1.394   1_556 S
C828   C343    1.394   1_556 S
C828   H946    1.079   1_455 S
C829   H839    1.082   .     S
C829   C830    1.401   .     A
C830   N853    1.428   .     S
H832   C499    1.088   1_565 S
H833   N841    1.029   .     S
H834   N842    1.024   .     S
H838   C882    1.079   .     S
N841   Zn852   2.035   .     S
N841   N842    1.283   .     D
N842   Zn851   2.035   .     S
O843   Zn851   1.957   .     S
O843   C865    1.284   .     S
O844   Zn852   1.978   .     S
O845   Zn851   1.979   .     S
O845   C876    1.306   .     S
O846   Zn852   1.968   .     S
O847   Zn851   1.978   .     S
O848   Zn852   1.957   .     S
O848   C932    1.284   1_455 S
O849   Zn851   1.968   .     S
O850   Zn852   1.979   .     S
O850   C933    1.295   1_455 S
N853   C855    1.455   .     S
N853   H854    1.031   .     S
C855   H857    1.113   .     S
C855   H858    1.106   .     S
C855   H856    1.106   .     S
N859   H860    1.032   .     S
N859   C861    1.450   .     S
C861   H864    1.112   .     S
C861   H863    1.111   .     S
C861   H862    1.108   .     S
C865   O898    1.294   .     A
C865   C875    1.404   .     S
C866   C867    1.403   .     A
C866   C382    1.408   1_556 S
C866   C398    1.426   1_556 S
C867   C874    1.405   .     A
C867   C871    1.413   .     A
C868   C872    1.375   .     A
C869   C870    1.388   .     A
C869   C880    1.399   .     A
C869   C382    1.415   1_556 S
C870   C871    1.394   .     A
C870   H889    1.082   .     S
C871   N913    1.429   .     S
C872   C881    1.383   .     A
C872   H891    1.082   .     S
C873   H885    1.076   .     S
C873   C881    1.402   .     A
C874   C876    1.477   .     S
C874   C882    1.400   .     A
C875   C499    1.337   1_565 S
C875   H570    1.088   1_565 S
C876   O900    1.306   .     A
C877   C878    1.404   .     S
C878   O901    1.294   .     A
C878   O956    1.284   .     S
C879   O903    1.299   .     A
C879   C881    1.437   .     S
C879   O958    1.295   .     S
C880   H890    1.084   .     S
C880   C387    1.394   1_556 S
C882   C397    1.394   1_556 S
C883   H893    1.082   .     S
C883   C884    1.401   .     A
C884   N907    1.428   .     S
H886   C553    1.088   1_565 S
H887   N895    1.029   .     S
H888   N896    1.024   .     S
H892   C936    1.079   .     S
N895   Zn906   2.035   .     S
N895   N896    1.283   .     D
N896   Zn905   2.035   .     S
O897   Zn905   1.957   .     S
O897   C919    1.284   .     S
O898   Zn906   1.978   .     S
O899   Zn905   1.979   .     S
O899   C930    1.306   .     S
O900   Zn906   1.968   .     S
O901   Zn905   1.978   .     S
O902   Zn906   1.957   .     S
O903   Zn905   1.968   .     S
O904   Zn906   1.979   .     S
N907   C909    1.455   .     S
N907   H908    1.031   .     S
C909   H911    1.113   .     S
C909   H912    1.106   .     S
C909   H910    1.106   .     S
N913   H914    1.032   .     S
N913   C915    1.450   .     S
C915   H918    1.112   .     S
C915   H917    1.111   .     S
C915   H916    1.108   .     S
C919   O952    1.294   .     A
C919   C929    1.404   .     S
C920   C921    1.403   .     A
C920   C436    1.408   1_556 S
C920   C452    1.426   1_556 S
C921   C928    1.405   .     A
C921   C925    1.413   .     A
C922   C926    1.375   .     A
C923   C924    1.388   .     A
C923   C934    1.399   .     A
C923   C436    1.415   1_556 S
C924   C925    1.394   .     A
C924   H943    1.082   .     S
C925   N967    1.429   .     S
C926   C935    1.383   .     A
C926   H945    1.082   .     S
C927   H939    1.076   .     S
C927   C935    1.402   .     A
C928   C930    1.477   .     S
C928   C936    1.400   .     A
C929   C553    1.337   1_565 S
C929   H624    1.088   1_565 S
C930   O954    1.306   .     A
C931   C932    1.404   .     S
C931   C659    1.337   1_655 S
C932   O955    1.294   .     A
C932   O848    1.284   1_655 S
C933   O957    1.299   .     A
C933   C935    1.437   .     S
C933   O850    1.295   1_655 S
C934   H944    1.084   .     S
C934   C441    1.394   1_556 S
C936   C451    1.394   1_556 S
C937   H947    1.082   .     S
C937   C938    1.401   .     A
C938   N961    1.428   .     S
H940   C607    1.088   1_565 S
H941   N949    1.029   .     S
H942   N950    1.024   .     S
H946   C828    1.079   1_655 S
N949   Zn960   2.035   .     S
N949   N950    1.283   .     D
N950   Zn959   2.035   .     S
O951   Zn959   1.957   .     S
O951   C811    1.284   1_655 S
O952   Zn960   1.978   .     S
O953   Zn959   1.979   .     S
O953   C822    1.306   1_655 S
O954   Zn960   1.968   .     S
O955   Zn959   1.978   .     S
O956   Zn960   1.957   .     S
O957   Zn959   1.968   .     S
O958   Zn960   1.979   .     S
N961   C963    1.455   .     S
N961   H962    1.031   .     S
C963   H965    1.113   .     S
C963   H966    1.106   .     S
C963   H964    1.106   .     S
N967   H968    1.032   .     S
N967   C969    1.450   .     S
C969   H972    1.112   .     S
C969   H971    1.111   .     S
C969   H970    1.108   .     S
