data_str_m3_o2_o5_pcu_sym.91
_audit_creation_date              2020-01-03
_audit_creation_method            'Materials Studio'
_symmetry_space_group_name_H-M    'P1'
_symmetry_Int_Tables_number       1
_symmetry_cell_setting            triclinic
loop_
_symmetry_equiv_pos_as_xyz
  x,y,z
_cell_length_a                    29.9500
_cell_length_b                    28.7206
_cell_length_c                    26.6313
_cell_angle_alpha                 90.0832
_cell_angle_beta                  91.7656
_cell_angle_gamma                 90.2982
loop_
_atom_site_label
_atom_site_type_symbol
_atom_site_fract_x
_atom_site_fract_y
_atom_site_fract_z
_atom_site_U_iso_or_equiv
_atom_site_adp_type
_atom_site_occupancy
C1     C     0.16427   0.24979   0.16631   0.00000  Uiso   1.00
C2     C     0.22941   0.44774   0.12764   0.00000  Uiso   1.00
C3     C     0.24994   0.24998   0.07301   0.00000  Uiso   1.00
C4     C     0.25018   0.25002   0.26032   0.00000  Uiso   1.00
C5     C     0.24991   0.02656   0.16664   0.00000  Uiso   1.00
C6     C     0.24987   0.47361   0.16667   0.00000  Uiso   1.00
C7     C     0.25005   0.24998   0.02184   0.00000  Uiso   1.00
C8     C     0.25014   0.25005   0.31149   0.00000  Uiso   1.00
C9     C     0.04592   0.26651   0.12490   0.00000  Uiso   1.00
C10    C     0.45089   0.23808   0.12226   0.00000  Uiso   1.00
C11    C     0.45415   0.25790   0.21109   0.00000  Uiso   1.00
C12    C     0.33569   0.25002   0.16724   0.00000  Uiso   1.00
C13    C     0.04850   0.22940   0.20685   0.00000  Uiso   1.00
C14    C     0.09210   0.26566   0.12343   0.00000  Uiso   1.00
C15    C     0.40460   0.23946   0.12189   0.00000  Uiso   1.00
C16    C     0.40792   0.25742   0.21220   0.00000  Uiso   1.00
C17    C     0.09479   0.23054   0.20767   0.00000  Uiso   1.00
C18    C     0.11647   0.24890   0.16576   0.00000  Uiso   1.00
C19    C     0.38339   0.24967   0.16701   0.00000  Uiso   1.00
C20    C     0.02411   0.24802   0.16607   0.00000  Uiso   1.00
C21    C     0.47563   0.24807   0.16643   0.00000  Uiso   1.00
C22    C     0.17859   0.12502   0.11391   0.00000  Uiso   1.00
C23    C     0.21655   0.10133   0.14158   0.00000  Uiso   1.00
C24    C     0.29473   0.37529   0.24818   0.00000  Uiso   1.00
C25    C     0.32125   0.12570   0.21981   0.00000  Uiso   1.00
C26    C     0.20505   0.37452   0.08510   0.00000  Uiso   1.00
C27    C     0.11341   0.28127   0.07559   0.00000  Uiso   1.00
C28    C     0.37840   0.22992   0.07357   0.00000  Uiso   1.00
C29    C     0.38557   0.26361   0.26176   0.00000  Uiso   1.00
C30    C     0.12036   0.21275   0.25348   0.00000  Uiso   1.00
C31    C     0.27089   0.39884   0.20512   0.00000  Uiso   1.00
C32    C     0.28338   0.10167   0.19181   0.00000  Uiso   1.00
C33    C     0.22892   0.39845   0.12826   0.00000  Uiso   1.00
C34    C     0.21600   0.05205   0.14206   0.00000  Uiso   1.00
C35    C     0.27031   0.44810   0.20575   0.00000  Uiso   1.00
C36    C     0.28385   0.05241   0.19124   0.00000  Uiso   1.00
H37    H     0.02699   0.28121   0.09345   0.00000  Uiso   1.00
H38    H     0.16142   0.10096   0.08681   0.00000  Uiso   1.00
H39    H     0.15330   0.13617   0.14093   0.00000  Uiso   1.00
H40    H     0.31434   0.34599   0.23433   0.00000  Uiso   1.00
H41    H     0.31880   0.39919   0.26780   0.00000  Uiso   1.00
H42    H     0.27032   0.36378   0.27613   0.00000  Uiso   1.00
H43    H     0.30938   0.15536   0.24200   0.00000  Uiso   1.00
H44    H     0.33806   0.10185   0.24713   0.00000  Uiso   1.00
H45    H     0.34684   0.13685   0.19307   0.00000  Uiso   1.00
H46    H     0.18507   0.34512   0.09860   0.00000  Uiso   1.00
H47    H     0.18122   0.39826   0.06531   0.00000  Uiso   1.00
H48    H     0.46768   0.22903   0.08815   0.00000  Uiso   1.00
H49    H     0.22950   0.36314   0.05722   0.00000  Uiso   1.00
H50    H     0.10838   0.31926   0.07049   0.00000  Uiso   1.00
H51    H     0.14957   0.27356   0.07488   0.00000  Uiso   1.00
H52    H     0.09744   0.26272   0.04305   0.00000  Uiso   1.00
H53    H     0.35751   0.26054   0.06348   0.00000  Uiso   1.00
H54    H     0.40068   0.22283   0.04191   0.00000  Uiso   1.00
H55    H     0.35650   0.19901   0.07813   0.00000  Uiso   1.00
H56    H     0.36564   0.29583   0.26121   0.00000  Uiso   1.00
H57    H     0.36342   0.23336   0.26892   0.00000  Uiso   1.00
H58    H     0.41033   0.26632   0.29355   0.00000  Uiso   1.00
H59    H     0.47343   0.26593   0.24512   0.00000  Uiso   1.00
H60    H     0.14289   0.24050   0.26881   0.00000  Uiso   1.00
H61    H     0.09770   0.20215   0.28372   0.00000  Uiso   1.00
H62    H     0.14044   0.18194   0.24339   0.00000  Uiso   1.00
H63    H     0.03142   0.21398   0.23807   0.00000  Uiso   1.00
H64    H     0.18828   0.03379   0.12380   0.00000  Uiso   1.00
H65    H     0.28546   0.46633   0.23757   0.00000  Uiso   1.00
H66    H     0.31153   0.03444   0.20951   0.00000  Uiso   1.00
H67    H     0.21420   0.46571   0.09584   0.00000  Uiso   1.00
H68    H     0.19046   0.15465   0.09156   0.00000  Uiso   1.00
N69    N     0.25000   0.12624   0.16667   0.00000  Uiso   1.00
N70    N     0.25000   0.37377   0.16667   0.00000  Uiso   1.00
O71    O     0.18453   0.28974   0.16667   0.00000  Uiso   1.00
O72    O     0.31547   0.21026   0.16666   0.00000  Uiso   1.00
O73    O     0.31547   0.28974   0.16666   0.00000  Uiso   1.00
O74    O     0.18453   0.21026   0.16667   0.00000  Uiso   1.00
O75    O     0.25000   0.28973   0.09511   0.00000  Uiso   1.00
O76    O     0.25000   0.21027   0.23822   0.00000  Uiso   1.00
O77    O     0.25000   0.28973   0.23822   0.00000  Uiso   1.00
O78    O     0.25000   0.21027   0.09511   0.00000  Uiso   1.00
Zn79   Zn    0.25000   0.30307   0.16667   0.00000  Uiso   1.00
Zn80   Zn    0.25000   0.19693   0.16667   0.00000  Uiso   1.00
C81    C     0.66427   0.24979   0.16631   0.00000  Uiso   1.00
C82    C     0.72941   0.44774   0.12764   0.00000  Uiso   1.00
C83    C     0.74994   0.24998   0.07301   0.00000  Uiso   1.00
C84    C     0.75018   0.25002   0.26032   0.00000  Uiso   1.00
C85    C     0.74991   0.02656   0.16664   0.00000  Uiso   1.00
C86    C     0.74987   0.47361   0.16667   0.00000  Uiso   1.00
C87    C     0.75005   0.24998   0.02184   0.00000  Uiso   1.00
C88    C     0.75014   0.25005   0.31149   0.00000  Uiso   1.00
C89    C     0.54592   0.26651   0.12490   0.00000  Uiso   1.00
C90    C     0.95089   0.23808   0.12226   0.00000  Uiso   1.00
C91    C     0.95415   0.25790   0.21109   0.00000  Uiso   1.00
C92    C     0.83569   0.25002   0.16724   0.00000  Uiso   1.00
C93    C     0.54850   0.22940   0.20685   0.00000  Uiso   1.00
C94    C     0.59210   0.26566   0.12343   0.00000  Uiso   1.00
C95    C     0.90460   0.23946   0.12189   0.00000  Uiso   1.00
C96    C     0.90792   0.25742   0.21220   0.00000  Uiso   1.00
C97    C     0.59479   0.23054   0.20767   0.00000  Uiso   1.00
C98    C     0.61647   0.24890   0.16576   0.00000  Uiso   1.00
C99    C     0.88339   0.24967   0.16701   0.00000  Uiso   1.00
C100   C     0.52411   0.24802   0.16607   0.00000  Uiso   1.00
C101   C     0.97563   0.24807   0.16643   0.00000  Uiso   1.00
C102   C     0.67859   0.12502   0.11391   0.00000  Uiso   1.00
C103   C     0.71655   0.10133   0.14158   0.00000  Uiso   1.00
C104   C     0.79473   0.37529   0.24818   0.00000  Uiso   1.00
C105   C     0.82125   0.12570   0.21981   0.00000  Uiso   1.00
C106   C     0.70505   0.37452   0.08510   0.00000  Uiso   1.00
C107   C     0.61341   0.28127   0.07559   0.00000  Uiso   1.00
C108   C     0.87840   0.22992   0.07357   0.00000  Uiso   1.00
C109   C     0.88557   0.26361   0.26176   0.00000  Uiso   1.00
C110   C     0.62036   0.21275   0.25348   0.00000  Uiso   1.00
C111   C     0.77089   0.39884   0.20512   0.00000  Uiso   1.00
C112   C     0.78338   0.10167   0.19181   0.00000  Uiso   1.00
C113   C     0.72892   0.39845   0.12826   0.00000  Uiso   1.00
C114   C     0.71600   0.05205   0.14206   0.00000  Uiso   1.00
C115   C     0.77031   0.44810   0.20575   0.00000  Uiso   1.00
C116   C     0.78385   0.05241   0.19124   0.00000  Uiso   1.00
H117   H     0.52699   0.28121   0.09345   0.00000  Uiso   1.00
H118   H     0.66142   0.10096   0.08681   0.00000  Uiso   1.00
H119   H     0.65330   0.13617   0.14093   0.00000  Uiso   1.00
H120   H     0.81434   0.34599   0.23433   0.00000  Uiso   1.00
H121   H     0.81880   0.39919   0.26780   0.00000  Uiso   1.00
H122   H     0.77032   0.36378   0.27613   0.00000  Uiso   1.00
H123   H     0.80938   0.15536   0.24200   0.00000  Uiso   1.00
H124   H     0.83806   0.10185   0.24713   0.00000  Uiso   1.00
H125   H     0.84684   0.13685   0.19307   0.00000  Uiso   1.00
H126   H     0.68507   0.34512   0.09860   0.00000  Uiso   1.00
H127   H     0.68122   0.39826   0.06531   0.00000  Uiso   1.00
H128   H     0.96768   0.22903   0.08815   0.00000  Uiso   1.00
H129   H     0.72950   0.36314   0.05722   0.00000  Uiso   1.00
H130   H     0.60838   0.31926   0.07049   0.00000  Uiso   1.00
H131   H     0.64957   0.27356   0.07488   0.00000  Uiso   1.00
H132   H     0.59744   0.26272   0.04305   0.00000  Uiso   1.00
H133   H     0.85751   0.26054   0.06348   0.00000  Uiso   1.00
H134   H     0.90068   0.22283   0.04191   0.00000  Uiso   1.00
H135   H     0.85650   0.19901   0.07813   0.00000  Uiso   1.00
H136   H     0.86564   0.29583   0.26121   0.00000  Uiso   1.00
H137   H     0.86342   0.23336   0.26892   0.00000  Uiso   1.00
H138   H     0.91033   0.26632   0.29355   0.00000  Uiso   1.00
H139   H     0.97343   0.26593   0.24512   0.00000  Uiso   1.00
H140   H     0.64289   0.24050   0.26881   0.00000  Uiso   1.00
H141   H     0.59770   0.20215   0.28372   0.00000  Uiso   1.00
H142   H     0.64044   0.18194   0.24339   0.00000  Uiso   1.00
H143   H     0.53142   0.21398   0.23807   0.00000  Uiso   1.00
H144   H     0.68828   0.03379   0.12380   0.00000  Uiso   1.00
H145   H     0.78546   0.46633   0.23757   0.00000  Uiso   1.00
H146   H     0.81153   0.03444   0.20951   0.00000  Uiso   1.00
H147   H     0.71420   0.46571   0.09584   0.00000  Uiso   1.00
H148   H     0.69046   0.15465   0.09156   0.00000  Uiso   1.00
N149   N     0.75000   0.12624   0.16667   0.00000  Uiso   1.00
N150   N     0.75000   0.37377   0.16667   0.00000  Uiso   1.00
O151   O     0.68453   0.28974   0.16667   0.00000  Uiso   1.00
O152   O     0.81547   0.21026   0.16666   0.00000  Uiso   1.00
O153   O     0.81547   0.28974   0.16666   0.00000  Uiso   1.00
O154   O     0.68453   0.21026   0.16667   0.00000  Uiso   1.00
O155   O     0.75000   0.28973   0.09511   0.00000  Uiso   1.00
O156   O     0.75000   0.21027   0.23822   0.00000  Uiso   1.00
O157   O     0.75000   0.28973   0.23822   0.00000  Uiso   1.00
O158   O     0.75000   0.21027   0.09511   0.00000  Uiso   1.00
Zn159  Zn    0.75000   0.30307   0.16667   0.00000  Uiso   1.00
Zn160  Zn    0.75000   0.19693   0.16667   0.00000  Uiso   1.00
C161   C     0.16427   0.74979   0.16631   0.00000  Uiso   1.00
C162   C     0.22941   0.94774   0.12764   0.00000  Uiso   1.00
C163   C     0.24994   0.74998   0.07301   0.00000  Uiso   1.00
C164   C     0.25018   0.75002   0.26032   0.00000  Uiso   1.00
C165   C     0.24991   0.52656   0.16664   0.00000  Uiso   1.00
C166   C     0.24987   0.97361   0.16667   0.00000  Uiso   1.00
C167   C     0.25005   0.74998   0.02184   0.00000  Uiso   1.00
C168   C     0.25014   0.75005   0.31149   0.00000  Uiso   1.00
C169   C     0.04592   0.76651   0.12490   0.00000  Uiso   1.00
C170   C     0.45089   0.73808   0.12226   0.00000  Uiso   1.00
C171   C     0.45415   0.75790   0.21109   0.00000  Uiso   1.00
C172   C     0.33569   0.75002   0.16724   0.00000  Uiso   1.00
C173   C     0.04850   0.72940   0.20685   0.00000  Uiso   1.00
C174   C     0.09210   0.76566   0.12343   0.00000  Uiso   1.00
C175   C     0.40460   0.73946   0.12189   0.00000  Uiso   1.00
C176   C     0.40792   0.75742   0.21220   0.00000  Uiso   1.00
C177   C     0.09479   0.73054   0.20767   0.00000  Uiso   1.00
C178   C     0.11647   0.74890   0.16576   0.00000  Uiso   1.00
C179   C     0.38339   0.74967   0.16701   0.00000  Uiso   1.00
C180   C     0.02411   0.74802   0.16607   0.00000  Uiso   1.00
C181   C     0.47563   0.74807   0.16643   0.00000  Uiso   1.00
C182   C     0.17859   0.62502   0.11391   0.00000  Uiso   1.00
C183   C     0.21655   0.60133   0.14158   0.00000  Uiso   1.00
C184   C     0.29473   0.87529   0.24818   0.00000  Uiso   1.00
C185   C     0.32125   0.62570   0.21981   0.00000  Uiso   1.00
C186   C     0.20505   0.87452   0.08510   0.00000  Uiso   1.00
C187   C     0.11341   0.78127   0.07559   0.00000  Uiso   1.00
C188   C     0.37840   0.72992   0.07357   0.00000  Uiso   1.00
C189   C     0.38557   0.76361   0.26176   0.00000  Uiso   1.00
C190   C     0.12036   0.71275   0.25348   0.00000  Uiso   1.00
C191   C     0.27089   0.89884   0.20512   0.00000  Uiso   1.00
C192   C     0.28338   0.60167   0.19181   0.00000  Uiso   1.00
C193   C     0.22892   0.89845   0.12826   0.00000  Uiso   1.00
C194   C     0.21600   0.55205   0.14206   0.00000  Uiso   1.00
C195   C     0.27031   0.94810   0.20575   0.00000  Uiso   1.00
C196   C     0.28385   0.55241   0.19124   0.00000  Uiso   1.00
H197   H     0.02699   0.78121   0.09345   0.00000  Uiso   1.00
H198   H     0.16142   0.60096   0.08681   0.00000  Uiso   1.00
H199   H     0.15330   0.63617   0.14093   0.00000  Uiso   1.00
H200   H     0.31434   0.84599   0.23433   0.00000  Uiso   1.00
H201   H     0.31880   0.89919   0.26780   0.00000  Uiso   1.00
H202   H     0.27032   0.86378   0.27613   0.00000  Uiso   1.00
H203   H     0.30938   0.65536   0.24200   0.00000  Uiso   1.00
H204   H     0.33806   0.60185   0.24713   0.00000  Uiso   1.00
H205   H     0.34684   0.63685   0.19307   0.00000  Uiso   1.00
H206   H     0.18507   0.84512   0.09860   0.00000  Uiso   1.00
H207   H     0.18122   0.89826   0.06531   0.00000  Uiso   1.00
H208   H     0.46768   0.72903   0.08815   0.00000  Uiso   1.00
H209   H     0.22950   0.86314   0.05722   0.00000  Uiso   1.00
H210   H     0.10838   0.81926   0.07049   0.00000  Uiso   1.00
H211   H     0.14957   0.77356   0.07488   0.00000  Uiso   1.00
H212   H     0.09744   0.76272   0.04305   0.00000  Uiso   1.00
H213   H     0.35751   0.76054   0.06348   0.00000  Uiso   1.00
H214   H     0.40068   0.72283   0.04191   0.00000  Uiso   1.00
H215   H     0.35650   0.69901   0.07813   0.00000  Uiso   1.00
H216   H     0.36564   0.79583   0.26121   0.00000  Uiso   1.00
H217   H     0.36342   0.73336   0.26892   0.00000  Uiso   1.00
H218   H     0.41033   0.76632   0.29355   0.00000  Uiso   1.00
H219   H     0.47343   0.76593   0.24512   0.00000  Uiso   1.00
H220   H     0.14289   0.74050   0.26881   0.00000  Uiso   1.00
H221   H     0.09770   0.70215   0.28372   0.00000  Uiso   1.00
H222   H     0.14044   0.68194   0.24339   0.00000  Uiso   1.00
H223   H     0.03142   0.71398   0.23807   0.00000  Uiso   1.00
H224   H     0.18828   0.53379   0.12380   0.00000  Uiso   1.00
H225   H     0.28546   0.96633   0.23757   0.00000  Uiso   1.00
H226   H     0.31153   0.53444   0.20951   0.00000  Uiso   1.00
H227   H     0.21420   0.96571   0.09584   0.00000  Uiso   1.00
H228   H     0.19046   0.65465   0.09156   0.00000  Uiso   1.00
N229   N     0.25000   0.62624   0.16667   0.00000  Uiso   1.00
N230   N     0.25000   0.87377   0.16667   0.00000  Uiso   1.00
O231   O     0.18453   0.78974   0.16667   0.00000  Uiso   1.00
O232   O     0.31547   0.71026   0.16666   0.00000  Uiso   1.00
O233   O     0.31547   0.78974   0.16666   0.00000  Uiso   1.00
O234   O     0.18453   0.71026   0.16667   0.00000  Uiso   1.00
O235   O     0.25000   0.78973   0.09511   0.00000  Uiso   1.00
O236   O     0.25000   0.71027   0.23822   0.00000  Uiso   1.00
O237   O     0.25000   0.78973   0.23822   0.00000  Uiso   1.00
O238   O     0.25000   0.71027   0.09511   0.00000  Uiso   1.00
Zn239  Zn    0.25000   0.80307   0.16667   0.00000  Uiso   1.00
Zn240  Zn    0.25000   0.69693   0.16667   0.00000  Uiso   1.00
C241   C     0.66427   0.74979   0.16631   0.00000  Uiso   1.00
C242   C     0.72941   0.94774   0.12764   0.00000  Uiso   1.00
C243   C     0.74994   0.74998   0.07301   0.00000  Uiso   1.00
C244   C     0.75018   0.75002   0.26032   0.00000  Uiso   1.00
C245   C     0.74991   0.52656   0.16664   0.00000  Uiso   1.00
C246   C     0.74987   0.97361   0.16667   0.00000  Uiso   1.00
C247   C     0.75005   0.74998   0.02184   0.00000  Uiso   1.00
C248   C     0.75014   0.75005   0.31149   0.00000  Uiso   1.00
C249   C     0.54592   0.76651   0.12490   0.00000  Uiso   1.00
C250   C     0.95089   0.73808   0.12226   0.00000  Uiso   1.00
C251   C     0.95415   0.75790   0.21109   0.00000  Uiso   1.00
C252   C     0.83569   0.75002   0.16724   0.00000  Uiso   1.00
C253   C     0.54850   0.72940   0.20685   0.00000  Uiso   1.00
C254   C     0.59210   0.76566   0.12343   0.00000  Uiso   1.00
C255   C     0.90460   0.73946   0.12189   0.00000  Uiso   1.00
C256   C     0.90792   0.75742   0.21220   0.00000  Uiso   1.00
C257   C     0.59479   0.73054   0.20767   0.00000  Uiso   1.00
C258   C     0.61647   0.74890   0.16576   0.00000  Uiso   1.00
C259   C     0.88339   0.74967   0.16701   0.00000  Uiso   1.00
C260   C     0.52411   0.74802   0.16607   0.00000  Uiso   1.00
C261   C     0.97563   0.74807   0.16643   0.00000  Uiso   1.00
C262   C     0.67859   0.62502   0.11391   0.00000  Uiso   1.00
C263   C     0.71655   0.60133   0.14158   0.00000  Uiso   1.00
C264   C     0.79473   0.87529   0.24818   0.00000  Uiso   1.00
C265   C     0.82125   0.62570   0.21981   0.00000  Uiso   1.00
C266   C     0.70505   0.87452   0.08510   0.00000  Uiso   1.00
C267   C     0.61341   0.78127   0.07559   0.00000  Uiso   1.00
C268   C     0.87840   0.72992   0.07357   0.00000  Uiso   1.00
C269   C     0.88557   0.76361   0.26176   0.00000  Uiso   1.00
C270   C     0.62036   0.71275   0.25348   0.00000  Uiso   1.00
C271   C     0.77089   0.89884   0.20512   0.00000  Uiso   1.00
C272   C     0.78338   0.60167   0.19181   0.00000  Uiso   1.00
C273   C     0.72892   0.89845   0.12826   0.00000  Uiso   1.00
C274   C     0.71600   0.55205   0.14206   0.00000  Uiso   1.00
C275   C     0.77031   0.94810   0.20575   0.00000  Uiso   1.00
C276   C     0.78385   0.55241   0.19124   0.00000  Uiso   1.00
H277   H     0.52699   0.78121   0.09345   0.00000  Uiso   1.00
H278   H     0.66142   0.60096   0.08681   0.00000  Uiso   1.00
H279   H     0.65330   0.63617   0.14093   0.00000  Uiso   1.00
H280   H     0.81434   0.84599   0.23433   0.00000  Uiso   1.00
H281   H     0.81880   0.89919   0.26780   0.00000  Uiso   1.00
H282   H     0.77032   0.86378   0.27613   0.00000  Uiso   1.00
H283   H     0.80938   0.65536   0.24200   0.00000  Uiso   1.00
H284   H     0.83806   0.60185   0.24713   0.00000  Uiso   1.00
H285   H     0.84684   0.63685   0.19307   0.00000  Uiso   1.00
H286   H     0.68507   0.84512   0.09860   0.00000  Uiso   1.00
H287   H     0.68122   0.89826   0.06531   0.00000  Uiso   1.00
H288   H     0.96768   0.72903   0.08815   0.00000  Uiso   1.00
H289   H     0.72950   0.86314   0.05722   0.00000  Uiso   1.00
H290   H     0.60838   0.81926   0.07049   0.00000  Uiso   1.00
H291   H     0.64957   0.77356   0.07488   0.00000  Uiso   1.00
H292   H     0.59744   0.76272   0.04305   0.00000  Uiso   1.00
H293   H     0.85751   0.76054   0.06348   0.00000  Uiso   1.00
H294   H     0.90068   0.72283   0.04191   0.00000  Uiso   1.00
H295   H     0.85650   0.69901   0.07813   0.00000  Uiso   1.00
H296   H     0.86564   0.79583   0.26121   0.00000  Uiso   1.00
H297   H     0.86342   0.73336   0.26892   0.00000  Uiso   1.00
H298   H     0.91033   0.76632   0.29355   0.00000  Uiso   1.00
H299   H     0.97343   0.76593   0.24512   0.00000  Uiso   1.00
H300   H     0.64289   0.74050   0.26881   0.00000  Uiso   1.00
H301   H     0.59770   0.70215   0.28372   0.00000  Uiso   1.00
H302   H     0.64044   0.68194   0.24339   0.00000  Uiso   1.00
H303   H     0.53142   0.71398   0.23807   0.00000  Uiso   1.00
H304   H     0.68828   0.53379   0.12380   0.00000  Uiso   1.00
H305   H     0.78546   0.96633   0.23757   0.00000  Uiso   1.00
H306   H     0.81153   0.53444   0.20951   0.00000  Uiso   1.00
H307   H     0.71420   0.96571   0.09584   0.00000  Uiso   1.00
H308   H     0.69046   0.65465   0.09156   0.00000  Uiso   1.00
N309   N     0.75000   0.62624   0.16667   0.00000  Uiso   1.00
N310   N     0.75000   0.87377   0.16667   0.00000  Uiso   1.00
O311   O     0.68453   0.78974   0.16667   0.00000  Uiso   1.00
O312   O     0.81547   0.71026   0.16666   0.00000  Uiso   1.00
O313   O     0.81547   0.78974   0.16666   0.00000  Uiso   1.00
O314   O     0.68453   0.71026   0.16667   0.00000  Uiso   1.00
O315   O     0.75000   0.78973   0.09511   0.00000  Uiso   1.00
O316   O     0.75000   0.71027   0.23822   0.00000  Uiso   1.00
O317   O     0.75000   0.78973   0.23822   0.00000  Uiso   1.00
O318   O     0.75000   0.71027   0.09511   0.00000  Uiso   1.00
Zn319  Zn    0.75000   0.80307   0.16667   0.00000  Uiso   1.00
Zn320  Zn    0.75000   0.69693   0.16667   0.00000  Uiso   1.00
C321   C     0.16427   0.24979   0.49965   0.00000  Uiso   1.00
C322   C     0.22941   0.44774   0.46097   0.00000  Uiso   1.00
C323   C     0.24994   0.24998   0.40635   0.00000  Uiso   1.00
C324   C     0.25018   0.25002   0.59366   0.00000  Uiso   1.00
C325   C     0.24991   0.02656   0.49997   0.00000  Uiso   1.00
C326   C     0.24987   0.47361   0.50001   0.00000  Uiso   1.00
C327   C     0.25005   0.24998   0.35518   0.00000  Uiso   1.00
C328   C     0.25014   0.25005   0.64483   0.00000  Uiso   1.00
C329   C     0.04592   0.26651   0.45823   0.00000  Uiso   1.00
C330   C     0.45089   0.23808   0.45559   0.00000  Uiso   1.00
C331   C     0.45415   0.25790   0.54442   0.00000  Uiso   1.00
C332   C     0.33569   0.25002   0.50057   0.00000  Uiso   1.00
C333   C     0.04850   0.22940   0.54018   0.00000  Uiso   1.00
C334   C     0.09210   0.26566   0.45676   0.00000  Uiso   1.00
C335   C     0.40460   0.23946   0.45522   0.00000  Uiso   1.00
C336   C     0.40792   0.25742   0.54553   0.00000  Uiso   1.00
C337   C     0.09479   0.23054   0.54100   0.00000  Uiso   1.00
C338   C     0.11647   0.24890   0.49910   0.00000  Uiso   1.00
C339   C     0.38339   0.24967   0.50034   0.00000  Uiso   1.00
C340   C     0.02411   0.24802   0.49941   0.00000  Uiso   1.00
C341   C     0.47563   0.24807   0.49977   0.00000  Uiso   1.00
C342   C     0.17859   0.12502   0.44724   0.00000  Uiso   1.00
C343   C     0.21655   0.10133   0.47491   0.00000  Uiso   1.00
C344   C     0.29473   0.37529   0.58152   0.00000  Uiso   1.00
C345   C     0.32125   0.12570   0.55315   0.00000  Uiso   1.00
C346   C     0.20505   0.37452   0.41843   0.00000  Uiso   1.00
C347   C     0.11341   0.28127   0.40892   0.00000  Uiso   1.00
C348   C     0.37840   0.22992   0.40690   0.00000  Uiso   1.00
C349   C     0.38557   0.26361   0.59509   0.00000  Uiso   1.00
C350   C     0.12036   0.21275   0.58681   0.00000  Uiso   1.00
C351   C     0.27089   0.39884   0.53845   0.00000  Uiso   1.00
C352   C     0.28338   0.10167   0.52514   0.00000  Uiso   1.00
C353   C     0.22892   0.39845   0.46159   0.00000  Uiso   1.00
C354   C     0.21600   0.05205   0.47539   0.00000  Uiso   1.00
C355   C     0.27031   0.44810   0.53908   0.00000  Uiso   1.00
C356   C     0.28385   0.05241   0.52457   0.00000  Uiso   1.00
H357   H     0.02699   0.28121   0.42679   0.00000  Uiso   1.00
H358   H     0.16142   0.10096   0.42015   0.00000  Uiso   1.00
H359   H     0.15330   0.13617   0.47426   0.00000  Uiso   1.00
H360   H     0.31434   0.34599   0.56767   0.00000  Uiso   1.00
H361   H     0.31880   0.39919   0.60113   0.00000  Uiso   1.00
H362   H     0.27032   0.36378   0.60947   0.00000  Uiso   1.00
H363   H     0.30938   0.15536   0.57534   0.00000  Uiso   1.00
H364   H     0.33806   0.10185   0.58047   0.00000  Uiso   1.00
H365   H     0.34684   0.13685   0.52640   0.00000  Uiso   1.00
H366   H     0.18507   0.34512   0.43193   0.00000  Uiso   1.00
H367   H     0.18122   0.39826   0.39865   0.00000  Uiso   1.00
H368   H     0.46768   0.22903   0.42149   0.00000  Uiso   1.00
H369   H     0.22950   0.36314   0.39056   0.00000  Uiso   1.00
H370   H     0.10838   0.31926   0.40383   0.00000  Uiso   1.00
H371   H     0.14957   0.27356   0.40821   0.00000  Uiso   1.00
H372   H     0.09744   0.26272   0.37638   0.00000  Uiso   1.00
H373   H     0.35751   0.26054   0.39682   0.00000  Uiso   1.00
H374   H     0.40068   0.22283   0.37524   0.00000  Uiso   1.00
H375   H     0.35650   0.19901   0.41146   0.00000  Uiso   1.00
H376   H     0.36564   0.29583   0.59455   0.00000  Uiso   1.00
H377   H     0.36342   0.23336   0.60226   0.00000  Uiso   1.00
H378   H     0.41033   0.26632   0.62689   0.00000  Uiso   1.00
H379   H     0.47343   0.26593   0.57845   0.00000  Uiso   1.00
H380   H     0.14289   0.24050   0.60214   0.00000  Uiso   1.00
H381   H     0.09770   0.20215   0.61706   0.00000  Uiso   1.00
H382   H     0.14044   0.18194   0.57672   0.00000  Uiso   1.00
H383   H     0.03142   0.21398   0.57141   0.00000  Uiso   1.00
H384   H     0.18828   0.03379   0.45713   0.00000  Uiso   1.00
H385   H     0.28546   0.46633   0.57091   0.00000  Uiso   1.00
H386   H     0.31153   0.03444   0.54285   0.00000  Uiso   1.00
H387   H     0.21420   0.46571   0.42918   0.00000  Uiso   1.00
H388   H     0.19046   0.15465   0.42490   0.00000  Uiso   1.00
N389   N     0.25000   0.12624   0.50000   0.00000  Uiso   1.00
N390   N     0.25000   0.37377   0.50000   0.00000  Uiso   1.00
O391   O     0.18453   0.28974   0.50000   0.00000  Uiso   1.00
O392   O     0.31547   0.21026   0.50000   0.00000  Uiso   1.00
O393   O     0.31547   0.28974   0.50000   0.00000  Uiso   1.00
O394   O     0.18453   0.21026   0.50000   0.00000  Uiso   1.00
O395   O     0.25000   0.28973   0.42845   0.00000  Uiso   1.00
O396   O     0.25000   0.21027   0.57155   0.00000  Uiso   1.00
O397   O     0.25000   0.28973   0.57155   0.00000  Uiso   1.00
O398   O     0.25000   0.21027   0.42845   0.00000  Uiso   1.00
Zn399  Zn    0.25000   0.30307   0.50000   0.00000  Uiso   1.00
Zn400  Zn    0.25000   0.19693   0.50000   0.00000  Uiso   1.00
C401   C     0.66427   0.24979   0.49965   0.00000  Uiso   1.00
C402   C     0.72941   0.44774   0.46097   0.00000  Uiso   1.00
C403   C     0.74994   0.24998   0.40635   0.00000  Uiso   1.00
C404   C     0.75018   0.25002   0.59366   0.00000  Uiso   1.00
C405   C     0.74991   0.02656   0.49997   0.00000  Uiso   1.00
C406   C     0.74987   0.47361   0.50001   0.00000  Uiso   1.00
C407   C     0.75005   0.24998   0.35518   0.00000  Uiso   1.00
C408   C     0.75014   0.25005   0.64483   0.00000  Uiso   1.00
C409   C     0.54592   0.26651   0.45823   0.00000  Uiso   1.00
C410   C     0.95089   0.23808   0.45559   0.00000  Uiso   1.00
C411   C     0.95415   0.25790   0.54442   0.00000  Uiso   1.00
C412   C     0.83569   0.25002   0.50057   0.00000  Uiso   1.00
C413   C     0.54850   0.22940   0.54018   0.00000  Uiso   1.00
C414   C     0.59210   0.26566   0.45676   0.00000  Uiso   1.00
C415   C     0.90460   0.23946   0.45522   0.00000  Uiso   1.00
C416   C     0.90792   0.25742   0.54553   0.00000  Uiso   1.00
C417   C     0.59479   0.23054   0.54100   0.00000  Uiso   1.00
C418   C     0.61647   0.24890   0.49910   0.00000  Uiso   1.00
C419   C     0.88339   0.24967   0.50034   0.00000  Uiso   1.00
C420   C     0.52411   0.24802   0.49941   0.00000  Uiso   1.00
C421   C     0.97563   0.24807   0.49977   0.00000  Uiso   1.00
C422   C     0.67859   0.12502   0.44724   0.00000  Uiso   1.00
C423   C     0.71655   0.10133   0.47491   0.00000  Uiso   1.00
C424   C     0.79473   0.37529   0.58152   0.00000  Uiso   1.00
C425   C     0.82125   0.12570   0.55315   0.00000  Uiso   1.00
C426   C     0.70505   0.37452   0.41843   0.00000  Uiso   1.00
C427   C     0.61341   0.28127   0.40892   0.00000  Uiso   1.00
C428   C     0.87840   0.22992   0.40690   0.00000  Uiso   1.00
C429   C     0.88557   0.26361   0.59509   0.00000  Uiso   1.00
C430   C     0.62036   0.21275   0.58681   0.00000  Uiso   1.00
C431   C     0.77089   0.39884   0.53845   0.00000  Uiso   1.00
C432   C     0.78338   0.10167   0.52514   0.00000  Uiso   1.00
C433   C     0.72892   0.39845   0.46159   0.00000  Uiso   1.00
C434   C     0.71600   0.05205   0.47539   0.00000  Uiso   1.00
C435   C     0.77031   0.44810   0.53908   0.00000  Uiso   1.00
C436   C     0.78385   0.05241   0.52457   0.00000  Uiso   1.00
H437   H     0.52699   0.28121   0.42679   0.00000  Uiso   1.00
H438   H     0.66142   0.10096   0.42015   0.00000  Uiso   1.00
H439   H     0.65330   0.13617   0.47426   0.00000  Uiso   1.00
H440   H     0.81434   0.34599   0.56767   0.00000  Uiso   1.00
H441   H     0.81880   0.39919   0.60113   0.00000  Uiso   1.00
H442   H     0.77032   0.36378   0.60947   0.00000  Uiso   1.00
H443   H     0.80938   0.15536   0.57534   0.00000  Uiso   1.00
H444   H     0.83806   0.10185   0.58047   0.00000  Uiso   1.00
H445   H     0.84684   0.13685   0.52640   0.00000  Uiso   1.00
H446   H     0.68507   0.34512   0.43193   0.00000  Uiso   1.00
H447   H     0.68122   0.39826   0.39865   0.00000  Uiso   1.00
H448   H     0.96768   0.22903   0.42149   0.00000  Uiso   1.00
H449   H     0.72950   0.36314   0.39056   0.00000  Uiso   1.00
H450   H     0.60838   0.31926   0.40383   0.00000  Uiso   1.00
H451   H     0.64957   0.27356   0.40821   0.00000  Uiso   1.00
H452   H     0.59744   0.26272   0.37638   0.00000  Uiso   1.00
H453   H     0.85751   0.26054   0.39682   0.00000  Uiso   1.00
H454   H     0.90068   0.22283   0.37524   0.00000  Uiso   1.00
H455   H     0.85650   0.19901   0.41146   0.00000  Uiso   1.00
H456   H     0.86564   0.29583   0.59455   0.00000  Uiso   1.00
H457   H     0.86342   0.23336   0.60226   0.00000  Uiso   1.00
H458   H     0.91033   0.26632   0.62689   0.00000  Uiso   1.00
H459   H     0.97343   0.26593   0.57845   0.00000  Uiso   1.00
H460   H     0.64289   0.24050   0.60214   0.00000  Uiso   1.00
H461   H     0.59770   0.20215   0.61706   0.00000  Uiso   1.00
H462   H     0.64044   0.18194   0.57672   0.00000  Uiso   1.00
H463   H     0.53142   0.21398   0.57141   0.00000  Uiso   1.00
H464   H     0.68828   0.03379   0.45713   0.00000  Uiso   1.00
H465   H     0.78546   0.46633   0.57091   0.00000  Uiso   1.00
H466   H     0.81153   0.03444   0.54285   0.00000  Uiso   1.00
H467   H     0.71420   0.46571   0.42918   0.00000  Uiso   1.00
H468   H     0.69046   0.15465   0.42490   0.00000  Uiso   1.00
N469   N     0.75000   0.12624   0.50000   0.00000  Uiso   1.00
N470   N     0.75000   0.37377   0.50000   0.00000  Uiso   1.00
O471   O     0.68453   0.28974   0.50000   0.00000  Uiso   1.00
O472   O     0.81547   0.21026   0.50000   0.00000  Uiso   1.00
O473   O     0.81547   0.28974   0.50000   0.00000  Uiso   1.00
O474   O     0.68453   0.21026   0.50000   0.00000  Uiso   1.00
O475   O     0.75000   0.28973   0.42845   0.00000  Uiso   1.00
O476   O     0.75000   0.21027   0.57155   0.00000  Uiso   1.00
O477   O     0.75000   0.28973   0.57155   0.00000  Uiso   1.00
O478   O     0.75000   0.21027   0.42845   0.00000  Uiso   1.00
Zn479  Zn    0.75000   0.30307   0.50000   0.00000  Uiso   1.00
Zn480  Zn    0.75000   0.19693   0.50000   0.00000  Uiso   1.00
C481   C     0.16427   0.74979   0.49965   0.00000  Uiso   1.00
C482   C     0.22941   0.94774   0.46097   0.00000  Uiso   1.00
C483   C     0.24994   0.74998   0.40635   0.00000  Uiso   1.00
C484   C     0.25018   0.75002   0.59366   0.00000  Uiso   1.00
C485   C     0.24991   0.52656   0.49997   0.00000  Uiso   1.00
C486   C     0.24987   0.97361   0.50001   0.00000  Uiso   1.00
C487   C     0.25005   0.74998   0.35518   0.00000  Uiso   1.00
C488   C     0.25014   0.75005   0.64483   0.00000  Uiso   1.00
C489   C     0.04592   0.76651   0.45823   0.00000  Uiso   1.00
C490   C     0.45089   0.73808   0.45559   0.00000  Uiso   1.00
C491   C     0.45415   0.75790   0.54442   0.00000  Uiso   1.00
C492   C     0.33569   0.75002   0.50057   0.00000  Uiso   1.00
C493   C     0.04850   0.72940   0.54018   0.00000  Uiso   1.00
C494   C     0.09210   0.76566   0.45676   0.00000  Uiso   1.00
C495   C     0.40460   0.73946   0.45522   0.00000  Uiso   1.00
C496   C     0.40792   0.75742   0.54553   0.00000  Uiso   1.00
C497   C     0.09479   0.73054   0.54100   0.00000  Uiso   1.00
C498   C     0.11647   0.74890   0.49910   0.00000  Uiso   1.00
C499   C     0.38339   0.74967   0.50034   0.00000  Uiso   1.00
C500   C     0.02411   0.74802   0.49941   0.00000  Uiso   1.00
C501   C     0.47563   0.74807   0.49977   0.00000  Uiso   1.00
C502   C     0.17859   0.62502   0.44724   0.00000  Uiso   1.00
C503   C     0.21655   0.60133   0.47491   0.00000  Uiso   1.00
C504   C     0.29473   0.87529   0.58152   0.00000  Uiso   1.00
C505   C     0.32125   0.62570   0.55315   0.00000  Uiso   1.00
C506   C     0.20505   0.87452   0.41843   0.00000  Uiso   1.00
C507   C     0.11341   0.78127   0.40892   0.00000  Uiso   1.00
C508   C     0.37840   0.72992   0.40690   0.00000  Uiso   1.00
C509   C     0.38557   0.76361   0.59509   0.00000  Uiso   1.00
C510   C     0.12036   0.71275   0.58681   0.00000  Uiso   1.00
C511   C     0.27089   0.89884   0.53845   0.00000  Uiso   1.00
C512   C     0.28338   0.60167   0.52514   0.00000  Uiso   1.00
C513   C     0.22892   0.89845   0.46159   0.00000  Uiso   1.00
C514   C     0.21600   0.55205   0.47539   0.00000  Uiso   1.00
C515   C     0.27031   0.94810   0.53908   0.00000  Uiso   1.00
C516   C     0.28385   0.55241   0.52457   0.00000  Uiso   1.00
H517   H     0.02699   0.78121   0.42679   0.00000  Uiso   1.00
H518   H     0.16142   0.60096   0.42015   0.00000  Uiso   1.00
H519   H     0.15330   0.63617   0.47426   0.00000  Uiso   1.00
H520   H     0.31434   0.84599   0.56767   0.00000  Uiso   1.00
H521   H     0.31880   0.89919   0.60113   0.00000  Uiso   1.00
H522   H     0.27032   0.86378   0.60947   0.00000  Uiso   1.00
H523   H     0.30938   0.65536   0.57534   0.00000  Uiso   1.00
H524   H     0.33806   0.60185   0.58047   0.00000  Uiso   1.00
H525   H     0.34684   0.63685   0.52640   0.00000  Uiso   1.00
H526   H     0.18507   0.84512   0.43193   0.00000  Uiso   1.00
H527   H     0.18122   0.89826   0.39865   0.00000  Uiso   1.00
H528   H     0.46768   0.72903   0.42149   0.00000  Uiso   1.00
H529   H     0.22950   0.86314   0.39056   0.00000  Uiso   1.00
H530   H     0.10838   0.81926   0.40383   0.00000  Uiso   1.00
H531   H     0.14957   0.77356   0.40821   0.00000  Uiso   1.00
H532   H     0.09744   0.76272   0.37638   0.00000  Uiso   1.00
H533   H     0.35751   0.76054   0.39682   0.00000  Uiso   1.00
H534   H     0.40068   0.72283   0.37524   0.00000  Uiso   1.00
H535   H     0.35650   0.69901   0.41146   0.00000  Uiso   1.00
H536   H     0.36564   0.79583   0.59455   0.00000  Uiso   1.00
H537   H     0.36342   0.73336   0.60226   0.00000  Uiso   1.00
H538   H     0.41033   0.76632   0.62689   0.00000  Uiso   1.00
H539   H     0.47343   0.76593   0.57845   0.00000  Uiso   1.00
H540   H     0.14289   0.74050   0.60214   0.00000  Uiso   1.00
H541   H     0.09770   0.70215   0.61706   0.00000  Uiso   1.00
H542   H     0.14044   0.68194   0.57672   0.00000  Uiso   1.00
H543   H     0.03142   0.71398   0.57141   0.00000  Uiso   1.00
H544   H     0.18828   0.53379   0.45713   0.00000  Uiso   1.00
H545   H     0.28546   0.96633   0.57091   0.00000  Uiso   1.00
H546   H     0.31153   0.53444   0.54285   0.00000  Uiso   1.00
H547   H     0.21420   0.96571   0.42918   0.00000  Uiso   1.00
H548   H     0.19046   0.65465   0.42490   0.00000  Uiso   1.00
N549   N     0.25000   0.62624   0.50000   0.00000  Uiso   1.00
N550   N     0.25000   0.87377   0.50000   0.00000  Uiso   1.00
O551   O     0.18453   0.78974   0.50000   0.00000  Uiso   1.00
O552   O     0.31547   0.71026   0.50000   0.00000  Uiso   1.00
O553   O     0.31547   0.78974   0.50000   0.00000  Uiso   1.00
O554   O     0.18453   0.71026   0.50000   0.00000  Uiso   1.00
O555   O     0.25000   0.78973   0.42845   0.00000  Uiso   1.00
O556   O     0.25000   0.71027   0.57155   0.00000  Uiso   1.00
O557   O     0.25000   0.78973   0.57155   0.00000  Uiso   1.00
O558   O     0.25000   0.71027   0.42845   0.00000  Uiso   1.00
Zn559  Zn    0.25000   0.80307   0.50000   0.00000  Uiso   1.00
Zn560  Zn    0.25000   0.69693   0.50000   0.00000  Uiso   1.00
C561   C     0.66427   0.74979   0.49965   0.00000  Uiso   1.00
C562   C     0.72941   0.94774   0.46097   0.00000  Uiso   1.00
C563   C     0.74994   0.74998   0.40635   0.00000  Uiso   1.00
C564   C     0.75018   0.75002   0.59366   0.00000  Uiso   1.00
C565   C     0.74991   0.52656   0.49997   0.00000  Uiso   1.00
C566   C     0.74987   0.97361   0.50001   0.00000  Uiso   1.00
C567   C     0.75005   0.74998   0.35518   0.00000  Uiso   1.00
C568   C     0.75014   0.75005   0.64483   0.00000  Uiso   1.00
C569   C     0.54592   0.76651   0.45823   0.00000  Uiso   1.00
C570   C     0.95089   0.73808   0.45559   0.00000  Uiso   1.00
C571   C     0.95415   0.75790   0.54442   0.00000  Uiso   1.00
C572   C     0.83569   0.75002   0.50057   0.00000  Uiso   1.00
C573   C     0.54850   0.72940   0.54018   0.00000  Uiso   1.00
C574   C     0.59210   0.76566   0.45676   0.00000  Uiso   1.00
C575   C     0.90460   0.73946   0.45522   0.00000  Uiso   1.00
C576   C     0.90792   0.75742   0.54553   0.00000  Uiso   1.00
C577   C     0.59479   0.73054   0.54100   0.00000  Uiso   1.00
C578   C     0.61647   0.74890   0.49910   0.00000  Uiso   1.00
C579   C     0.88339   0.74967   0.50034   0.00000  Uiso   1.00
C580   C     0.52411   0.74802   0.49941   0.00000  Uiso   1.00
C581   C     0.97563   0.74807   0.49977   0.00000  Uiso   1.00
C582   C     0.67859   0.62502   0.44724   0.00000  Uiso   1.00
C583   C     0.71655   0.60133   0.47491   0.00000  Uiso   1.00
C584   C     0.79473   0.87529   0.58152   0.00000  Uiso   1.00
C585   C     0.82125   0.62570   0.55315   0.00000  Uiso   1.00
C586   C     0.70505   0.87452   0.41843   0.00000  Uiso   1.00
C587   C     0.61341   0.78127   0.40892   0.00000  Uiso   1.00
C588   C     0.87840   0.72992   0.40690   0.00000  Uiso   1.00
C589   C     0.88557   0.76361   0.59509   0.00000  Uiso   1.00
C590   C     0.62036   0.71275   0.58681   0.00000  Uiso   1.00
C591   C     0.77089   0.89884   0.53845   0.00000  Uiso   1.00
C592   C     0.78338   0.60167   0.52514   0.00000  Uiso   1.00
C593   C     0.72892   0.89845   0.46159   0.00000  Uiso   1.00
C594   C     0.71600   0.55205   0.47539   0.00000  Uiso   1.00
C595   C     0.77031   0.94810   0.53908   0.00000  Uiso   1.00
C596   C     0.78385   0.55241   0.52457   0.00000  Uiso   1.00
H597   H     0.52699   0.78121   0.42679   0.00000  Uiso   1.00
H598   H     0.66142   0.60096   0.42015   0.00000  Uiso   1.00
H599   H     0.65330   0.63617   0.47426   0.00000  Uiso   1.00
H600   H     0.81434   0.84599   0.56767   0.00000  Uiso   1.00
H601   H     0.81880   0.89919   0.60113   0.00000  Uiso   1.00
H602   H     0.77032   0.86378   0.60947   0.00000  Uiso   1.00
H603   H     0.80938   0.65536   0.57534   0.00000  Uiso   1.00
H604   H     0.83806   0.60185   0.58047   0.00000  Uiso   1.00
H605   H     0.84684   0.63685   0.52640   0.00000  Uiso   1.00
H606   H     0.68507   0.84512   0.43193   0.00000  Uiso   1.00
H607   H     0.68122   0.89826   0.39865   0.00000  Uiso   1.00
H608   H     0.96768   0.72903   0.42149   0.00000  Uiso   1.00
H609   H     0.72950   0.86314   0.39056   0.00000  Uiso   1.00
H610   H     0.60838   0.81926   0.40383   0.00000  Uiso   1.00
H611   H     0.64957   0.77356   0.40821   0.00000  Uiso   1.00
H612   H     0.59744   0.76272   0.37638   0.00000  Uiso   1.00
H613   H     0.85751   0.76054   0.39682   0.00000  Uiso   1.00
H614   H     0.90068   0.72283   0.37524   0.00000  Uiso   1.00
H615   H     0.85650   0.69901   0.41146   0.00000  Uiso   1.00
H616   H     0.86564   0.79583   0.59455   0.00000  Uiso   1.00
H617   H     0.86342   0.73336   0.60226   0.00000  Uiso   1.00
H618   H     0.91033   0.76632   0.62689   0.00000  Uiso   1.00
H619   H     0.97343   0.76593   0.57845   0.00000  Uiso   1.00
H620   H     0.64289   0.74050   0.60214   0.00000  Uiso   1.00
H621   H     0.59770   0.70215   0.61706   0.00000  Uiso   1.00
H622   H     0.64044   0.68194   0.57672   0.00000  Uiso   1.00
H623   H     0.53142   0.71398   0.57141   0.00000  Uiso   1.00
H624   H     0.68828   0.53379   0.45713   0.00000  Uiso   1.00
H625   H     0.78546   0.96633   0.57091   0.00000  Uiso   1.00
H626   H     0.81153   0.53444   0.54285   0.00000  Uiso   1.00
H627   H     0.71420   0.96571   0.42918   0.00000  Uiso   1.00
H628   H     0.69046   0.65465   0.42490   0.00000  Uiso   1.00
N629   N     0.75000   0.62624   0.50000   0.00000  Uiso   1.00
N630   N     0.75000   0.87377   0.50000   0.00000  Uiso   1.00
O631   O     0.68453   0.78974   0.50000   0.00000  Uiso   1.00
O632   O     0.81547   0.71026   0.50000   0.00000  Uiso   1.00
O633   O     0.81547   0.78974   0.50000   0.00000  Uiso   1.00
O634   O     0.68453   0.71026   0.50000   0.00000  Uiso   1.00
O635   O     0.75000   0.78973   0.42845   0.00000  Uiso   1.00
O636   O     0.75000   0.71027   0.57155   0.00000  Uiso   1.00
O637   O     0.75000   0.78973   0.57155   0.00000  Uiso   1.00
O638   O     0.75000   0.71027   0.42845   0.00000  Uiso   1.00
Zn639  Zn    0.75000   0.80307   0.50000   0.00000  Uiso   1.00
Zn640  Zn    0.75000   0.69693   0.50000   0.00000  Uiso   1.00
C641   C     0.16427   0.24979   0.83298   0.00000  Uiso   1.00
C642   C     0.22941   0.44774   0.79431   0.00000  Uiso   1.00
C643   C     0.24994   0.24998   0.73968   0.00000  Uiso   1.00
C644   C     0.25018   0.25002   0.92699   0.00000  Uiso   1.00
C645   C     0.24991   0.02656   0.83331   0.00000  Uiso   1.00
C646   C     0.24987   0.47361   0.83334   0.00000  Uiso   1.00
C647   C     0.25005   0.24998   0.68851   0.00000  Uiso   1.00
C648   C     0.25014   0.25005   0.97816   0.00000  Uiso   1.00
C649   C     0.04592   0.26651   0.79156   0.00000  Uiso   1.00
C650   C     0.45089   0.23808   0.78893   0.00000  Uiso   1.00
C651   C     0.45415   0.25790   0.87775   0.00000  Uiso   1.00
C652   C     0.33569   0.25002   0.83391   0.00000  Uiso   1.00
C653   C     0.04850   0.22940   0.87352   0.00000  Uiso   1.00
C654   C     0.09210   0.26566   0.79010   0.00000  Uiso   1.00
C655   C     0.40460   0.23946   0.78855   0.00000  Uiso   1.00
C656   C     0.40792   0.25742   0.87887   0.00000  Uiso   1.00
C657   C     0.09479   0.23054   0.87434   0.00000  Uiso   1.00
C658   C     0.11647   0.24890   0.83243   0.00000  Uiso   1.00
C659   C     0.38339   0.24967   0.83367   0.00000  Uiso   1.00
C660   C     0.02411   0.24802   0.83274   0.00000  Uiso   1.00
C661   C     0.47563   0.24807   0.83310   0.00000  Uiso   1.00
C662   C     0.17859   0.12502   0.78058   0.00000  Uiso   1.00
C663   C     0.21655   0.10133   0.80825   0.00000  Uiso   1.00
C664   C     0.29473   0.37529   0.91485   0.00000  Uiso   1.00
C665   C     0.32125   0.12570   0.88648   0.00000  Uiso   1.00
C666   C     0.20505   0.37452   0.75176   0.00000  Uiso   1.00
C667   C     0.11341   0.28127   0.74226   0.00000  Uiso   1.00
C668   C     0.37840   0.22992   0.74024   0.00000  Uiso   1.00
C669   C     0.38557   0.26361   0.92842   0.00000  Uiso   1.00
C670   C     0.12036   0.21275   0.92015   0.00000  Uiso   1.00
C671   C     0.27089   0.39884   0.87178   0.00000  Uiso   1.00
C672   C     0.28338   0.10167   0.85848   0.00000  Uiso   1.00
C673   C     0.22892   0.39845   0.79493   0.00000  Uiso   1.00
C674   C     0.21600   0.05205   0.80873   0.00000  Uiso   1.00
C675   C     0.27031   0.44810   0.87241   0.00000  Uiso   1.00
C676   C     0.28385   0.05241   0.85791   0.00000  Uiso   1.00
H677   H     0.02699   0.28121   0.76012   0.00000  Uiso   1.00
H678   H     0.16142   0.10096   0.75348   0.00000  Uiso   1.00
H679   H     0.15330   0.13617   0.80760   0.00000  Uiso   1.00
H680   H     0.31434   0.34599   0.90100   0.00000  Uiso   1.00
H681   H     0.31880   0.39919   0.93446   0.00000  Uiso   1.00
H682   H     0.27032   0.36378   0.94280   0.00000  Uiso   1.00
H683   H     0.30938   0.15536   0.90867   0.00000  Uiso   1.00
H684   H     0.33806   0.10185   0.91380   0.00000  Uiso   1.00
H685   H     0.34684   0.13685   0.85973   0.00000  Uiso   1.00
H686   H     0.18507   0.34512   0.76526   0.00000  Uiso   1.00
H687   H     0.18122   0.39826   0.73198   0.00000  Uiso   1.00
H688   H     0.46768   0.22903   0.75482   0.00000  Uiso   1.00
H689   H     0.22950   0.36314   0.72389   0.00000  Uiso   1.00
H690   H     0.10838   0.31926   0.73716   0.00000  Uiso   1.00
H691   H     0.14957   0.27356   0.74154   0.00000  Uiso   1.00
H692   H     0.09744   0.26272   0.70971   0.00000  Uiso   1.00
H693   H     0.35751   0.26054   0.73015   0.00000  Uiso   1.00
H694   H     0.40068   0.22283   0.70858   0.00000  Uiso   1.00
H695   H     0.35650   0.19901   0.74480   0.00000  Uiso   1.00
H696   H     0.36564   0.29583   0.92788   0.00000  Uiso   1.00
H697   H     0.36342   0.23336   0.93559   0.00000  Uiso   1.00
H698   H     0.41033   0.26632   0.96022   0.00000  Uiso   1.00
H699   H     0.47343   0.26593   0.91179   0.00000  Uiso   1.00
H700   H     0.14289   0.24050   0.93548   0.00000  Uiso   1.00
H701   H     0.09770   0.20215   0.95039   0.00000  Uiso   1.00
H702   H     0.14044   0.18194   0.91005   0.00000  Uiso   1.00
H703   H     0.03142   0.21398   0.90474   0.00000  Uiso   1.00
H704   H     0.18828   0.03379   0.79047   0.00000  Uiso   1.00
H705   H     0.28546   0.46633   0.90424   0.00000  Uiso   1.00
H706   H     0.31153   0.03444   0.87618   0.00000  Uiso   1.00
H707   H     0.21420   0.46571   0.76251   0.00000  Uiso   1.00
H708   H     0.19046   0.15465   0.75823   0.00000  Uiso   1.00
N709   N     0.25000   0.12624   0.83333   0.00000  Uiso   1.00
N710   N     0.25000   0.37377   0.83333   0.00000  Uiso   1.00
O711   O     0.18453   0.28974   0.83334   0.00000  Uiso   1.00
O712   O     0.31547   0.21026   0.83333   0.00000  Uiso   1.00
O713   O     0.31547   0.28974   0.83333   0.00000  Uiso   1.00
O714   O     0.18453   0.21026   0.83334   0.00000  Uiso   1.00
O715   O     0.25000   0.28973   0.76178   0.00000  Uiso   1.00
O716   O     0.25000   0.21027   0.90489   0.00000  Uiso   1.00
O717   O     0.25000   0.28973   0.90489   0.00000  Uiso   1.00
O718   O     0.25000   0.21027   0.76178   0.00000  Uiso   1.00
Zn719  Zn    0.25000   0.30307   0.83333   0.00000  Uiso   1.00
Zn720  Zn    0.25000   0.19693   0.83333   0.00000  Uiso   1.00
C721   C     0.66427   0.24979   0.83298   0.00000  Uiso   1.00
C722   C     0.72941   0.44774   0.79431   0.00000  Uiso   1.00
C723   C     0.74994   0.24998   0.73968   0.00000  Uiso   1.00
C724   C     0.75018   0.25002   0.92699   0.00000  Uiso   1.00
C725   C     0.74991   0.02656   0.83331   0.00000  Uiso   1.00
C726   C     0.74987   0.47361   0.83334   0.00000  Uiso   1.00
C727   C     0.75005   0.24998   0.68851   0.00000  Uiso   1.00
C728   C     0.75014   0.25005   0.97816   0.00000  Uiso   1.00
C729   C     0.54592   0.26651   0.79156   0.00000  Uiso   1.00
C730   C     0.95089   0.23808   0.78893   0.00000  Uiso   1.00
C731   C     0.95415   0.25790   0.87775   0.00000  Uiso   1.00
C732   C     0.83569   0.25002   0.83391   0.00000  Uiso   1.00
C733   C     0.54850   0.22940   0.87352   0.00000  Uiso   1.00
C734   C     0.59210   0.26566   0.79010   0.00000  Uiso   1.00
C735   C     0.90460   0.23946   0.78855   0.00000  Uiso   1.00
C736   C     0.90792   0.25742   0.87887   0.00000  Uiso   1.00
C737   C     0.59479   0.23054   0.87434   0.00000  Uiso   1.00
C738   C     0.61647   0.24890   0.83243   0.00000  Uiso   1.00
C739   C     0.88339   0.24967   0.83367   0.00000  Uiso   1.00
C740   C     0.52411   0.24802   0.83274   0.00000  Uiso   1.00
C741   C     0.97563   0.24807   0.83310   0.00000  Uiso   1.00
C742   C     0.67859   0.12502   0.78058   0.00000  Uiso   1.00
C743   C     0.71655   0.10133   0.80825   0.00000  Uiso   1.00
C744   C     0.79473   0.37529   0.91485   0.00000  Uiso   1.00
C745   C     0.82125   0.12570   0.88648   0.00000  Uiso   1.00
C746   C     0.70505   0.37452   0.75176   0.00000  Uiso   1.00
C747   C     0.61341   0.28127   0.74226   0.00000  Uiso   1.00
C748   C     0.87840   0.22992   0.74024   0.00000  Uiso   1.00
C749   C     0.88557   0.26361   0.92842   0.00000  Uiso   1.00
C750   C     0.62036   0.21275   0.92015   0.00000  Uiso   1.00
C751   C     0.77089   0.39884   0.87178   0.00000  Uiso   1.00
C752   C     0.78338   0.10167   0.85848   0.00000  Uiso   1.00
C753   C     0.72892   0.39845   0.79493   0.00000  Uiso   1.00
C754   C     0.71600   0.05205   0.80873   0.00000  Uiso   1.00
C755   C     0.77031   0.44810   0.87241   0.00000  Uiso   1.00
C756   C     0.78385   0.05241   0.85791   0.00000  Uiso   1.00
H757   H     0.52699   0.28121   0.76012   0.00000  Uiso   1.00
H758   H     0.66142   0.10096   0.75348   0.00000  Uiso   1.00
H759   H     0.65330   0.13617   0.80760   0.00000  Uiso   1.00
H760   H     0.81434   0.34599   0.90100   0.00000  Uiso   1.00
H761   H     0.81880   0.39919   0.93446   0.00000  Uiso   1.00
H762   H     0.77032   0.36378   0.94280   0.00000  Uiso   1.00
H763   H     0.80938   0.15536   0.90867   0.00000  Uiso   1.00
H764   H     0.83806   0.10185   0.91380   0.00000  Uiso   1.00
H765   H     0.84684   0.13685   0.85973   0.00000  Uiso   1.00
H766   H     0.68507   0.34512   0.76526   0.00000  Uiso   1.00
H767   H     0.68122   0.39826   0.73198   0.00000  Uiso   1.00
H768   H     0.96768   0.22903   0.75482   0.00000  Uiso   1.00
H769   H     0.72950   0.36314   0.72389   0.00000  Uiso   1.00
H770   H     0.60838   0.31926   0.73716   0.00000  Uiso   1.00
H771   H     0.64957   0.27356   0.74154   0.00000  Uiso   1.00
H772   H     0.59744   0.26272   0.70971   0.00000  Uiso   1.00
H773   H     0.85751   0.26054   0.73015   0.00000  Uiso   1.00
H774   H     0.90068   0.22283   0.70858   0.00000  Uiso   1.00
H775   H     0.85650   0.19901   0.74480   0.00000  Uiso   1.00
H776   H     0.86564   0.29583   0.92788   0.00000  Uiso   1.00
H777   H     0.86342   0.23336   0.93559   0.00000  Uiso   1.00
H778   H     0.91033   0.26632   0.96022   0.00000  Uiso   1.00
H779   H     0.97343   0.26593   0.91179   0.00000  Uiso   1.00
H780   H     0.64289   0.24050   0.93548   0.00000  Uiso   1.00
H781   H     0.59770   0.20215   0.95039   0.00000  Uiso   1.00
H782   H     0.64044   0.18194   0.91005   0.00000  Uiso   1.00
H783   H     0.53142   0.21398   0.90474   0.00000  Uiso   1.00
H784   H     0.68828   0.03379   0.79047   0.00000  Uiso   1.00
H785   H     0.78546   0.46633   0.90424   0.00000  Uiso   1.00
H786   H     0.81153   0.03444   0.87618   0.00000  Uiso   1.00
H787   H     0.71420   0.46571   0.76251   0.00000  Uiso   1.00
H788   H     0.69046   0.15465   0.75823   0.00000  Uiso   1.00
N789   N     0.75000   0.12624   0.83333   0.00000  Uiso   1.00
N790   N     0.75000   0.37377   0.83333   0.00000  Uiso   1.00
O791   O     0.68453   0.28974   0.83334   0.00000  Uiso   1.00
O792   O     0.81547   0.21026   0.83333   0.00000  Uiso   1.00
O793   O     0.81547   0.28974   0.83333   0.00000  Uiso   1.00
O794   O     0.68453   0.21026   0.83334   0.00000  Uiso   1.00
O795   O     0.75000   0.28973   0.76178   0.00000  Uiso   1.00
O796   O     0.75000   0.21027   0.90489   0.00000  Uiso   1.00
O797   O     0.75000   0.28973   0.90489   0.00000  Uiso   1.00
O798   O     0.75000   0.21027   0.76178   0.00000  Uiso   1.00
Zn799  Zn    0.75000   0.30307   0.83333   0.00000  Uiso   1.00
Zn800  Zn    0.75000   0.19693   0.83333   0.00000  Uiso   1.00
C801   C     0.16427   0.74979   0.83298   0.00000  Uiso   1.00
C802   C     0.22941   0.94774   0.79431   0.00000  Uiso   1.00
C803   C     0.24994   0.74998   0.73968   0.00000  Uiso   1.00
C804   C     0.25018   0.75002   0.92699   0.00000  Uiso   1.00
C805   C     0.24991   0.52656   0.83331   0.00000  Uiso   1.00
C806   C     0.24987   0.97361   0.83334   0.00000  Uiso   1.00
C807   C     0.25005   0.74998   0.68851   0.00000  Uiso   1.00
C808   C     0.25014   0.75005   0.97816   0.00000  Uiso   1.00
C809   C     0.04592   0.76651   0.79156   0.00000  Uiso   1.00
C810   C     0.45089   0.73808   0.78893   0.00000  Uiso   1.00
C811   C     0.45415   0.75790   0.87775   0.00000  Uiso   1.00
C812   C     0.33569   0.75002   0.83391   0.00000  Uiso   1.00
C813   C     0.04850   0.72940   0.87352   0.00000  Uiso   1.00
C814   C     0.09210   0.76566   0.79010   0.00000  Uiso   1.00
C815   C     0.40460   0.73946   0.78855   0.00000  Uiso   1.00
C816   C     0.40792   0.75742   0.87887   0.00000  Uiso   1.00
C817   C     0.09479   0.73054   0.87434   0.00000  Uiso   1.00
C818   C     0.11647   0.74890   0.83243   0.00000  Uiso   1.00
C819   C     0.38339   0.74967   0.83367   0.00000  Uiso   1.00
C820   C     0.02411   0.74802   0.83274   0.00000  Uiso   1.00
C821   C     0.47563   0.74807   0.83310   0.00000  Uiso   1.00
C822   C     0.17859   0.62502   0.78058   0.00000  Uiso   1.00
C823   C     0.21655   0.60133   0.80825   0.00000  Uiso   1.00
C824   C     0.29473   0.87529   0.91485   0.00000  Uiso   1.00
C825   C     0.32125   0.62570   0.88648   0.00000  Uiso   1.00
C826   C     0.20505   0.87452   0.75176   0.00000  Uiso   1.00
C827   C     0.11341   0.78127   0.74226   0.00000  Uiso   1.00
C828   C     0.37840   0.72992   0.74024   0.00000  Uiso   1.00
C829   C     0.38557   0.76361   0.92842   0.00000  Uiso   1.00
C830   C     0.12036   0.71275   0.92015   0.00000  Uiso   1.00
C831   C     0.27089   0.89884   0.87178   0.00000  Uiso   1.00
C832   C     0.28338   0.60167   0.85848   0.00000  Uiso   1.00
C833   C     0.22892   0.89845   0.79493   0.00000  Uiso   1.00
C834   C     0.21600   0.55205   0.80873   0.00000  Uiso   1.00
C835   C     0.27031   0.94810   0.87241   0.00000  Uiso   1.00
C836   C     0.28385   0.55241   0.85791   0.00000  Uiso   1.00
H837   H     0.02699   0.78121   0.76012   0.00000  Uiso   1.00
H838   H     0.16142   0.60096   0.75348   0.00000  Uiso   1.00
H839   H     0.15330   0.63617   0.80760   0.00000  Uiso   1.00
H840   H     0.31434   0.84599   0.90100   0.00000  Uiso   1.00
H841   H     0.31880   0.89919   0.93446   0.00000  Uiso   1.00
H842   H     0.27032   0.86378   0.94280   0.00000  Uiso   1.00
H843   H     0.30938   0.65536   0.90867   0.00000  Uiso   1.00
H844   H     0.33806   0.60185   0.91380   0.00000  Uiso   1.00
H845   H     0.34684   0.63685   0.85973   0.00000  Uiso   1.00
H846   H     0.18507   0.84512   0.76526   0.00000  Uiso   1.00
H847   H     0.18122   0.89826   0.73198   0.00000  Uiso   1.00
H848   H     0.46768   0.72903   0.75482   0.00000  Uiso   1.00
H849   H     0.22950   0.86314   0.72389   0.00000  Uiso   1.00
H850   H     0.10838   0.81926   0.73716   0.00000  Uiso   1.00
H851   H     0.14957   0.77356   0.74154   0.00000  Uiso   1.00
H852   H     0.09744   0.76272   0.70971   0.00000  Uiso   1.00
H853   H     0.35751   0.76054   0.73015   0.00000  Uiso   1.00
H854   H     0.40068   0.72283   0.70858   0.00000  Uiso   1.00
H855   H     0.35650   0.69901   0.74480   0.00000  Uiso   1.00
H856   H     0.36564   0.79583   0.92788   0.00000  Uiso   1.00
H857   H     0.36342   0.73336   0.93559   0.00000  Uiso   1.00
H858   H     0.41033   0.76632   0.96022   0.00000  Uiso   1.00
H859   H     0.47343   0.76593   0.91179   0.00000  Uiso   1.00
H860   H     0.14289   0.74050   0.93548   0.00000  Uiso   1.00
H861   H     0.09770   0.70215   0.95039   0.00000  Uiso   1.00
H862   H     0.14044   0.68194   0.91005   0.00000  Uiso   1.00
H863   H     0.03142   0.71398   0.90474   0.00000  Uiso   1.00
H864   H     0.18828   0.53379   0.79047   0.00000  Uiso   1.00
H865   H     0.28546   0.96633   0.90424   0.00000  Uiso   1.00
H866   H     0.31153   0.53444   0.87618   0.00000  Uiso   1.00
H867   H     0.21420   0.96571   0.76251   0.00000  Uiso   1.00
H868   H     0.19046   0.65465   0.75823   0.00000  Uiso   1.00
N869   N     0.25000   0.62624   0.83333   0.00000  Uiso   1.00
N870   N     0.25000   0.87377   0.83333   0.00000  Uiso   1.00
O871   O     0.18453   0.78974   0.83334   0.00000  Uiso   1.00
O872   O     0.31547   0.71026   0.83333   0.00000  Uiso   1.00
O873   O     0.31547   0.78974   0.83333   0.00000  Uiso   1.00
O874   O     0.18453   0.71026   0.83334   0.00000  Uiso   1.00
O875   O     0.25000   0.78973   0.76178   0.00000  Uiso   1.00
O876   O     0.25000   0.71027   0.90489   0.00000  Uiso   1.00
O877   O     0.25000   0.78973   0.90489   0.00000  Uiso   1.00
O878   O     0.25000   0.71027   0.76178   0.00000  Uiso   1.00
Zn879  Zn    0.25000   0.80307   0.83333   0.00000  Uiso   1.00
Zn880  Zn    0.25000   0.69693   0.83333   0.00000  Uiso   1.00
C881   C     0.66427   0.74979   0.83298   0.00000  Uiso   1.00
C882   C     0.72941   0.94774   0.79431   0.00000  Uiso   1.00
C883   C     0.74994   0.74998   0.73968   0.00000  Uiso   1.00
C884   C     0.75018   0.75002   0.92699   0.00000  Uiso   1.00
C885   C     0.74991   0.52656   0.83331   0.00000  Uiso   1.00
C886   C     0.74987   0.97361   0.83334   0.00000  Uiso   1.00
C887   C     0.75005   0.74998   0.68851   0.00000  Uiso   1.00
C888   C     0.75014   0.75005   0.97816   0.00000  Uiso   1.00
C889   C     0.54592   0.76651   0.79156   0.00000  Uiso   1.00
C890   C     0.95089   0.73808   0.78893   0.00000  Uiso   1.00
C891   C     0.95415   0.75790   0.87775   0.00000  Uiso   1.00
C892   C     0.83569   0.75002   0.83391   0.00000  Uiso   1.00
C893   C     0.54850   0.72940   0.87352   0.00000  Uiso   1.00
C894   C     0.59210   0.76566   0.79010   0.00000  Uiso   1.00
C895   C     0.90460   0.73946   0.78855   0.00000  Uiso   1.00
C896   C     0.90792   0.75742   0.87887   0.00000  Uiso   1.00
C897   C     0.59479   0.73054   0.87434   0.00000  Uiso   1.00
C898   C     0.61647   0.74890   0.83243   0.00000  Uiso   1.00
C899   C     0.88339   0.74967   0.83367   0.00000  Uiso   1.00
C900   C     0.52411   0.74802   0.83274   0.00000  Uiso   1.00
C901   C     0.97563   0.74807   0.83310   0.00000  Uiso   1.00
C902   C     0.67859   0.62502   0.78058   0.00000  Uiso   1.00
C903   C     0.71655   0.60133   0.80825   0.00000  Uiso   1.00
C904   C     0.79473   0.87529   0.91485   0.00000  Uiso   1.00
C905   C     0.82125   0.62570   0.88648   0.00000  Uiso   1.00
C906   C     0.70505   0.87452   0.75176   0.00000  Uiso   1.00
C907   C     0.61341   0.78127   0.74226   0.00000  Uiso   1.00
C908   C     0.87840   0.72992   0.74024   0.00000  Uiso   1.00
C909   C     0.88557   0.76361   0.92842   0.00000  Uiso   1.00
C910   C     0.62036   0.71275   0.92015   0.00000  Uiso   1.00
C911   C     0.77089   0.89884   0.87178   0.00000  Uiso   1.00
C912   C     0.78338   0.60167   0.85848   0.00000  Uiso   1.00
C913   C     0.72892   0.89845   0.79493   0.00000  Uiso   1.00
C914   C     0.71600   0.55205   0.80873   0.00000  Uiso   1.00
C915   C     0.77031   0.94810   0.87241   0.00000  Uiso   1.00
C916   C     0.78385   0.55241   0.85791   0.00000  Uiso   1.00
H917   H     0.52699   0.78121   0.76012   0.00000  Uiso   1.00
H918   H     0.66142   0.60096   0.75348   0.00000  Uiso   1.00
H919   H     0.65330   0.63617   0.80760   0.00000  Uiso   1.00
H920   H     0.81434   0.84599   0.90100   0.00000  Uiso   1.00
H921   H     0.81880   0.89919   0.93446   0.00000  Uiso   1.00
H922   H     0.77032   0.86378   0.94280   0.00000  Uiso   1.00
H923   H     0.80938   0.65536   0.90867   0.00000  Uiso   1.00
H924   H     0.83806   0.60185   0.91380   0.00000  Uiso   1.00
H925   H     0.84684   0.63685   0.85973   0.00000  Uiso   1.00
H926   H     0.68507   0.84512   0.76526   0.00000  Uiso   1.00
H927   H     0.68122   0.89826   0.73198   0.00000  Uiso   1.00
H928   H     0.96768   0.72903   0.75482   0.00000  Uiso   1.00
H929   H     0.72950   0.86314   0.72389   0.00000  Uiso   1.00
H930   H     0.60838   0.81926   0.73716   0.00000  Uiso   1.00
H931   H     0.64957   0.77356   0.74154   0.00000  Uiso   1.00
H932   H     0.59744   0.76272   0.70971   0.00000  Uiso   1.00
H933   H     0.85751   0.76054   0.73015   0.00000  Uiso   1.00
H934   H     0.90068   0.72283   0.70858   0.00000  Uiso   1.00
H935   H     0.85650   0.69901   0.74480   0.00000  Uiso   1.00
H936   H     0.86564   0.79583   0.92788   0.00000  Uiso   1.00
H937   H     0.86342   0.73336   0.93559   0.00000  Uiso   1.00
H938   H     0.91033   0.76632   0.96022   0.00000  Uiso   1.00
H939   H     0.97343   0.76593   0.91179   0.00000  Uiso   1.00
H940   H     0.64289   0.74050   0.93548   0.00000  Uiso   1.00
H941   H     0.59770   0.70215   0.95039   0.00000  Uiso   1.00
H942   H     0.64044   0.68194   0.91005   0.00000  Uiso   1.00
H943   H     0.53142   0.71398   0.90474   0.00000  Uiso   1.00
H944   H     0.68828   0.53379   0.79047   0.00000  Uiso   1.00
H945   H     0.78546   0.96633   0.90424   0.00000  Uiso   1.00
H946   H     0.81153   0.53444   0.87618   0.00000  Uiso   1.00
H947   H     0.71420   0.96571   0.76251   0.00000  Uiso   1.00
H948   H     0.69046   0.65465   0.75823   0.00000  Uiso   1.00
N949   N     0.75000   0.62624   0.83333   0.00000  Uiso   1.00
N950   N     0.75000   0.87377   0.83333   0.00000  Uiso   1.00
O951   O     0.68453   0.78974   0.83334   0.00000  Uiso   1.00
O952   O     0.81547   0.71026   0.83333   0.00000  Uiso   1.00
O953   O     0.81547   0.78974   0.83333   0.00000  Uiso   1.00
O954   O     0.68453   0.71026   0.83334   0.00000  Uiso   1.00
O955   O     0.75000   0.78973   0.76178   0.00000  Uiso   1.00
O956   O     0.75000   0.71027   0.90489   0.00000  Uiso   1.00
O957   O     0.75000   0.78973   0.90489   0.00000  Uiso   1.00
O958   O     0.75000   0.71027   0.76178   0.00000  Uiso   1.00
Zn959  Zn    0.75000   0.80307   0.83333   0.00000  Uiso   1.00
Zn960  Zn    0.75000   0.69693   0.83333   0.00000  Uiso   1.00
loop_
_geom_bond_atom_site_label_1
_geom_bond_atom_site_label_2
_geom_bond_distance
_geom_bond_site_symmetry_2
_ccdc_geom_bond_type
C1     C18     1.431   .     S
C1     O71     1.295   .     A
C1     O74     1.290   .     A
C2     C6      1.401   .     A
C2     H67     1.082   .     S
C2     C33     1.416   .     A
C3     C7      1.363   .     S
C3     O75     1.284   .     A
C3     O78     1.284   .     A
C4     C8      1.363   .     S
C4     O77     1.284   .     A
C4     O76     1.284   .     A
C5     C36     1.401   .     A
C5     C34     1.401   .     A
C5     C166    1.521   1_545 S
C6     C35     1.401   .     A
C6     C165    1.521   .     S
C7     C648    1.163   1_554 S
C8     C327    1.163   .     S
C9     C14     1.385   .     A
C9     C20     1.398   .     A
C9     H37     1.084   .     S
C10    C15     1.387   .     A
C10    C21     1.399   .     A
C10    H48     1.084   .     S
C11    H59     1.084   .     S
C11    C21     1.398   .     A
C11    C16     1.386   .     A
C12    O72     1.290   .     A
C12    O73     1.294   .     A
C12    C19     1.429   .     S
C13    H63     1.084   .     S
C13    C20     1.398   .     A
C13    C17     1.386   .     A
C14    C18     1.411   .     A
C14    C27     1.510   .     S
C15    C19     1.408   .     A
C15    C28     1.510   .     S
C16    C29     1.509   .     S
C16    C19     1.407   .     A
C17    C30     1.511   .     S
C17    C18     1.410   .     A
C20    C101    1.452   1_455 S
C21    C100    1.452   .     S
C22    H38     1.111   .     S
C22    H68     1.103   .     S
C22    H39     1.109   .     S
C22    C23     1.502   .     S
C23    N69     1.383   .     A
C23    C34     1.415   .     A
C24    H42     1.109   .     S
C24    H41     1.111   .     S
C24    C31     1.497   .     S
C24    H40     1.098   .     S
C25    H43     1.103   .     S
C25    C32     1.503   .     S
C25    H44     1.111   .     S
C25    H45     1.109   .     S
C26    C33     1.499   .     S
C26    H49     1.109   .     S
C26    H47     1.111   .     S
C26    H46     1.100   .     S
C27    H50     1.110   .     S
C27    H51     1.107   .     S
C27    H52     1.111   .     S
C28    H55     1.110   .     S
C28    H54     1.110   .     S
C28    H53     1.111   .     S
C29    H58     1.111   .     S
C29    H57     1.111   .     S
C29    H56     1.104   .     S
C30    H60     1.111   .     S
C30    H62     1.110   .     S
C30    H61     1.111   .     S
C31    N70     1.383   .     A
C31    C35     1.415   .     A
C32    C36     1.415   .     A
C32    N69     1.383   .     A
C33    N70     1.384   .     A
C34    H64     1.082   .     S
C35    H65     1.082   .     S
C36    H66     1.082   .     S
N69    Zn80    2.030   .     S
N70    Zn79    2.030   .     S
O71    Zn79    1.996   .     S
O72    Zn80    1.996   .     S
O73    Zn79    2.000   .     S
O74    Zn80    2.000   .     S
O75    Zn79    1.943   .     S
O76    Zn80    1.943   .     S
O77    Zn79    1.944   .     S
O78    Zn80    1.944   .     S
C81    C98     1.431   .     S
C81    O151    1.295   .     A
C81    O154    1.290   .     A
C82    C86     1.401   .     A
C82    H147    1.082   .     S
C82    C113    1.416   .     A
C83    C87     1.363   .     S
C83    O155    1.284   .     A
C83    O158    1.284   .     A
C84    C88     1.363   .     S
C84    O157    1.284   .     A
C84    O156    1.284   .     A
C85    C116    1.401   .     A
C85    C114    1.401   .     A
C85    C246    1.521   1_545 S
C86    C115    1.401   .     A
C86    C245    1.521   .     S
C87    C728    1.163   1_554 S
C88    C407    1.163   .     S
C89    C94     1.385   .     A
C89    C100    1.398   .     A
C89    H117    1.084   .     S
C90    C95     1.387   .     A
C90    C101    1.399   .     A
C90    H128    1.084   .     S
C91    H139    1.084   .     S
C91    C101    1.398   .     A
C91    C96     1.386   .     A
C92    O152    1.290   .     A
C92    O153    1.294   .     A
C92    C99     1.429   .     S
C93    H143    1.084   .     S
C93    C100    1.398   .     A
C93    C97     1.386   .     A
C94    C98     1.411   .     A
C94    C107    1.510   .     S
C95    C99     1.408   .     A
C95    C108    1.510   .     S
C96    C109    1.509   .     S
C96    C99     1.407   .     A
C97    C110    1.511   .     S
C97    C98     1.410   .     A
C101   C20     1.452   1_655 S
C102   H118    1.111   .     S
C102   H148    1.103   .     S
C102   H119    1.109   .     S
C102   C103    1.502   .     S
C103   N149    1.383   .     A
C103   C114    1.415   .     A
C104   H122    1.109   .     S
C104   H121    1.111   .     S
C104   C111    1.497   .     S
C104   H120    1.098   .     S
C105   H123    1.103   .     S
C105   C112    1.503   .     S
C105   H124    1.111   .     S
C105   H125    1.109   .     S
C106   C113    1.499   .     S
C106   H129    1.109   .     S
C106   H127    1.111   .     S
C106   H126    1.100   .     S
C107   H130    1.110   .     S
C107   H131    1.107   .     S
C107   H132    1.111   .     S
C108   H135    1.110   .     S
C108   H134    1.110   .     S
C108   H133    1.111   .     S
C109   H138    1.111   .     S
C109   H137    1.111   .     S
C109   H136    1.104   .     S
C110   H140    1.111   .     S
C110   H142    1.110   .     S
C110   H141    1.111   .     S
C111   N150    1.383   .     A
C111   C115    1.415   .     A
C112   C116    1.415   .     A
C112   N149    1.383   .     A
C113   N150    1.384   .     A
C114   H144    1.082   .     S
C115   H145    1.082   .     S
C116   H146    1.082   .     S
N149   Zn160   2.030   .     S
N150   Zn159   2.030   .     S
O151   Zn159   1.996   .     S
O152   Zn160   1.996   .     S
O153   Zn159   2.000   .     S
O154   Zn160   2.000   .     S
O155   Zn159   1.943   .     S
O156   Zn160   1.943   .     S
O157   Zn159   1.944   .     S
O158   Zn160   1.944   .     S
C161   C178    1.431   .     S
C161   O231    1.295   .     A
C161   O234    1.290   .     A
C162   C166    1.401   .     A
C162   H227    1.082   .     S
C162   C193    1.416   .     A
C163   C167    1.363   .     S
C163   O235    1.284   .     A
C163   O238    1.284   .     A
C164   C168    1.363   .     S
C164   O237    1.284   .     A
C164   O236    1.284   .     A
C165   C196    1.401   .     A
C165   C194    1.401   .     A
C166   C195    1.401   .     A
C166   C5      1.521   1_565 S
C167   C808    1.163   1_554 S
C168   C487    1.163   .     S
C169   C174    1.385   .     A
C169   C180    1.398   .     A
C169   H197    1.084   .     S
C170   C175    1.387   .     A
C170   C181    1.399   .     A
C170   H208    1.084   .     S
C171   H219    1.084   .     S
C171   C181    1.398   .     A
C171   C176    1.386   .     A
C172   O232    1.290   .     A
C172   O233    1.294   .     A
C172   C179    1.429   .     S
C173   H223    1.084   .     S
C173   C180    1.398   .     A
C173   C177    1.386   .     A
C174   C178    1.411   .     A
C174   C187    1.510   .     S
C175   C179    1.408   .     A
C175   C188    1.510   .     S
C176   C189    1.509   .     S
C176   C179    1.407   .     A
C177   C190    1.511   .     S
C177   C178    1.410   .     A
C180   C261    1.452   1_455 S
C181   C260    1.452   .     S
C182   H198    1.111   .     S
C182   H228    1.103   .     S
C182   H199    1.109   .     S
C182   C183    1.502   .     S
C183   N229    1.383   .     A
C183   C194    1.415   .     A
C184   H202    1.109   .     S
C184   H201    1.111   .     S
C184   C191    1.497   .     S
C184   H200    1.098   .     S
C185   H203    1.103   .     S
C185   C192    1.503   .     S
C185   H204    1.111   .     S
C185   H205    1.109   .     S
C186   C193    1.499   .     S
C186   H209    1.109   .     S
C186   H207    1.111   .     S
C186   H206    1.100   .     S
C187   H210    1.110   .     S
C187   H211    1.107   .     S
C187   H212    1.111   .     S
C188   H215    1.110   .     S
C188   H214    1.110   .     S
C188   H213    1.111   .     S
C189   H218    1.111   .     S
C189   H217    1.111   .     S
C189   H216    1.104   .     S
C190   H220    1.111   .     S
C190   H222    1.110   .     S
C190   H221    1.111   .     S
C191   N230    1.383   .     A
C191   C195    1.415   .     A
C192   C196    1.415   .     A
C192   N229    1.383   .     A
C193   N230    1.384   .     A
C194   H224    1.082   .     S
C195   H225    1.082   .     S
C196   H226    1.082   .     S
N229   Zn240   2.030   .     S
N230   Zn239   2.030   .     S
O231   Zn239   1.996   .     S
O232   Zn240   1.996   .     S
O233   Zn239   2.000   .     S
O234   Zn240   2.000   .     S
O235   Zn239   1.943   .     S
O236   Zn240   1.943   .     S
O237   Zn239   1.944   .     S
O238   Zn240   1.944   .     S
C241   C258    1.431   .     S
C241   O311    1.295   .     A
C241   O314    1.290   .     A
C242   C246    1.401   .     A
C242   H307    1.082   .     S
C242   C273    1.416   .     A
C243   C247    1.363   .     S
C243   O315    1.284   .     A
C243   O318    1.284   .     A
C244   C248    1.363   .     S
C244   O317    1.284   .     A
C244   O316    1.284   .     A
C245   C276    1.401   .     A
C245   C274    1.401   .     A
C246   C275    1.401   .     A
C246   C85     1.521   1_565 S
C247   C888    1.163   1_554 S
C248   C567    1.163   .     S
C249   C254    1.385   .     A
C249   C260    1.398   .     A
C249   H277    1.084   .     S
C250   C255    1.387   .     A
C250   C261    1.399   .     A
C250   H288    1.084   .     S
C251   H299    1.084   .     S
C251   C261    1.398   .     A
C251   C256    1.386   .     A
C252   O312    1.290   .     A
C252   O313    1.294   .     A
C252   C259    1.429   .     S
C253   H303    1.084   .     S
C253   C260    1.398   .     A
C253   C257    1.386   .     A
C254   C258    1.411   .     A
C254   C267    1.510   .     S
C255   C259    1.408   .     A
C255   C268    1.510   .     S
C256   C269    1.509   .     S
C256   C259    1.407   .     A
C257   C270    1.511   .     S
C257   C258    1.410   .     A
C261   C180    1.452   1_655 S
C262   H278    1.111   .     S
C262   H308    1.103   .     S
C262   H279    1.109   .     S
C262   C263    1.502   .     S
C263   N309    1.383   .     A
C263   C274    1.415   .     A
C264   H282    1.109   .     S
C264   H281    1.111   .     S
C264   C271    1.497   .     S
C264   H280    1.098   .     S
C265   H283    1.103   .     S
C265   C272    1.503   .     S
C265   H284    1.111   .     S
C265   H285    1.109   .     S
C266   C273    1.499   .     S
C266   H289    1.109   .     S
C266   H287    1.111   .     S
C266   H286    1.100   .     S
C267   H290    1.110   .     S
C267   H291    1.107   .     S
C267   H292    1.111   .     S
C268   H295    1.110   .     S
C268   H294    1.110   .     S
C268   H293    1.111   .     S
C269   H298    1.111   .     S
C269   H297    1.111   .     S
C269   H296    1.104   .     S
C270   H300    1.111   .     S
C270   H302    1.110   .     S
C270   H301    1.111   .     S
C271   N310    1.383   .     A
C271   C275    1.415   .     A
C272   C276    1.415   .     A
C272   N309    1.383   .     A
C273   N310    1.384   .     A
C274   H304    1.082   .     S
C275   H305    1.082   .     S
C276   H306    1.082   .     S
N309   Zn320   2.030   .     S
N310   Zn319   2.030   .     S
O311   Zn319   1.996   .     S
O312   Zn320   1.996   .     S
O313   Zn319   2.000   .     S
O314   Zn320   2.000   .     S
O315   Zn319   1.943   .     S
O316   Zn320   1.943   .     S
O317   Zn319   1.944   .     S
O318   Zn320   1.944   .     S
C321   C338    1.431   .     S
C321   O391    1.295   .     A
C321   O394    1.290   .     A
C322   C326    1.401   .     A
C322   H387    1.082   .     S
C322   C353    1.416   .     A
C323   C327    1.363   .     S
C323   O395    1.284   .     A
C323   O398    1.284   .     A
C324   C328    1.363   .     S
C324   O397    1.284   .     A
C324   O396    1.284   .     A
C325   C356    1.401   .     A
C325   C354    1.401   .     A
C325   C486    1.521   1_545 S
C326   C355    1.401   .     A
C326   C485    1.521   .     S
C328   C647    1.163   .     S
C329   C334    1.385   .     A
C329   C340    1.398   .     A
C329   H357    1.084   .     S
C330   C335    1.387   .     A
C330   C341    1.399   .     A
C330   H368    1.084   .     S
C331   H379    1.084   .     S
C331   C341    1.398   .     A
C331   C336    1.386   .     A
C332   O392    1.290   .     A
C332   O393    1.294   .     A
C332   C339    1.429   .     S
C333   H383    1.084   .     S
C333   C340    1.398   .     A
C333   C337    1.386   .     A
C334   C338    1.411   .     A
C334   C347    1.510   .     S
C335   C339    1.408   .     A
C335   C348    1.510   .     S
C336   C349    1.509   .     S
C336   C339    1.407   .     A
C337   C350    1.511   .     S
C337   C338    1.410   .     A
C340   C421    1.452   1_455 S
C341   C420    1.452   .     S
C342   H358    1.111   .     S
C342   H388    1.103   .     S
C342   H359    1.109   .     S
C342   C343    1.502   .     S
C343   N389    1.383   .     A
C343   C354    1.415   .     A
C344   H362    1.109   .     S
C344   H361    1.111   .     S
C344   C351    1.497   .     S
C344   H360    1.098   .     S
C345   H363    1.103   .     S
C345   C352    1.503   .     S
C345   H364    1.111   .     S
C345   H365    1.109   .     S
C346   C353    1.499   .     S
C346   H369    1.109   .     S
C346   H367    1.111   .     S
C346   H366    1.100   .     S
C347   H370    1.110   .     S
C347   H371    1.107   .     S
C347   H372    1.111   .     S
C348   H375    1.110   .     S
C348   H374    1.110   .     S
C348   H373    1.111   .     S
C349   H378    1.111   .     S
C349   H377    1.111   .     S
C349   H376    1.104   .     S
C350   H380    1.111   .     S
C350   H382    1.110   .     S
C350   H381    1.111   .     S
C351   N390    1.383   .     A
C351   C355    1.415   .     A
C352   C356    1.415   .     A
C352   N389    1.383   .     A
C353   N390    1.384   .     A
C354   H384    1.082   .     S
C355   H385    1.082   .     S
C356   H386    1.082   .     S
N389   Zn400   2.030   .     S
N390   Zn399   2.030   .     S
O391   Zn399   1.996   .     S
O392   Zn400   1.996   .     S
O393   Zn399   2.000   .     S
O394   Zn400   2.000   .     S
O395   Zn399   1.943   .     S
O396   Zn400   1.943   .     S
O397   Zn399   1.944   .     S
O398   Zn400   1.944   .     S
C401   C418    1.431   .     S
C401   O471    1.295   .     A
C401   O474    1.290   .     A
C402   C406    1.401   .     A
C402   H467    1.082   .     S
C402   C433    1.416   .     A
C403   C407    1.363   .     S
C403   O475    1.284   .     A
C403   O478    1.284   .     A
C404   C408    1.363   .     S
C404   O477    1.284   .     A
C404   O476    1.284   .     A
C405   C436    1.401   .     A
C405   C434    1.401   .     A
C405   C566    1.521   1_545 S
C406   C435    1.401   .     A
C406   C565    1.521   .     S
C408   C727    1.163   .     S
C409   C414    1.385   .     A
C409   C420    1.398   .     A
C409   H437    1.084   .     S
C410   C415    1.387   .     A
C410   C421    1.399   .     A
C410   H448    1.084   .     S
C411   H459    1.084   .     S
C411   C421    1.398   .     A
C411   C416    1.386   .     A
C412   O472    1.290   .     A
C412   O473    1.294   .     A
C412   C419    1.429   .     S
C413   H463    1.084   .     S
C413   C420    1.398   .     A
C413   C417    1.386   .     A
C414   C418    1.411   .     A
C414   C427    1.510   .     S
C415   C419    1.408   .     A
C415   C428    1.510   .     S
C416   C429    1.509   .     S
C416   C419    1.407   .     A
C417   C430    1.511   .     S
C417   C418    1.410   .     A
C421   C340    1.452   1_655 S
C422   H438    1.111   .     S
C422   H468    1.103   .     S
C422   H439    1.109   .     S
C422   C423    1.502   .     S
C423   N469    1.383   .     A
C423   C434    1.415   .     A
C424   H442    1.109   .     S
C424   H441    1.111   .     S
C424   C431    1.497   .     S
C424   H440    1.098   .     S
C425   H443    1.103   .     S
C425   C432    1.503   .     S
C425   H444    1.111   .     S
C425   H445    1.109   .     S
C426   C433    1.499   .     S
C426   H449    1.109   .     S
C426   H447    1.111   .     S
C426   H446    1.100   .     S
C427   H450    1.110   .     S
C427   H451    1.107   .     S
C427   H452    1.111   .     S
C428   H455    1.110   .     S
C428   H454    1.110   .     S
C428   H453    1.111   .     S
C429   H458    1.111   .     S
C429   H457    1.111   .     S
C429   H456    1.104   .     S
C430   H460    1.111   .     S
C430   H462    1.110   .     S
C430   H461    1.111   .     S
C431   N470    1.383   .     A
C431   C435    1.415   .     A
C432   C436    1.415   .     A
C432   N469    1.383   .     A
C433   N470    1.384   .     A
C434   H464    1.082   .     S
C435   H465    1.082   .     S
C436   H466    1.082   .     S
N469   Zn480   2.030   .     S
N470   Zn479   2.030   .     S
O471   Zn479   1.996   .     S
O472   Zn480   1.996   .     S
O473   Zn479   2.000   .     S
O474   Zn480   2.000   .     S
O475   Zn479   1.943   .     S
O476   Zn480   1.943   .     S
O477   Zn479   1.944   .     S
O478   Zn480   1.944   .     S
C481   C498    1.431   .     S
C481   O551    1.295   .     A
C481   O554    1.290   .     A
C482   C486    1.401   .     A
C482   H547    1.082   .     S
C482   C513    1.416   .     A
C483   C487    1.363   .     S
C483   O555    1.284   .     A
C483   O558    1.284   .     A
C484   C488    1.363   .     S
C484   O557    1.284   .     A
C484   O556    1.284   .     A
C485   C516    1.401   .     A
C485   C514    1.401   .     A
C486   C515    1.401   .     A
C486   C325    1.521   1_565 S
C488   C807    1.163   .     S
C489   C494    1.385   .     A
C489   C500    1.398   .     A
C489   H517    1.084   .     S
C490   C495    1.387   .     A
C490   C501    1.399   .     A
C490   H528    1.084   .     S
C491   H539    1.084   .     S
C491   C501    1.398   .     A
C491   C496    1.386   .     A
C492   O552    1.290   .     A
C492   O553    1.294   .     A
C492   C499    1.429   .     S
C493   H543    1.084   .     S
C493   C500    1.398   .     A
C493   C497    1.386   .     A
C494   C498    1.411   .     A
C494   C507    1.510   .     S
C495   C499    1.408   .     A
C495   C508    1.510   .     S
C496   C509    1.509   .     S
C496   C499    1.407   .     A
C497   C510    1.511   .     S
C497   C498    1.410   .     A
C500   C581    1.452   1_455 S
C501   C580    1.452   .     S
C502   H518    1.111   .     S
C502   H548    1.103   .     S
C502   H519    1.109   .     S
C502   C503    1.502   .     S
C503   N549    1.383   .     A
C503   C514    1.415   .     A
C504   H522    1.109   .     S
C504   H521    1.111   .     S
C504   C511    1.497   .     S
C504   H520    1.098   .     S
C505   H523    1.103   .     S
C505   C512    1.503   .     S
C505   H524    1.111   .     S
C505   H525    1.109   .     S
C506   C513    1.499   .     S
C506   H529    1.109   .     S
C506   H527    1.111   .     S
C506   H526    1.100   .     S
C507   H530    1.110   .     S
C507   H531    1.107   .     S
C507   H532    1.111   .     S
C508   H535    1.110   .     S
C508   H534    1.110   .     S
C508   H533    1.111   .     S
C509   H538    1.111   .     S
C509   H537    1.111   .     S
C509   H536    1.104   .     S
C510   H540    1.111   .     S
C510   H542    1.110   .     S
C510   H541    1.111   .     S
C511   N550    1.383   .     A
C511   C515    1.415   .     A
C512   C516    1.415   .     A
C512   N549    1.383   .     A
C513   N550    1.384   .     A
C514   H544    1.082   .     S
C515   H545    1.082   .     S
C516   H546    1.082   .     S
N549   Zn560   2.030   .     S
N550   Zn559   2.030   .     S
O551   Zn559   1.996   .     S
O552   Zn560   1.996   .     S
O553   Zn559   2.000   .     S
O554   Zn560   2.000   .     S
O555   Zn559   1.943   .     S
O556   Zn560   1.943   .     S
O557   Zn559   1.944   .     S
O558   Zn560   1.944   .     S
C561   C578    1.431   .     S
C561   O631    1.295   .     A
C561   O634    1.290   .     A
C562   C566    1.401   .     A
C562   H627    1.082   .     S
C562   C593    1.416   .     A
C563   C567    1.363   .     S
C563   O635    1.284   .     A
C563   O638    1.284   .     A
C564   C568    1.363   .     S
C564   O637    1.284   .     A
C564   O636    1.284   .     A
C565   C596    1.401   .     A
C565   C594    1.401   .     A
C566   C595    1.401   .     A
C566   C405    1.521   1_565 S
C568   C887    1.163   .     S
C569   C574    1.385   .     A
C569   C580    1.398   .     A
C569   H597    1.084   .     S
C570   C575    1.387   .     A
C570   C581    1.399   .     A
C570   H608    1.084   .     S
C571   H619    1.084   .     S
C571   C581    1.398   .     A
C571   C576    1.386   .     A
C572   O632    1.290   .     A
C572   O633    1.294   .     A
C572   C579    1.429   .     S
C573   H623    1.084   .     S
C573   C580    1.398   .     A
C573   C577    1.386   .     A
C574   C578    1.411   .     A
C574   C587    1.510   .     S
C575   C579    1.408   .     A
C575   C588    1.510   .     S
C576   C589    1.509   .     S
C576   C579    1.407   .     A
C577   C590    1.511   .     S
C577   C578    1.410   .     A
C581   C500    1.452   1_655 S
C582   H598    1.111   .     S
C582   H628    1.103   .     S
C582   H599    1.109   .     S
C582   C583    1.502   .     S
C583   N629    1.383   .     A
C583   C594    1.415   .     A
C584   H602    1.109   .     S
C584   H601    1.111   .     S
C584   C591    1.497   .     S
C584   H600    1.098   .     S
C585   H603    1.103   .     S
C585   C592    1.503   .     S
C585   H604    1.111   .     S
C585   H605    1.109   .     S
C586   C593    1.499   .     S
C586   H609    1.109   .     S
C586   H607    1.111   .     S
C586   H606    1.100   .     S
C587   H610    1.110   .     S
C587   H611    1.107   .     S
C587   H612    1.111   .     S
C588   H615    1.110   .     S
C588   H614    1.110   .     S
C588   H613    1.111   .     S
C589   H618    1.111   .     S
C589   H617    1.111   .     S
C589   H616    1.104   .     S
C590   H620    1.111   .     S
C590   H622    1.110   .     S
C590   H621    1.111   .     S
C591   N630    1.383   .     A
C591   C595    1.415   .     A
C592   C596    1.415   .     A
C592   N629    1.383   .     A
C593   N630    1.384   .     A
C594   H624    1.082   .     S
C595   H625    1.082   .     S
C596   H626    1.082   .     S
N629   Zn640   2.030   .     S
N630   Zn639   2.030   .     S
O631   Zn639   1.996   .     S
O632   Zn640   1.996   .     S
O633   Zn639   2.000   .     S
O634   Zn640   2.000   .     S
O635   Zn639   1.943   .     S
O636   Zn640   1.943   .     S
O637   Zn639   1.944   .     S
O638   Zn640   1.944   .     S
C641   C658    1.431   .     S
C641   O711    1.295   .     A
C641   O714    1.290   .     A
C642   C646    1.401   .     A
C642   H707    1.082   .     S
C642   C673    1.416   .     A
C643   C647    1.363   .     S
C643   O715    1.284   .     A
C643   O718    1.284   .     A
C644   C648    1.363   .     S
C644   O717    1.284   .     A
C644   O716    1.284   .     A
C645   C676    1.401   .     A
C645   C674    1.401   .     A
C645   C806    1.521   1_545 S
C646   C675    1.401   .     A
C646   C805    1.521   .     S
C648   C7      1.163   1_556 S
C649   C654    1.385   .     A
C649   C660    1.398   .     A
C649   H677    1.084   .     S
C650   C655    1.387   .     A
C650   C661    1.399   .     A
C650   H688    1.084   .     S
C651   H699    1.084   .     S
C651   C661    1.398   .     A
C651   C656    1.386   .     A
C652   O712    1.290   .     A
C652   O713    1.294   .     A
C652   C659    1.429   .     S
C653   H703    1.084   .     S
C653   C660    1.398   .     A
C653   C657    1.386   .     A
C654   C658    1.411   .     A
C654   C667    1.510   .     S
C655   C659    1.408   .     A
C655   C668    1.510   .     S
C656   C669    1.509   .     S
C656   C659    1.407   .     A
C657   C670    1.511   .     S
C657   C658    1.410   .     A
C660   C741    1.452   1_455 S
C661   C740    1.452   .     S
C662   H678    1.111   .     S
C662   H708    1.103   .     S
C662   H679    1.109   .     S
C662   C663    1.502   .     S
C663   N709    1.383   .     A
C663   C674    1.415   .     A
C664   H682    1.109   .     S
C664   H681    1.111   .     S
C664   C671    1.497   .     S
C664   H680    1.098   .     S
C665   H683    1.103   .     S
C665   C672    1.503   .     S
C665   H684    1.111   .     S
C665   H685    1.109   .     S
C666   C673    1.499   .     S
C666   H689    1.109   .     S
C666   H687    1.111   .     S
C666   H686    1.100   .     S
C667   H690    1.110   .     S
C667   H691    1.107   .     S
C667   H692    1.111   .     S
C668   H695    1.110   .     S
C668   H694    1.110   .     S
C668   H693    1.111   .     S
C669   H698    1.111   .     S
C669   H697    1.111   .     S
C669   H696    1.104   .     S
C670   H700    1.111   .     S
C670   H702    1.110   .     S
C670   H701    1.111   .     S
C671   N710    1.383   .     A
C671   C675    1.415   .     A
C672   C676    1.415   .     A
C672   N709    1.383   .     A
C673   N710    1.384   .     A
C674   H704    1.082   .     S
C675   H705    1.082   .     S
C676   H706    1.082   .     S
N709   Zn720   2.030   .     S
N710   Zn719   2.030   .     S
O711   Zn719   1.996   .     S
O712   Zn720   1.996   .     S
O713   Zn719   2.000   .     S
O714   Zn720   2.000   .     S
O715   Zn719   1.943   .     S
O716   Zn720   1.943   .     S
O717   Zn719   1.944   .     S
O718   Zn720   1.944   .     S
C721   C738    1.431   .     S
C721   O791    1.295   .     A
C721   O794    1.290   .     A
C722   C726    1.401   .     A
C722   H787    1.082   .     S
C722   C753    1.416   .     A
C723   C727    1.363   .     S
C723   O795    1.284   .     A
C723   O798    1.284   .     A
C724   C728    1.363   .     S
C724   O797    1.284   .     A
C724   O796    1.284   .     A
C725   C756    1.401   .     A
C725   C754    1.401   .     A
C725   C886    1.521   1_545 S
C726   C755    1.401   .     A
C726   C885    1.521   .     S
C728   C87     1.163   1_556 S
C729   C734    1.385   .     A
C729   C740    1.398   .     A
C729   H757    1.084   .     S
C730   C735    1.387   .     A
C730   C741    1.399   .     A
C730   H768    1.084   .     S
C731   H779    1.084   .     S
C731   C741    1.398   .     A
C731   C736    1.386   .     A
C732   O792    1.290   .     A
C732   O793    1.294   .     A
C732   C739    1.429   .     S
C733   H783    1.084   .     S
C733   C740    1.398   .     A
C733   C737    1.386   .     A
C734   C738    1.411   .     A
C734   C747    1.510   .     S
C735   C739    1.408   .     A
C735   C748    1.510   .     S
C736   C749    1.509   .     S
C736   C739    1.407   .     A
C737   C750    1.511   .     S
C737   C738    1.410   .     A
C741   C660    1.452   1_655 S
C742   H758    1.111   .     S
C742   H788    1.103   .     S
C742   H759    1.109   .     S
C742   C743    1.502   .     S
C743   N789    1.383   .     A
C743   C754    1.415   .     A
C744   H762    1.109   .     S
C744   H761    1.111   .     S
C744   C751    1.497   .     S
C744   H760    1.098   .     S
C745   H763    1.103   .     S
C745   C752    1.503   .     S
C745   H764    1.111   .     S
C745   H765    1.109   .     S
C746   C753    1.499   .     S
C746   H769    1.109   .     S
C746   H767    1.111   .     S
C746   H766    1.100   .     S
C747   H770    1.110   .     S
C747   H771    1.107   .     S
C747   H772    1.111   .     S
C748   H775    1.110   .     S
C748   H774    1.110   .     S
C748   H773    1.111   .     S
C749   H778    1.111   .     S
C749   H777    1.111   .     S
C749   H776    1.104   .     S
C750   H780    1.111   .     S
C750   H782    1.110   .     S
C750   H781    1.111   .     S
C751   N790    1.383   .     A
C751   C755    1.415   .     A
C752   C756    1.415   .     A
C752   N789    1.383   .     A
C753   N790    1.384   .     A
C754   H784    1.082   .     S
C755   H785    1.082   .     S
C756   H786    1.082   .     S
N789   Zn800   2.030   .     S
N790   Zn799   2.030   .     S
O791   Zn799   1.996   .     S
O792   Zn800   1.996   .     S
O793   Zn799   2.000   .     S
O794   Zn800   2.000   .     S
O795   Zn799   1.943   .     S
O796   Zn800   1.943   .     S
O797   Zn799   1.944   .     S
O798   Zn800   1.944   .     S
C801   C818    1.431   .     S
C801   O871    1.295   .     A
C801   O874    1.290   .     A
C802   C806    1.401   .     A
C802   H867    1.082   .     S
C802   C833    1.416   .     A
C803   C807    1.363   .     S
C803   O875    1.284   .     A
C803   O878    1.284   .     A
C804   C808    1.363   .     S
C804   O877    1.284   .     A
C804   O876    1.284   .     A
C805   C836    1.401   .     A
C805   C834    1.401   .     A
C806   C835    1.401   .     A
C806   C645    1.521   1_565 S
C808   C167    1.163   1_556 S
C809   C814    1.385   .     A
C809   C820    1.398   .     A
C809   H837    1.084   .     S
C810   C815    1.387   .     A
C810   C821    1.399   .     A
C810   H848    1.084   .     S
C811   H859    1.084   .     S
C811   C821    1.398   .     A
C811   C816    1.386   .     A
C812   O872    1.290   .     A
C812   O873    1.294   .     A
C812   C819    1.429   .     S
C813   H863    1.084   .     S
C813   C820    1.398   .     A
C813   C817    1.386   .     A
C814   C818    1.411   .     A
C814   C827    1.510   .     S
C815   C819    1.408   .     A
C815   C828    1.510   .     S
C816   C829    1.509   .     S
C816   C819    1.407   .     A
C817   C830    1.511   .     S
C817   C818    1.410   .     A
C820   C901    1.452   1_455 S
C821   C900    1.452   .     S
C822   H838    1.111   .     S
C822   H868    1.103   .     S
C822   H839    1.109   .     S
C822   C823    1.502   .     S
C823   N869    1.383   .     A
C823   C834    1.415   .     A
C824   H842    1.109   .     S
C824   H841    1.111   .     S
C824   C831    1.497   .     S
C824   H840    1.098   .     S
C825   H843    1.103   .     S
C825   C832    1.503   .     S
C825   H844    1.111   .     S
C825   H845    1.109   .     S
C826   C833    1.499   .     S
C826   H849    1.109   .     S
C826   H847    1.111   .     S
C826   H846    1.100   .     S
C827   H850    1.110   .     S
C827   H851    1.107   .     S
C827   H852    1.111   .     S
C828   H855    1.110   .     S
C828   H854    1.110   .     S
C828   H853    1.111   .     S
C829   H858    1.111   .     S
C829   H857    1.111   .     S
C829   H856    1.104   .     S
C830   H860    1.111   .     S
C830   H862    1.110   .     S
C830   H861    1.111   .     S
C831   N870    1.383   .     A
C831   C835    1.415   .     A
C832   C836    1.415   .     A
C832   N869    1.383   .     A
C833   N870    1.384   .     A
C834   H864    1.082   .     S
C835   H865    1.082   .     S
C836   H866    1.082   .     S
N869   Zn880   2.030   .     S
N870   Zn879   2.030   .     S
O871   Zn879   1.996   .     S
O872   Zn880   1.996   .     S
O873   Zn879   2.000   .     S
O874   Zn880   2.000   .     S
O875   Zn879   1.943   .     S
O876   Zn880   1.943   .     S
O877   Zn879   1.944   .     S
O878   Zn880   1.944   .     S
C881   C898    1.431   .     S
C881   O951    1.295   .     A
C881   O954    1.290   .     A
C882   C886    1.401   .     A
C882   H947    1.082   .     S
C882   C913    1.416   .     A
C883   C887    1.363   .     S
C883   O955    1.284   .     A
C883   O958    1.284   .     A
C884   C888    1.363   .     S
C884   O957    1.284   .     A
C884   O956    1.284   .     A
C885   C916    1.401   .     A
C885   C914    1.401   .     A
C886   C915    1.401   .     A
C886   C725    1.521   1_565 S
C888   C247    1.163   1_556 S
C889   C894    1.385   .     A
C889   C900    1.398   .     A
C889   H917    1.084   .     S
C890   C895    1.387   .     A
C890   C901    1.399   .     A
C890   H928    1.084   .     S
C891   H939    1.084   .     S
C891   C901    1.398   .     A
C891   C896    1.386   .     A
C892   O952    1.290   .     A
C892   O953    1.294   .     A
C892   C899    1.429   .     S
C893   H943    1.084   .     S
C893   C900    1.398   .     A
C893   C897    1.386   .     A
C894   C898    1.411   .     A
C894   C907    1.510   .     S
C895   C899    1.408   .     A
C895   C908    1.510   .     S
C896   C909    1.509   .     S
C896   C899    1.407   .     A
C897   C910    1.511   .     S
C897   C898    1.410   .     A
C901   C820    1.452   1_655 S
C902   H918    1.111   .     S
C902   H948    1.103   .     S
C902   H919    1.109   .     S
C902   C903    1.502   .     S
C903   N949    1.383   .     A
C903   C914    1.415   .     A
C904   H922    1.109   .     S
C904   H921    1.111   .     S
C904   C911    1.497   .     S
C904   H920    1.098   .     S
C905   H923    1.103   .     S
C905   C912    1.503   .     S
C905   H924    1.111   .     S
C905   H925    1.109   .     S
C906   C913    1.499   .     S
C906   H929    1.109   .     S
C906   H927    1.111   .     S
C906   H926    1.100   .     S
C907   H930    1.110   .     S
C907   H931    1.107   .     S
C907   H932    1.111   .     S
C908   H935    1.110   .     S
C908   H934    1.110   .     S
C908   H933    1.111   .     S
C909   H938    1.111   .     S
C909   H937    1.111   .     S
C909   H936    1.104   .     S
C910   H940    1.111   .     S
C910   H942    1.110   .     S
C910   H941    1.111   .     S
C911   N950    1.383   .     A
C911   C915    1.415   .     A
C912   C916    1.415   .     A
C912   N949    1.383   .     A
C913   N950    1.384   .     A
C914   H944    1.082   .     S
C915   H945    1.082   .     S
C916   H946    1.082   .     S
N949   Zn960   2.030   .     S
N950   Zn959   2.030   .     S
O951   Zn959   1.996   .     S
O952   Zn960   1.996   .     S
O953   Zn959   2.000   .     S
O954   Zn960   2.000   .     S
O955   Zn959   1.943   .     S
O956   Zn960   1.943   .     S
O957   Zn959   1.944   .     S
O958   Zn960   1.944   .     S
