data_str_m3_o5_o17_pcu_sym.7
_audit_creation_date              2020-01-03
_audit_creation_method            'Materials Studio'
_symmetry_space_group_name_H-M    'P1'
_symmetry_Int_Tables_number       1
_symmetry_cell_setting            triclinic
loop_
_symmetry_equiv_pos_as_xyz
  x,y,z
_cell_length_a                    29.9176
_cell_length_b                    26.7513
_cell_length_c                    24.3609
_cell_angle_alpha                 90.0371
_cell_angle_beta                  89.9998
_cell_angle_gamma                 90.0000
loop_
_atom_site_label
_atom_site_type_symbol
_atom_site_fract_x
_atom_site_fract_y
_atom_site_fract_z
_atom_site_U_iso_or_equiv
_atom_site_adp_type
_atom_site_occupancy
O1     O     0.25000   0.09512   0.21228   0.00000  Uiso   1.00
O2     O     0.25000   0.23822   0.12105   0.00000  Uiso   1.00
O3     O     0.25000   0.23822   0.21228   0.00000  Uiso   1.00
O4     O     0.25000   0.09512   0.12105   0.00000  Uiso   1.00
H5     H     0.45982   0.04203   0.19329   0.00000  Uiso   1.00
H6     H     0.04018   0.29131   0.14003   0.00000  Uiso   1.00
H7     H     0.45982   0.29131   0.14003   0.00000  Uiso   1.00
H8     H     0.04018   0.04203   0.19329   0.00000  Uiso   1.00
C9     C     0.25000   0.07269   0.16666   0.00000  Uiso   1.00
C10    C     0.25000   0.26064   0.16668   0.00000  Uiso   1.00
O11    O     0.18393   0.16667   0.21230   0.00000  Uiso   1.00
O12    O     0.31608   0.16667   0.12104   0.00000  Uiso   1.00
O13    O     0.31608   0.16667   0.21230   0.00000  Uiso   1.00
O14    O     0.18393   0.16667   0.12104   0.00000  Uiso   1.00
C15    C     0.16343   0.16667   0.16667   0.00000  Uiso   1.00
C16    C     0.33657   0.16667   0.16667   0.00000  Uiso   1.00
Zn17   Zn    0.25000   0.16667   0.22759   0.00000  Uiso   1.00
Zn18   Zn    0.25000   0.16667   0.10574   0.00000  Uiso   1.00
N19    N     0.25000   0.16667   0.02455   0.00000  Uiso   1.00
N20    N     0.25000   0.16667   0.30879   0.00000  Uiso   1.00
C21    C     0.40668   0.21177   0.15715   0.00000  Uiso   1.00
C22    C     0.09332   0.12157   0.17618   0.00000  Uiso   1.00
C23    C     0.40668   0.12157   0.17618   0.00000  Uiso   1.00
C24    C     0.09332   0.21177   0.15715   0.00000  Uiso   1.00
C25    C     0.38412   0.16667   0.16667   0.00000  Uiso   1.00
C26    C     0.11588   0.16667   0.16667   0.00000  Uiso   1.00
C27    C     0.45323   0.12147   0.17624   0.00000  Uiso   1.00
C28    C     0.04677   0.21186   0.15708   0.00000  Uiso   1.00
C29    C     0.45323   0.21186   0.15708   0.00000  Uiso   1.00
C30    C     0.04677   0.12147   0.17624   0.00000  Uiso   1.00
C31    C     0.47659   0.16667   0.16666   0.00000  Uiso   1.00
C32    C     0.02341   0.16667   0.16666   0.00000  Uiso   1.00
C33    C     0.47688   0.07705   0.18571   0.00000  Uiso   1.00
C34    C     0.02312   0.25628   0.14762   0.00000  Uiso   1.00
C35    C     0.47688   0.25628   0.14762   0.00000  Uiso   1.00
C36    C     0.02312   0.07705   0.18571   0.00000  Uiso   1.00
C37    C     0.25000   0.02175   0.16665   0.00000  Uiso   1.00
C38    C     0.25000   0.31159   0.16668   0.00000  Uiso   1.00
N39    N     0.38250   0.25754   0.14816   0.00000  Uiso   1.00
H40    H     0.36195   0.26427   0.18209   0.00000  Uiso   1.00
H41    H     0.36236   0.25334   0.11341   0.00000  Uiso   1.00
N42    N     0.11750   0.07580   0.18517   0.00000  Uiso   1.00
H43    H     0.13763   0.07999   0.21994   0.00000  Uiso   1.00
H44    H     0.13806   0.06907   0.15125   0.00000  Uiso   1.00
N45    N     0.38250   0.07580   0.18517   0.00000  Uiso   1.00
H46    H     0.36195   0.06907   0.15124   0.00000  Uiso   1.00
H47    H     0.36236   0.07999   0.21993   0.00000  Uiso   1.00
N48    N     0.11750   0.25754   0.14816   0.00000  Uiso   1.00
H49    H     0.13764   0.25334   0.11341   0.00000  Uiso   1.00
H50    H     0.13805   0.26427   0.18209   0.00000  Uiso   1.00
O51    O     0.75000   0.09512   0.21228   0.00000  Uiso   1.00
O52    O     0.75000   0.23822   0.12105   0.00000  Uiso   1.00
O53    O     0.75000   0.23822   0.21228   0.00000  Uiso   1.00
O54    O     0.75000   0.09512   0.12105   0.00000  Uiso   1.00
H55    H     0.95982   0.04203   0.19329   0.00000  Uiso   1.00
H56    H     0.54018   0.29131   0.14003   0.00000  Uiso   1.00
H57    H     0.95982   0.29131   0.14003   0.00000  Uiso   1.00
H58    H     0.54018   0.04203   0.19329   0.00000  Uiso   1.00
C59    C     0.75000   0.07269   0.16666   0.00000  Uiso   1.00
C60    C     0.75000   0.26064   0.16668   0.00000  Uiso   1.00
O61    O     0.68393   0.16667   0.21230   0.00000  Uiso   1.00
O62    O     0.81608   0.16667   0.12104   0.00000  Uiso   1.00
O63    O     0.81608   0.16667   0.21230   0.00000  Uiso   1.00
O64    O     0.68393   0.16667   0.12104   0.00000  Uiso   1.00
C65    C     0.66343   0.16667   0.16667   0.00000  Uiso   1.00
C66    C     0.83657   0.16667   0.16667   0.00000  Uiso   1.00
Zn67   Zn    0.75000   0.16667   0.22759   0.00000  Uiso   1.00
Zn68   Zn    0.75000   0.16667   0.10574   0.00000  Uiso   1.00
N69    N     0.75000   0.16667   0.02455   0.00000  Uiso   1.00
N70    N     0.75000   0.16667   0.30879   0.00000  Uiso   1.00
C71    C     0.90668   0.21177   0.15715   0.00000  Uiso   1.00
C72    C     0.59332   0.12157   0.17618   0.00000  Uiso   1.00
C73    C     0.90668   0.12157   0.17618   0.00000  Uiso   1.00
C74    C     0.59332   0.21177   0.15715   0.00000  Uiso   1.00
C75    C     0.88412   0.16667   0.16667   0.00000  Uiso   1.00
C76    C     0.61588   0.16667   0.16667   0.00000  Uiso   1.00
C77    C     0.95323   0.12147   0.17624   0.00000  Uiso   1.00
C78    C     0.54677   0.21186   0.15708   0.00000  Uiso   1.00
C79    C     0.95323   0.21186   0.15708   0.00000  Uiso   1.00
C80    C     0.54677   0.12147   0.17624   0.00000  Uiso   1.00
C81    C     0.97659   0.16667   0.16666   0.00000  Uiso   1.00
C82    C     0.52341   0.16667   0.16666   0.00000  Uiso   1.00
C83    C     0.97688   0.07705   0.18571   0.00000  Uiso   1.00
C84    C     0.52312   0.25628   0.14762   0.00000  Uiso   1.00
C85    C     0.97688   0.25628   0.14762   0.00000  Uiso   1.00
C86    C     0.52312   0.07705   0.18571   0.00000  Uiso   1.00
C87    C     0.75000   0.02175   0.16665   0.00000  Uiso   1.00
C88    C     0.75000   0.31159   0.16668   0.00000  Uiso   1.00
N89    N     0.88250   0.25754   0.14816   0.00000  Uiso   1.00
H90    H     0.86195   0.26427   0.18209   0.00000  Uiso   1.00
H91    H     0.86236   0.25334   0.11341   0.00000  Uiso   1.00
N92    N     0.61750   0.07580   0.18517   0.00000  Uiso   1.00
H93    H     0.63763   0.07999   0.21994   0.00000  Uiso   1.00
H94    H     0.63806   0.06907   0.15125   0.00000  Uiso   1.00
N95    N     0.88250   0.07580   0.18517   0.00000  Uiso   1.00
H96    H     0.86195   0.06907   0.15124   0.00000  Uiso   1.00
H97    H     0.86236   0.07999   0.21993   0.00000  Uiso   1.00
N98    N     0.61750   0.25754   0.14816   0.00000  Uiso   1.00
H99    H     0.63764   0.25334   0.11341   0.00000  Uiso   1.00
H100   H     0.63805   0.26427   0.18209   0.00000  Uiso   1.00
O101   O     0.25000   0.42845   0.21228   0.00000  Uiso   1.00
O102   O     0.25000   0.57155   0.12105   0.00000  Uiso   1.00
O103   O     0.25000   0.57155   0.21228   0.00000  Uiso   1.00
O104   O     0.25000   0.42845   0.12105   0.00000  Uiso   1.00
H105   H     0.45982   0.37536   0.19329   0.00000  Uiso   1.00
H106   H     0.04018   0.62464   0.14003   0.00000  Uiso   1.00
H107   H     0.45982   0.62464   0.14003   0.00000  Uiso   1.00
H108   H     0.04018   0.37536   0.19329   0.00000  Uiso   1.00
C109   C     0.25000   0.40603   0.16666   0.00000  Uiso   1.00
C110   C     0.25000   0.59397   0.16668   0.00000  Uiso   1.00
O111   O     0.18393   0.50000   0.21230   0.00000  Uiso   1.00
O112   O     0.31608   0.50000   0.12104   0.00000  Uiso   1.00
O113   O     0.31608   0.50000   0.21230   0.00000  Uiso   1.00
O114   O     0.18393   0.50000   0.12104   0.00000  Uiso   1.00
C115   C     0.16343   0.50000   0.16667   0.00000  Uiso   1.00
C116   C     0.33657   0.50000   0.16667   0.00000  Uiso   1.00
Zn117  Zn    0.25000   0.50000   0.22759   0.00000  Uiso   1.00
Zn118  Zn    0.25000   0.50000   0.10574   0.00000  Uiso   1.00
N119   N     0.25000   0.50000   0.02455   0.00000  Uiso   1.00
N120   N     0.25000   0.50000   0.30879   0.00000  Uiso   1.00
C121   C     0.40668   0.54510   0.15715   0.00000  Uiso   1.00
C122   C     0.09332   0.45490   0.17618   0.00000  Uiso   1.00
C123   C     0.40668   0.45490   0.17618   0.00000  Uiso   1.00
C124   C     0.09332   0.54510   0.15715   0.00000  Uiso   1.00
C125   C     0.38412   0.50000   0.16667   0.00000  Uiso   1.00
C126   C     0.11588   0.50000   0.16667   0.00000  Uiso   1.00
C127   C     0.45323   0.45480   0.17624   0.00000  Uiso   1.00
C128   C     0.04677   0.54520   0.15708   0.00000  Uiso   1.00
C129   C     0.45323   0.54520   0.15708   0.00000  Uiso   1.00
C130   C     0.04677   0.45480   0.17624   0.00000  Uiso   1.00
C131   C     0.47659   0.50000   0.16666   0.00000  Uiso   1.00
C132   C     0.02341   0.50000   0.16666   0.00000  Uiso   1.00
C133   C     0.47688   0.41039   0.18571   0.00000  Uiso   1.00
C134   C     0.02312   0.58961   0.14762   0.00000  Uiso   1.00
C135   C     0.47688   0.58961   0.14762   0.00000  Uiso   1.00
C136   C     0.02312   0.41039   0.18571   0.00000  Uiso   1.00
C137   C     0.25000   0.35508   0.16665   0.00000  Uiso   1.00
C138   C     0.25000   0.64492   0.16668   0.00000  Uiso   1.00
N139   N     0.38250   0.59087   0.14816   0.00000  Uiso   1.00
H140   H     0.36195   0.59760   0.18209   0.00000  Uiso   1.00
H141   H     0.36236   0.58667   0.11341   0.00000  Uiso   1.00
N142   N     0.11750   0.40913   0.18517   0.00000  Uiso   1.00
H143   H     0.13763   0.41333   0.21994   0.00000  Uiso   1.00
H144   H     0.13806   0.40240   0.15125   0.00000  Uiso   1.00
N145   N     0.38250   0.40913   0.18517   0.00000  Uiso   1.00
H146   H     0.36195   0.40240   0.15124   0.00000  Uiso   1.00
H147   H     0.36236   0.41333   0.21993   0.00000  Uiso   1.00
N148   N     0.11750   0.59087   0.14816   0.00000  Uiso   1.00
H149   H     0.13764   0.58667   0.11341   0.00000  Uiso   1.00
H150   H     0.13805   0.59760   0.18209   0.00000  Uiso   1.00
O151   O     0.75000   0.42845   0.21228   0.00000  Uiso   1.00
O152   O     0.75000   0.57155   0.12105   0.00000  Uiso   1.00
O153   O     0.75000   0.57155   0.21228   0.00000  Uiso   1.00
O154   O     0.75000   0.42845   0.12105   0.00000  Uiso   1.00
H155   H     0.95982   0.37536   0.19329   0.00000  Uiso   1.00
H156   H     0.54018   0.62464   0.14003   0.00000  Uiso   1.00
H157   H     0.95982   0.62464   0.14003   0.00000  Uiso   1.00
H158   H     0.54018   0.37536   0.19329   0.00000  Uiso   1.00
C159   C     0.75000   0.40603   0.16666   0.00000  Uiso   1.00
C160   C     0.75000   0.59397   0.16668   0.00000  Uiso   1.00
O161   O     0.68393   0.50000   0.21230   0.00000  Uiso   1.00
O162   O     0.81608   0.50000   0.12104   0.00000  Uiso   1.00
O163   O     0.81608   0.50000   0.21230   0.00000  Uiso   1.00
O164   O     0.68393   0.50000   0.12104   0.00000  Uiso   1.00
C165   C     0.66343   0.50000   0.16667   0.00000  Uiso   1.00
C166   C     0.83657   0.50000   0.16667   0.00000  Uiso   1.00
Zn167  Zn    0.75000   0.50000   0.22759   0.00000  Uiso   1.00
Zn168  Zn    0.75000   0.50000   0.10574   0.00000  Uiso   1.00
N169   N     0.75000   0.50000   0.02455   0.00000  Uiso   1.00
N170   N     0.75000   0.50000   0.30879   0.00000  Uiso   1.00
C171   C     0.90668   0.54510   0.15715   0.00000  Uiso   1.00
C172   C     0.59332   0.45490   0.17618   0.00000  Uiso   1.00
C173   C     0.90668   0.45490   0.17618   0.00000  Uiso   1.00
C174   C     0.59332   0.54510   0.15715   0.00000  Uiso   1.00
C175   C     0.88412   0.50000   0.16667   0.00000  Uiso   1.00
C176   C     0.61588   0.50000   0.16667   0.00000  Uiso   1.00
C177   C     0.95323   0.45480   0.17624   0.00000  Uiso   1.00
C178   C     0.54677   0.54520   0.15708   0.00000  Uiso   1.00
C179   C     0.95323   0.54520   0.15708   0.00000  Uiso   1.00
C180   C     0.54677   0.45480   0.17624   0.00000  Uiso   1.00
C181   C     0.97659   0.50000   0.16666   0.00000  Uiso   1.00
C182   C     0.52341   0.50000   0.16666   0.00000  Uiso   1.00
C183   C     0.97688   0.41039   0.18571   0.00000  Uiso   1.00
C184   C     0.52312   0.58961   0.14762   0.00000  Uiso   1.00
C185   C     0.97688   0.58961   0.14762   0.00000  Uiso   1.00
C186   C     0.52312   0.41039   0.18571   0.00000  Uiso   1.00
C187   C     0.75000   0.35508   0.16665   0.00000  Uiso   1.00
C188   C     0.75000   0.64492   0.16668   0.00000  Uiso   1.00
N189   N     0.88250   0.59087   0.14816   0.00000  Uiso   1.00
H190   H     0.86195   0.59760   0.18209   0.00000  Uiso   1.00
H191   H     0.86236   0.58667   0.11341   0.00000  Uiso   1.00
N192   N     0.61750   0.40913   0.18517   0.00000  Uiso   1.00
H193   H     0.63763   0.41333   0.21994   0.00000  Uiso   1.00
H194   H     0.63806   0.40240   0.15125   0.00000  Uiso   1.00
N195   N     0.88250   0.40913   0.18517   0.00000  Uiso   1.00
H196   H     0.86195   0.40240   0.15124   0.00000  Uiso   1.00
H197   H     0.86236   0.41333   0.21993   0.00000  Uiso   1.00
N198   N     0.61750   0.59087   0.14816   0.00000  Uiso   1.00
H199   H     0.63764   0.58667   0.11341   0.00000  Uiso   1.00
H200   H     0.63805   0.59760   0.18209   0.00000  Uiso   1.00
O201   O     0.25000   0.76178   0.21228   0.00000  Uiso   1.00
O202   O     0.25000   0.90488   0.12105   0.00000  Uiso   1.00
O203   O     0.25000   0.90488   0.21228   0.00000  Uiso   1.00
O204   O     0.25000   0.76178   0.12105   0.00000  Uiso   1.00
H205   H     0.45982   0.70869   0.19329   0.00000  Uiso   1.00
H206   H     0.04018   0.95797   0.14003   0.00000  Uiso   1.00
H207   H     0.45982   0.95797   0.14003   0.00000  Uiso   1.00
H208   H     0.04018   0.70869   0.19329   0.00000  Uiso   1.00
C209   C     0.25000   0.73936   0.16666   0.00000  Uiso   1.00
C210   C     0.25000   0.92731   0.16668   0.00000  Uiso   1.00
O211   O     0.18393   0.83333   0.21230   0.00000  Uiso   1.00
O212   O     0.31608   0.83333   0.12104   0.00000  Uiso   1.00
O213   O     0.31608   0.83333   0.21230   0.00000  Uiso   1.00
O214   O     0.18393   0.83333   0.12104   0.00000  Uiso   1.00
C215   C     0.16343   0.83333   0.16667   0.00000  Uiso   1.00
C216   C     0.33657   0.83333   0.16667   0.00000  Uiso   1.00
Zn217  Zn    0.25000   0.83333   0.22759   0.00000  Uiso   1.00
Zn218  Zn    0.25000   0.83333   0.10574   0.00000  Uiso   1.00
N219   N     0.25000   0.83333   0.02455   0.00000  Uiso   1.00
N220   N     0.25000   0.83333   0.30879   0.00000  Uiso   1.00
C221   C     0.40668   0.87843   0.15715   0.00000  Uiso   1.00
C222   C     0.09332   0.78823   0.17618   0.00000  Uiso   1.00
C223   C     0.40668   0.78823   0.17618   0.00000  Uiso   1.00
C224   C     0.09332   0.87843   0.15715   0.00000  Uiso   1.00
C225   C     0.38412   0.83333   0.16667   0.00000  Uiso   1.00
C226   C     0.11588   0.83333   0.16667   0.00000  Uiso   1.00
C227   C     0.45323   0.78813   0.17624   0.00000  Uiso   1.00
C228   C     0.04677   0.87853   0.15708   0.00000  Uiso   1.00
C229   C     0.45323   0.87853   0.15708   0.00000  Uiso   1.00
C230   C     0.04677   0.78813   0.17624   0.00000  Uiso   1.00
C231   C     0.47659   0.83333   0.16666   0.00000  Uiso   1.00
C232   C     0.02341   0.83333   0.16666   0.00000  Uiso   1.00
C233   C     0.47688   0.74372   0.18571   0.00000  Uiso   1.00
C234   C     0.02312   0.92295   0.14762   0.00000  Uiso   1.00
C235   C     0.47688   0.92295   0.14762   0.00000  Uiso   1.00
C236   C     0.02312   0.74372   0.18571   0.00000  Uiso   1.00
C237   C     0.25000   0.68841   0.16665   0.00000  Uiso   1.00
C238   C     0.25000   0.97825   0.16668   0.00000  Uiso   1.00
N239   N     0.38250   0.92420   0.14816   0.00000  Uiso   1.00
H240   H     0.36195   0.93093   0.18209   0.00000  Uiso   1.00
H241   H     0.36236   0.92001   0.11341   0.00000  Uiso   1.00
N242   N     0.11750   0.74246   0.18517   0.00000  Uiso   1.00
H243   H     0.13763   0.74666   0.21994   0.00000  Uiso   1.00
H244   H     0.13806   0.73574   0.15125   0.00000  Uiso   1.00
N245   N     0.38250   0.74246   0.18517   0.00000  Uiso   1.00
H246   H     0.36195   0.73573   0.15124   0.00000  Uiso   1.00
H247   H     0.36236   0.74666   0.21993   0.00000  Uiso   1.00
N248   N     0.11750   0.92420   0.14816   0.00000  Uiso   1.00
H249   H     0.13764   0.92001   0.11341   0.00000  Uiso   1.00
H250   H     0.13805   0.93093   0.18209   0.00000  Uiso   1.00
O251   O     0.75000   0.76178   0.21228   0.00000  Uiso   1.00
O252   O     0.75000   0.90488   0.12105   0.00000  Uiso   1.00
O253   O     0.75000   0.90488   0.21228   0.00000  Uiso   1.00
O254   O     0.75000   0.76178   0.12105   0.00000  Uiso   1.00
H255   H     0.95982   0.70869   0.19329   0.00000  Uiso   1.00
H256   H     0.54018   0.95797   0.14003   0.00000  Uiso   1.00
H257   H     0.95982   0.95797   0.14003   0.00000  Uiso   1.00
H258   H     0.54018   0.70869   0.19329   0.00000  Uiso   1.00
C259   C     0.75000   0.73936   0.16666   0.00000  Uiso   1.00
C260   C     0.75000   0.92731   0.16668   0.00000  Uiso   1.00
O261   O     0.68393   0.83333   0.21230   0.00000  Uiso   1.00
O262   O     0.81608   0.83333   0.12104   0.00000  Uiso   1.00
O263   O     0.81608   0.83333   0.21230   0.00000  Uiso   1.00
O264   O     0.68393   0.83333   0.12104   0.00000  Uiso   1.00
C265   C     0.66343   0.83333   0.16667   0.00000  Uiso   1.00
C266   C     0.83657   0.83333   0.16667   0.00000  Uiso   1.00
Zn267  Zn    0.75000   0.83333   0.22759   0.00000  Uiso   1.00
Zn268  Zn    0.75000   0.83333   0.10574   0.00000  Uiso   1.00
N269   N     0.75000   0.83333   0.02455   0.00000  Uiso   1.00
N270   N     0.75000   0.83333   0.30879   0.00000  Uiso   1.00
C271   C     0.90668   0.87843   0.15715   0.00000  Uiso   1.00
C272   C     0.59332   0.78823   0.17618   0.00000  Uiso   1.00
C273   C     0.90668   0.78823   0.17618   0.00000  Uiso   1.00
C274   C     0.59332   0.87843   0.15715   0.00000  Uiso   1.00
C275   C     0.88412   0.83333   0.16667   0.00000  Uiso   1.00
C276   C     0.61588   0.83333   0.16667   0.00000  Uiso   1.00
C277   C     0.95323   0.78813   0.17624   0.00000  Uiso   1.00
C278   C     0.54677   0.87853   0.15708   0.00000  Uiso   1.00
C279   C     0.95323   0.87853   0.15708   0.00000  Uiso   1.00
C280   C     0.54677   0.78813   0.17624   0.00000  Uiso   1.00
C281   C     0.97659   0.83333   0.16666   0.00000  Uiso   1.00
C282   C     0.52341   0.83333   0.16666   0.00000  Uiso   1.00
C283   C     0.97688   0.74372   0.18571   0.00000  Uiso   1.00
C284   C     0.52312   0.92295   0.14762   0.00000  Uiso   1.00
C285   C     0.97688   0.92295   0.14762   0.00000  Uiso   1.00
C286   C     0.52312   0.74372   0.18571   0.00000  Uiso   1.00
C287   C     0.75000   0.68841   0.16665   0.00000  Uiso   1.00
C288   C     0.75000   0.97825   0.16668   0.00000  Uiso   1.00
N289   N     0.88250   0.92420   0.14816   0.00000  Uiso   1.00
H290   H     0.86195   0.93093   0.18209   0.00000  Uiso   1.00
H291   H     0.86236   0.92001   0.11341   0.00000  Uiso   1.00
N292   N     0.61750   0.74246   0.18517   0.00000  Uiso   1.00
H293   H     0.63763   0.74666   0.21994   0.00000  Uiso   1.00
H294   H     0.63806   0.73574   0.15125   0.00000  Uiso   1.00
N295   N     0.88250   0.74246   0.18517   0.00000  Uiso   1.00
H296   H     0.86195   0.73573   0.15124   0.00000  Uiso   1.00
H297   H     0.86236   0.74666   0.21993   0.00000  Uiso   1.00
N298   N     0.61750   0.92420   0.14816   0.00000  Uiso   1.00
H299   H     0.63764   0.92001   0.11341   0.00000  Uiso   1.00
H300   H     0.63805   0.93093   0.18209   0.00000  Uiso   1.00
O301   O     0.25000   0.09512   0.54562   0.00000  Uiso   1.00
O302   O     0.25000   0.23822   0.45438   0.00000  Uiso   1.00
O303   O     0.25000   0.23822   0.54562   0.00000  Uiso   1.00
O304   O     0.25000   0.09512   0.45438   0.00000  Uiso   1.00
H305   H     0.45982   0.04203   0.52663   0.00000  Uiso   1.00
H306   H     0.04018   0.29131   0.47337   0.00000  Uiso   1.00
H307   H     0.45982   0.29131   0.47337   0.00000  Uiso   1.00
H308   H     0.04018   0.04203   0.52663   0.00000  Uiso   1.00
C309   C     0.25000   0.07269   0.49999   0.00000  Uiso   1.00
C310   C     0.25000   0.26064   0.50001   0.00000  Uiso   1.00
O311   O     0.18393   0.16667   0.54563   0.00000  Uiso   1.00
O312   O     0.31608   0.16667   0.45437   0.00000  Uiso   1.00
O313   O     0.31608   0.16667   0.54563   0.00000  Uiso   1.00
O314   O     0.18393   0.16667   0.45437   0.00000  Uiso   1.00
C315   C     0.16343   0.16667   0.50000   0.00000  Uiso   1.00
C316   C     0.33657   0.16667   0.50000   0.00000  Uiso   1.00
Zn317  Zn    0.25000   0.16667   0.56093   0.00000  Uiso   1.00
Zn318  Zn    0.25000   0.16667   0.43907   0.00000  Uiso   1.00
N319   N     0.25000   0.16667   0.35788   0.00000  Uiso   1.00
N320   N     0.25000   0.16667   0.64212   0.00000  Uiso   1.00
C321   C     0.40668   0.21177   0.49049   0.00000  Uiso   1.00
C322   C     0.09332   0.12157   0.50951   0.00000  Uiso   1.00
C323   C     0.40668   0.12157   0.50951   0.00000  Uiso   1.00
C324   C     0.09332   0.21177   0.49049   0.00000  Uiso   1.00
C325   C     0.38412   0.16667   0.50000   0.00000  Uiso   1.00
C326   C     0.11588   0.16667   0.50000   0.00000  Uiso   1.00
C327   C     0.45323   0.12147   0.50958   0.00000  Uiso   1.00
C328   C     0.04677   0.21186   0.49042   0.00000  Uiso   1.00
C329   C     0.45323   0.21186   0.49042   0.00000  Uiso   1.00
C330   C     0.04677   0.12147   0.50958   0.00000  Uiso   1.00
C331   C     0.47659   0.16667   0.50000   0.00000  Uiso   1.00
C332   C     0.02341   0.16667   0.50000   0.00000  Uiso   1.00
C333   C     0.47688   0.07705   0.51904   0.00000  Uiso   1.00
C334   C     0.02312   0.25628   0.48095   0.00000  Uiso   1.00
C335   C     0.47688   0.25628   0.48095   0.00000  Uiso   1.00
C336   C     0.02312   0.07705   0.51904   0.00000  Uiso   1.00
C337   C     0.25000   0.02175   0.49999   0.00000  Uiso   1.00
C338   C     0.25000   0.31159   0.50001   0.00000  Uiso   1.00
N339   N     0.38250   0.25754   0.48150   0.00000  Uiso   1.00
H340   H     0.36195   0.26427   0.51543   0.00000  Uiso   1.00
H341   H     0.36236   0.25334   0.44674   0.00000  Uiso   1.00
N342   N     0.11750   0.07580   0.51850   0.00000  Uiso   1.00
H343   H     0.13763   0.07999   0.55327   0.00000  Uiso   1.00
H344   H     0.13806   0.06907   0.48458   0.00000  Uiso   1.00
N345   N     0.38250   0.07580   0.51850   0.00000  Uiso   1.00
H346   H     0.36195   0.06907   0.48457   0.00000  Uiso   1.00
H347   H     0.36236   0.07999   0.55326   0.00000  Uiso   1.00
N348   N     0.11750   0.25754   0.48150   0.00000  Uiso   1.00
H349   H     0.13764   0.25334   0.44674   0.00000  Uiso   1.00
H350   H     0.13805   0.26427   0.51543   0.00000  Uiso   1.00
O351   O     0.75000   0.09512   0.54562   0.00000  Uiso   1.00
O352   O     0.75000   0.23822   0.45438   0.00000  Uiso   1.00
O353   O     0.75000   0.23822   0.54562   0.00000  Uiso   1.00
O354   O     0.75000   0.09512   0.45438   0.00000  Uiso   1.00
H355   H     0.95982   0.04203   0.52663   0.00000  Uiso   1.00
H356   H     0.54018   0.29131   0.47337   0.00000  Uiso   1.00
H357   H     0.95982   0.29131   0.47337   0.00000  Uiso   1.00
H358   H     0.54018   0.04203   0.52663   0.00000  Uiso   1.00
C359   C     0.75000   0.07269   0.49999   0.00000  Uiso   1.00
C360   C     0.75000   0.26064   0.50001   0.00000  Uiso   1.00
O361   O     0.68393   0.16667   0.54563   0.00000  Uiso   1.00
O362   O     0.81608   0.16667   0.45437   0.00000  Uiso   1.00
O363   O     0.81608   0.16667   0.54563   0.00000  Uiso   1.00
O364   O     0.68393   0.16667   0.45437   0.00000  Uiso   1.00
C365   C     0.66343   0.16667   0.50000   0.00000  Uiso   1.00
C366   C     0.83657   0.16667   0.50000   0.00000  Uiso   1.00
Zn367  Zn    0.75000   0.16667   0.56093   0.00000  Uiso   1.00
Zn368  Zn    0.75000   0.16667   0.43907   0.00000  Uiso   1.00
N369   N     0.75000   0.16667   0.35788   0.00000  Uiso   1.00
N370   N     0.75000   0.16667   0.64212   0.00000  Uiso   1.00
C371   C     0.90668   0.21177   0.49049   0.00000  Uiso   1.00
C372   C     0.59332   0.12157   0.50951   0.00000  Uiso   1.00
C373   C     0.90668   0.12157   0.50951   0.00000  Uiso   1.00
C374   C     0.59332   0.21177   0.49049   0.00000  Uiso   1.00
C375   C     0.88412   0.16667   0.50000   0.00000  Uiso   1.00
C376   C     0.61588   0.16667   0.50000   0.00000  Uiso   1.00
C377   C     0.95323   0.12147   0.50958   0.00000  Uiso   1.00
C378   C     0.54677   0.21186   0.49042   0.00000  Uiso   1.00
C379   C     0.95323   0.21186   0.49042   0.00000  Uiso   1.00
C380   C     0.54677   0.12147   0.50958   0.00000  Uiso   1.00
C381   C     0.97659   0.16667   0.50000   0.00000  Uiso   1.00
C382   C     0.52341   0.16667   0.50000   0.00000  Uiso   1.00
C383   C     0.97688   0.07705   0.51904   0.00000  Uiso   1.00
C384   C     0.52312   0.25628   0.48095   0.00000  Uiso   1.00
C385   C     0.97688   0.25628   0.48095   0.00000  Uiso   1.00
C386   C     0.52312   0.07705   0.51904   0.00000  Uiso   1.00
C387   C     0.75000   0.02175   0.49999   0.00000  Uiso   1.00
C388   C     0.75000   0.31159   0.50001   0.00000  Uiso   1.00
N389   N     0.88250   0.25754   0.48150   0.00000  Uiso   1.00
H390   H     0.86195   0.26427   0.51543   0.00000  Uiso   1.00
H391   H     0.86236   0.25334   0.44674   0.00000  Uiso   1.00
N392   N     0.61750   0.07580   0.51850   0.00000  Uiso   1.00
H393   H     0.63763   0.07999   0.55327   0.00000  Uiso   1.00
H394   H     0.63806   0.06907   0.48458   0.00000  Uiso   1.00
N395   N     0.88250   0.07580   0.51850   0.00000  Uiso   1.00
H396   H     0.86195   0.06907   0.48457   0.00000  Uiso   1.00
H397   H     0.86236   0.07999   0.55326   0.00000  Uiso   1.00
N398   N     0.61750   0.25754   0.48150   0.00000  Uiso   1.00
H399   H     0.63764   0.25334   0.44674   0.00000  Uiso   1.00
H400   H     0.63805   0.26427   0.51543   0.00000  Uiso   1.00
O401   O     0.25000   0.42845   0.54562   0.00000  Uiso   1.00
O402   O     0.25000   0.57155   0.45438   0.00000  Uiso   1.00
O403   O     0.25000   0.57155   0.54562   0.00000  Uiso   1.00
O404   O     0.25000   0.42845   0.45438   0.00000  Uiso   1.00
H405   H     0.45982   0.37536   0.52663   0.00000  Uiso   1.00
H406   H     0.04018   0.62464   0.47337   0.00000  Uiso   1.00
H407   H     0.45982   0.62464   0.47337   0.00000  Uiso   1.00
H408   H     0.04018   0.37536   0.52663   0.00000  Uiso   1.00
C409   C     0.25000   0.40603   0.49999   0.00000  Uiso   1.00
C410   C     0.25000   0.59397   0.50001   0.00000  Uiso   1.00
O411   O     0.18393   0.50000   0.54563   0.00000  Uiso   1.00
O412   O     0.31608   0.50000   0.45437   0.00000  Uiso   1.00
O413   O     0.31608   0.50000   0.54563   0.00000  Uiso   1.00
O414   O     0.18393   0.50000   0.45437   0.00000  Uiso   1.00
C415   C     0.16343   0.50000   0.50000   0.00000  Uiso   1.00
C416   C     0.33657   0.50000   0.50000   0.00000  Uiso   1.00
Zn417  Zn    0.25000   0.50000   0.56093   0.00000  Uiso   1.00
Zn418  Zn    0.25000   0.50000   0.43907   0.00000  Uiso   1.00
N419   N     0.25000   0.50000   0.35788   0.00000  Uiso   1.00
N420   N     0.25000   0.50000   0.64212   0.00000  Uiso   1.00
C421   C     0.40668   0.54510   0.49049   0.00000  Uiso   1.00
C422   C     0.09332   0.45490   0.50951   0.00000  Uiso   1.00
C423   C     0.40668   0.45490   0.50951   0.00000  Uiso   1.00
C424   C     0.09332   0.54510   0.49049   0.00000  Uiso   1.00
C425   C     0.38412   0.50000   0.50000   0.00000  Uiso   1.00
C426   C     0.11588   0.50000   0.50000   0.00000  Uiso   1.00
C427   C     0.45323   0.45480   0.50958   0.00000  Uiso   1.00
C428   C     0.04677   0.54520   0.49042   0.00000  Uiso   1.00
C429   C     0.45323   0.54520   0.49042   0.00000  Uiso   1.00
C430   C     0.04677   0.45480   0.50958   0.00000  Uiso   1.00
C431   C     0.47659   0.50000   0.50000   0.00000  Uiso   1.00
C432   C     0.02341   0.50000   0.50000   0.00000  Uiso   1.00
C433   C     0.47688   0.41039   0.51904   0.00000  Uiso   1.00
C434   C     0.02312   0.58961   0.48095   0.00000  Uiso   1.00
C435   C     0.47688   0.58961   0.48095   0.00000  Uiso   1.00
C436   C     0.02312   0.41039   0.51904   0.00000  Uiso   1.00
C437   C     0.25000   0.35508   0.49999   0.00000  Uiso   1.00
C438   C     0.25000   0.64492   0.50001   0.00000  Uiso   1.00
N439   N     0.38250   0.59087   0.48150   0.00000  Uiso   1.00
H440   H     0.36195   0.59760   0.51543   0.00000  Uiso   1.00
H441   H     0.36236   0.58667   0.44674   0.00000  Uiso   1.00
N442   N     0.11750   0.40913   0.51850   0.00000  Uiso   1.00
H443   H     0.13763   0.41333   0.55327   0.00000  Uiso   1.00
H444   H     0.13806   0.40240   0.48458   0.00000  Uiso   1.00
N445   N     0.38250   0.40913   0.51850   0.00000  Uiso   1.00
H446   H     0.36195   0.40240   0.48457   0.00000  Uiso   1.00
H447   H     0.36236   0.41333   0.55326   0.00000  Uiso   1.00
N448   N     0.11750   0.59087   0.48150   0.00000  Uiso   1.00
H449   H     0.13764   0.58667   0.44674   0.00000  Uiso   1.00
H450   H     0.13805   0.59760   0.51543   0.00000  Uiso   1.00
O451   O     0.75000   0.42845   0.54562   0.00000  Uiso   1.00
O452   O     0.75000   0.57155   0.45438   0.00000  Uiso   1.00
O453   O     0.75000   0.57155   0.54562   0.00000  Uiso   1.00
O454   O     0.75000   0.42845   0.45438   0.00000  Uiso   1.00
H455   H     0.95982   0.37536   0.52663   0.00000  Uiso   1.00
H456   H     0.54018   0.62464   0.47337   0.00000  Uiso   1.00
H457   H     0.95982   0.62464   0.47337   0.00000  Uiso   1.00
H458   H     0.54018   0.37536   0.52663   0.00000  Uiso   1.00
C459   C     0.75000   0.40603   0.49999   0.00000  Uiso   1.00
C460   C     0.75000   0.59397   0.50001   0.00000  Uiso   1.00
O461   O     0.68393   0.50000   0.54563   0.00000  Uiso   1.00
O462   O     0.81608   0.50000   0.45437   0.00000  Uiso   1.00
O463   O     0.81608   0.50000   0.54563   0.00000  Uiso   1.00
O464   O     0.68393   0.50000   0.45437   0.00000  Uiso   1.00
C465   C     0.66343   0.50000   0.50000   0.00000  Uiso   1.00
C466   C     0.83657   0.50000   0.50000   0.00000  Uiso   1.00
Zn467  Zn    0.75000   0.50000   0.56093   0.00000  Uiso   1.00
Zn468  Zn    0.75000   0.50000   0.43907   0.00000  Uiso   1.00
N469   N     0.75000   0.50000   0.35788   0.00000  Uiso   1.00
N470   N     0.75000   0.50000   0.64212   0.00000  Uiso   1.00
C471   C     0.90668   0.54510   0.49049   0.00000  Uiso   1.00
C472   C     0.59332   0.45490   0.50951   0.00000  Uiso   1.00
C473   C     0.90668   0.45490   0.50951   0.00000  Uiso   1.00
C474   C     0.59332   0.54510   0.49049   0.00000  Uiso   1.00
C475   C     0.88412   0.50000   0.50000   0.00000  Uiso   1.00
C476   C     0.61588   0.50000   0.50000   0.00000  Uiso   1.00
C477   C     0.95323   0.45480   0.50958   0.00000  Uiso   1.00
C478   C     0.54677   0.54520   0.49042   0.00000  Uiso   1.00
C479   C     0.95323   0.54520   0.49042   0.00000  Uiso   1.00
C480   C     0.54677   0.45480   0.50958   0.00000  Uiso   1.00
C481   C     0.97659   0.50000   0.50000   0.00000  Uiso   1.00
C482   C     0.52341   0.50000   0.50000   0.00000  Uiso   1.00
C483   C     0.97688   0.41039   0.51904   0.00000  Uiso   1.00
C484   C     0.52312   0.58961   0.48095   0.00000  Uiso   1.00
C485   C     0.97688   0.58961   0.48095   0.00000  Uiso   1.00
C486   C     0.52312   0.41039   0.51904   0.00000  Uiso   1.00
C487   C     0.75000   0.35508   0.49999   0.00000  Uiso   1.00
C488   C     0.75000   0.64492   0.50001   0.00000  Uiso   1.00
N489   N     0.88250   0.59087   0.48150   0.00000  Uiso   1.00
H490   H     0.86195   0.59760   0.51543   0.00000  Uiso   1.00
H491   H     0.86236   0.58667   0.44674   0.00000  Uiso   1.00
N492   N     0.61750   0.40913   0.51850   0.00000  Uiso   1.00
H493   H     0.63763   0.41333   0.55327   0.00000  Uiso   1.00
H494   H     0.63806   0.40240   0.48458   0.00000  Uiso   1.00
N495   N     0.88250   0.40913   0.51850   0.00000  Uiso   1.00
H496   H     0.86195   0.40240   0.48457   0.00000  Uiso   1.00
H497   H     0.86236   0.41333   0.55326   0.00000  Uiso   1.00
N498   N     0.61750   0.59087   0.48150   0.00000  Uiso   1.00
H499   H     0.63764   0.58667   0.44674   0.00000  Uiso   1.00
H500   H     0.63805   0.59760   0.51543   0.00000  Uiso   1.00
O501   O     0.25000   0.76178   0.54562   0.00000  Uiso   1.00
O502   O     0.25000   0.90488   0.45438   0.00000  Uiso   1.00
O503   O     0.25000   0.90488   0.54562   0.00000  Uiso   1.00
O504   O     0.25000   0.76178   0.45438   0.00000  Uiso   1.00
H505   H     0.45982   0.70869   0.52663   0.00000  Uiso   1.00
H506   H     0.04018   0.95797   0.47337   0.00000  Uiso   1.00
H507   H     0.45982   0.95797   0.47337   0.00000  Uiso   1.00
H508   H     0.04018   0.70869   0.52663   0.00000  Uiso   1.00
C509   C     0.25000   0.73936   0.49999   0.00000  Uiso   1.00
C510   C     0.25000   0.92731   0.50001   0.00000  Uiso   1.00
O511   O     0.18393   0.83333   0.54563   0.00000  Uiso   1.00
O512   O     0.31608   0.83333   0.45437   0.00000  Uiso   1.00
O513   O     0.31608   0.83333   0.54563   0.00000  Uiso   1.00
O514   O     0.18393   0.83333   0.45437   0.00000  Uiso   1.00
C515   C     0.16343   0.83333   0.50000   0.00000  Uiso   1.00
C516   C     0.33657   0.83333   0.50000   0.00000  Uiso   1.00
Zn517  Zn    0.25000   0.83333   0.56093   0.00000  Uiso   1.00
Zn518  Zn    0.25000   0.83333   0.43907   0.00000  Uiso   1.00
N519   N     0.25000   0.83333   0.35788   0.00000  Uiso   1.00
N520   N     0.25000   0.83333   0.64212   0.00000  Uiso   1.00
C521   C     0.40668   0.87843   0.49049   0.00000  Uiso   1.00
C522   C     0.09332   0.78823   0.50951   0.00000  Uiso   1.00
C523   C     0.40668   0.78823   0.50951   0.00000  Uiso   1.00
C524   C     0.09332   0.87843   0.49049   0.00000  Uiso   1.00
C525   C     0.38412   0.83333   0.50000   0.00000  Uiso   1.00
C526   C     0.11588   0.83333   0.50000   0.00000  Uiso   1.00
C527   C     0.45323   0.78813   0.50958   0.00000  Uiso   1.00
C528   C     0.04677   0.87853   0.49042   0.00000  Uiso   1.00
C529   C     0.45323   0.87853   0.49042   0.00000  Uiso   1.00
C530   C     0.04677   0.78813   0.50958   0.00000  Uiso   1.00
C531   C     0.47659   0.83333   0.50000   0.00000  Uiso   1.00
C532   C     0.02341   0.83333   0.50000   0.00000  Uiso   1.00
C533   C     0.47688   0.74372   0.51904   0.00000  Uiso   1.00
C534   C     0.02312   0.92295   0.48095   0.00000  Uiso   1.00
C535   C     0.47688   0.92295   0.48095   0.00000  Uiso   1.00
C536   C     0.02312   0.74372   0.51904   0.00000  Uiso   1.00
C537   C     0.25000   0.68841   0.49999   0.00000  Uiso   1.00
C538   C     0.25000   0.97825   0.50001   0.00000  Uiso   1.00
N539   N     0.38250   0.92420   0.48150   0.00000  Uiso   1.00
H540   H     0.36195   0.93093   0.51543   0.00000  Uiso   1.00
H541   H     0.36236   0.92001   0.44674   0.00000  Uiso   1.00
N542   N     0.11750   0.74246   0.51850   0.00000  Uiso   1.00
H543   H     0.13763   0.74666   0.55327   0.00000  Uiso   1.00
H544   H     0.13806   0.73574   0.48458   0.00000  Uiso   1.00
N545   N     0.38250   0.74246   0.51850   0.00000  Uiso   1.00
H546   H     0.36195   0.73573   0.48457   0.00000  Uiso   1.00
H547   H     0.36236   0.74666   0.55326   0.00000  Uiso   1.00
N548   N     0.11750   0.92420   0.48150   0.00000  Uiso   1.00
H549   H     0.13764   0.92001   0.44674   0.00000  Uiso   1.00
H550   H     0.13805   0.93093   0.51543   0.00000  Uiso   1.00
O551   O     0.75000   0.76178   0.54562   0.00000  Uiso   1.00
O552   O     0.75000   0.90488   0.45438   0.00000  Uiso   1.00
O553   O     0.75000   0.90488   0.54562   0.00000  Uiso   1.00
O554   O     0.75000   0.76178   0.45438   0.00000  Uiso   1.00
H555   H     0.95982   0.70869   0.52663   0.00000  Uiso   1.00
H556   H     0.54018   0.95797   0.47337   0.00000  Uiso   1.00
H557   H     0.95982   0.95797   0.47337   0.00000  Uiso   1.00
H558   H     0.54018   0.70869   0.52663   0.00000  Uiso   1.00
C559   C     0.75000   0.73936   0.49999   0.00000  Uiso   1.00
C560   C     0.75000   0.92731   0.50001   0.00000  Uiso   1.00
O561   O     0.68393   0.83333   0.54563   0.00000  Uiso   1.00
O562   O     0.81608   0.83333   0.45437   0.00000  Uiso   1.00
O563   O     0.81608   0.83333   0.54563   0.00000  Uiso   1.00
O564   O     0.68393   0.83333   0.45437   0.00000  Uiso   1.00
C565   C     0.66343   0.83333   0.50000   0.00000  Uiso   1.00
C566   C     0.83657   0.83333   0.50000   0.00000  Uiso   1.00
Zn567  Zn    0.75000   0.83333   0.56093   0.00000  Uiso   1.00
Zn568  Zn    0.75000   0.83333   0.43907   0.00000  Uiso   1.00
N569   N     0.75000   0.83333   0.35788   0.00000  Uiso   1.00
N570   N     0.75000   0.83333   0.64212   0.00000  Uiso   1.00
C571   C     0.90668   0.87843   0.49049   0.00000  Uiso   1.00
C572   C     0.59332   0.78823   0.50951   0.00000  Uiso   1.00
C573   C     0.90668   0.78823   0.50951   0.00000  Uiso   1.00
C574   C     0.59332   0.87843   0.49049   0.00000  Uiso   1.00
C575   C     0.88412   0.83333   0.50000   0.00000  Uiso   1.00
C576   C     0.61588   0.83333   0.50000   0.00000  Uiso   1.00
C577   C     0.95323   0.78813   0.50958   0.00000  Uiso   1.00
C578   C     0.54677   0.87853   0.49042   0.00000  Uiso   1.00
C579   C     0.95323   0.87853   0.49042   0.00000  Uiso   1.00
C580   C     0.54677   0.78813   0.50958   0.00000  Uiso   1.00
C581   C     0.97659   0.83333   0.50000   0.00000  Uiso   1.00
C582   C     0.52341   0.83333   0.50000   0.00000  Uiso   1.00
C583   C     0.97688   0.74372   0.51904   0.00000  Uiso   1.00
C584   C     0.52312   0.92295   0.48095   0.00000  Uiso   1.00
C585   C     0.97688   0.92295   0.48095   0.00000  Uiso   1.00
C586   C     0.52312   0.74372   0.51904   0.00000  Uiso   1.00
C587   C     0.75000   0.68841   0.49999   0.00000  Uiso   1.00
C588   C     0.75000   0.97825   0.50001   0.00000  Uiso   1.00
N589   N     0.88250   0.92420   0.48150   0.00000  Uiso   1.00
H590   H     0.86195   0.93093   0.51543   0.00000  Uiso   1.00
H591   H     0.86236   0.92001   0.44674   0.00000  Uiso   1.00
N592   N     0.61750   0.74246   0.51850   0.00000  Uiso   1.00
H593   H     0.63763   0.74666   0.55327   0.00000  Uiso   1.00
H594   H     0.63806   0.73574   0.48458   0.00000  Uiso   1.00
N595   N     0.88250   0.74246   0.51850   0.00000  Uiso   1.00
H596   H     0.86195   0.73573   0.48457   0.00000  Uiso   1.00
H597   H     0.86236   0.74666   0.55326   0.00000  Uiso   1.00
N598   N     0.61750   0.92420   0.48150   0.00000  Uiso   1.00
H599   H     0.63764   0.92001   0.44674   0.00000  Uiso   1.00
H600   H     0.63805   0.93093   0.51543   0.00000  Uiso   1.00
O601   O     0.25000   0.09512   0.87895   0.00000  Uiso   1.00
O602   O     0.25000   0.23822   0.78772   0.00000  Uiso   1.00
O603   O     0.25000   0.23822   0.87895   0.00000  Uiso   1.00
O604   O     0.25000   0.09512   0.78772   0.00000  Uiso   1.00
H605   H     0.45982   0.04203   0.85996   0.00000  Uiso   1.00
H606   H     0.04018   0.29131   0.80670   0.00000  Uiso   1.00
H607   H     0.45982   0.29131   0.80670   0.00000  Uiso   1.00
H608   H     0.04018   0.04203   0.85996   0.00000  Uiso   1.00
C609   C     0.25000   0.07269   0.83332   0.00000  Uiso   1.00
C610   C     0.25000   0.26064   0.83334   0.00000  Uiso   1.00
O611   O     0.18393   0.16667   0.87896   0.00000  Uiso   1.00
O612   O     0.31608   0.16667   0.78770   0.00000  Uiso   1.00
O613   O     0.31608   0.16667   0.87896   0.00000  Uiso   1.00
O614   O     0.18393   0.16667   0.78770   0.00000  Uiso   1.00
C615   C     0.16343   0.16667   0.83333   0.00000  Uiso   1.00
C616   C     0.33657   0.16667   0.83333   0.00000  Uiso   1.00
Zn617  Zn    0.25000   0.16667   0.89426   0.00000  Uiso   1.00
Zn618  Zn    0.25000   0.16667   0.77241   0.00000  Uiso   1.00
N619   N     0.25000   0.16667   0.69121   0.00000  Uiso   1.00
N620   N     0.25000   0.16667   0.97545   0.00000  Uiso   1.00
C621   C     0.40668   0.21177   0.82382   0.00000  Uiso   1.00
C622   C     0.09332   0.12157   0.84285   0.00000  Uiso   1.00
C623   C     0.40668   0.12157   0.84284   0.00000  Uiso   1.00
C624   C     0.09332   0.21177   0.82382   0.00000  Uiso   1.00
C625   C     0.38412   0.16667   0.83333   0.00000  Uiso   1.00
C626   C     0.11588   0.16667   0.83333   0.00000  Uiso   1.00
C627   C     0.45323   0.12147   0.84291   0.00000  Uiso   1.00
C628   C     0.04677   0.21186   0.82375   0.00000  Uiso   1.00
C629   C     0.45323   0.21186   0.82375   0.00000  Uiso   1.00
C630   C     0.04677   0.12147   0.84291   0.00000  Uiso   1.00
C631   C     0.47659   0.16667   0.83333   0.00000  Uiso   1.00
C632   C     0.02341   0.16667   0.83333   0.00000  Uiso   1.00
C633   C     0.47688   0.07705   0.85237   0.00000  Uiso   1.00
C634   C     0.02312   0.25628   0.81429   0.00000  Uiso   1.00
C635   C     0.47688   0.25628   0.81429   0.00000  Uiso   1.00
C636   C     0.02312   0.07705   0.85237   0.00000  Uiso   1.00
C637   C     0.25000   0.02175   0.83332   0.00000  Uiso   1.00
C638   C     0.25000   0.31159   0.83335   0.00000  Uiso   1.00
N639   N     0.38250   0.25754   0.81483   0.00000  Uiso   1.00
H640   H     0.36195   0.26427   0.84876   0.00000  Uiso   1.00
H641   H     0.36236   0.25334   0.78007   0.00000  Uiso   1.00
N642   N     0.11750   0.07580   0.85184   0.00000  Uiso   1.00
H643   H     0.13763   0.07999   0.88660   0.00000  Uiso   1.00
H644   H     0.13806   0.06907   0.81791   0.00000  Uiso   1.00
N645   N     0.38250   0.07580   0.85183   0.00000  Uiso   1.00
H646   H     0.36195   0.06907   0.81790   0.00000  Uiso   1.00
H647   H     0.36236   0.07999   0.88659   0.00000  Uiso   1.00
N648   N     0.11750   0.25754   0.81483   0.00000  Uiso   1.00
H649   H     0.13764   0.25334   0.78007   0.00000  Uiso   1.00
H650   H     0.13805   0.26427   0.84876   0.00000  Uiso   1.00
O651   O     0.75000   0.09512   0.87895   0.00000  Uiso   1.00
O652   O     0.75000   0.23822   0.78772   0.00000  Uiso   1.00
O653   O     0.75000   0.23822   0.87895   0.00000  Uiso   1.00
O654   O     0.75000   0.09512   0.78772   0.00000  Uiso   1.00
H655   H     0.95982   0.04203   0.85996   0.00000  Uiso   1.00
H656   H     0.54018   0.29131   0.80670   0.00000  Uiso   1.00
H657   H     0.95982   0.29131   0.80670   0.00000  Uiso   1.00
H658   H     0.54018   0.04203   0.85996   0.00000  Uiso   1.00
C659   C     0.75000   0.07269   0.83332   0.00000  Uiso   1.00
C660   C     0.75000   0.26064   0.83334   0.00000  Uiso   1.00
O661   O     0.68393   0.16667   0.87896   0.00000  Uiso   1.00
O662   O     0.81608   0.16667   0.78770   0.00000  Uiso   1.00
O663   O     0.81608   0.16667   0.87896   0.00000  Uiso   1.00
O664   O     0.68393   0.16667   0.78770   0.00000  Uiso   1.00
C665   C     0.66343   0.16667   0.83333   0.00000  Uiso   1.00
C666   C     0.83657   0.16667   0.83333   0.00000  Uiso   1.00
Zn667  Zn    0.75000   0.16667   0.89426   0.00000  Uiso   1.00
Zn668  Zn    0.75000   0.16667   0.77241   0.00000  Uiso   1.00
N669   N     0.75000   0.16667   0.69121   0.00000  Uiso   1.00
N670   N     0.75000   0.16667   0.97545   0.00000  Uiso   1.00
C671   C     0.90668   0.21177   0.82382   0.00000  Uiso   1.00
C672   C     0.59332   0.12157   0.84285   0.00000  Uiso   1.00
C673   C     0.90668   0.12157   0.84284   0.00000  Uiso   1.00
C674   C     0.59332   0.21177   0.82382   0.00000  Uiso   1.00
C675   C     0.88412   0.16667   0.83333   0.00000  Uiso   1.00
C676   C     0.61588   0.16667   0.83333   0.00000  Uiso   1.00
C677   C     0.95323   0.12147   0.84291   0.00000  Uiso   1.00
C678   C     0.54677   0.21186   0.82375   0.00000  Uiso   1.00
C679   C     0.95323   0.21186   0.82375   0.00000  Uiso   1.00
C680   C     0.54677   0.12147   0.84291   0.00000  Uiso   1.00
C681   C     0.97659   0.16667   0.83333   0.00000  Uiso   1.00
C682   C     0.52341   0.16667   0.83333   0.00000  Uiso   1.00
C683   C     0.97688   0.07705   0.85237   0.00000  Uiso   1.00
C684   C     0.52312   0.25628   0.81429   0.00000  Uiso   1.00
C685   C     0.97688   0.25628   0.81429   0.00000  Uiso   1.00
C686   C     0.52312   0.07705   0.85237   0.00000  Uiso   1.00
C687   C     0.75000   0.02175   0.83332   0.00000  Uiso   1.00
C688   C     0.75000   0.31159   0.83335   0.00000  Uiso   1.00
N689   N     0.88250   0.25754   0.81483   0.00000  Uiso   1.00
H690   H     0.86195   0.26427   0.84876   0.00000  Uiso   1.00
H691   H     0.86236   0.25334   0.78007   0.00000  Uiso   1.00
N692   N     0.61750   0.07580   0.85184   0.00000  Uiso   1.00
H693   H     0.63763   0.07999   0.88660   0.00000  Uiso   1.00
H694   H     0.63806   0.06907   0.81791   0.00000  Uiso   1.00
N695   N     0.88250   0.07580   0.85183   0.00000  Uiso   1.00
H696   H     0.86195   0.06907   0.81790   0.00000  Uiso   1.00
H697   H     0.86236   0.07999   0.88659   0.00000  Uiso   1.00
N698   N     0.61750   0.25754   0.81483   0.00000  Uiso   1.00
H699   H     0.63764   0.25334   0.78007   0.00000  Uiso   1.00
H700   H     0.63805   0.26427   0.84876   0.00000  Uiso   1.00
O701   O     0.25000   0.42845   0.87895   0.00000  Uiso   1.00
O702   O     0.25000   0.57155   0.78772   0.00000  Uiso   1.00
O703   O     0.25000   0.57155   0.87895   0.00000  Uiso   1.00
O704   O     0.25000   0.42845   0.78772   0.00000  Uiso   1.00
H705   H     0.45982   0.37536   0.85996   0.00000  Uiso   1.00
H706   H     0.04018   0.62464   0.80670   0.00000  Uiso   1.00
H707   H     0.45982   0.62464   0.80670   0.00000  Uiso   1.00
H708   H     0.04018   0.37536   0.85996   0.00000  Uiso   1.00
C709   C     0.25000   0.40603   0.83332   0.00000  Uiso   1.00
C710   C     0.25000   0.59397   0.83334   0.00000  Uiso   1.00
O711   O     0.18393   0.50000   0.87896   0.00000  Uiso   1.00
O712   O     0.31608   0.50000   0.78770   0.00000  Uiso   1.00
O713   O     0.31608   0.50000   0.87896   0.00000  Uiso   1.00
O714   O     0.18393   0.50000   0.78770   0.00000  Uiso   1.00
C715   C     0.16343   0.50000   0.83333   0.00000  Uiso   1.00
C716   C     0.33657   0.50000   0.83333   0.00000  Uiso   1.00
Zn717  Zn    0.25000   0.50000   0.89426   0.00000  Uiso   1.00
Zn718  Zn    0.25000   0.50000   0.77241   0.00000  Uiso   1.00
N719   N     0.25000   0.50000   0.69121   0.00000  Uiso   1.00
N720   N     0.25000   0.50000   0.97545   0.00000  Uiso   1.00
C721   C     0.40668   0.54510   0.82382   0.00000  Uiso   1.00
C722   C     0.09332   0.45490   0.84285   0.00000  Uiso   1.00
C723   C     0.40668   0.45490   0.84284   0.00000  Uiso   1.00
C724   C     0.09332   0.54510   0.82382   0.00000  Uiso   1.00
C725   C     0.38412   0.50000   0.83333   0.00000  Uiso   1.00
C726   C     0.11588   0.50000   0.83333   0.00000  Uiso   1.00
C727   C     0.45323   0.45480   0.84291   0.00000  Uiso   1.00
C728   C     0.04677   0.54520   0.82375   0.00000  Uiso   1.00
C729   C     0.45323   0.54520   0.82375   0.00000  Uiso   1.00
C730   C     0.04677   0.45480   0.84291   0.00000  Uiso   1.00
C731   C     0.47659   0.50000   0.83333   0.00000  Uiso   1.00
C732   C     0.02341   0.50000   0.83333   0.00000  Uiso   1.00
C733   C     0.47688   0.41039   0.85237   0.00000  Uiso   1.00
C734   C     0.02312   0.58961   0.81429   0.00000  Uiso   1.00
C735   C     0.47688   0.58961   0.81429   0.00000  Uiso   1.00
C736   C     0.02312   0.41039   0.85237   0.00000  Uiso   1.00
C737   C     0.25000   0.35508   0.83332   0.00000  Uiso   1.00
C738   C     0.25000   0.64492   0.83335   0.00000  Uiso   1.00
N739   N     0.38250   0.59087   0.81483   0.00000  Uiso   1.00
H740   H     0.36195   0.59760   0.84876   0.00000  Uiso   1.00
H741   H     0.36236   0.58667   0.78007   0.00000  Uiso   1.00
N742   N     0.11750   0.40913   0.85184   0.00000  Uiso   1.00
H743   H     0.13763   0.41333   0.88660   0.00000  Uiso   1.00
H744   H     0.13806   0.40240   0.81791   0.00000  Uiso   1.00
N745   N     0.38250   0.40913   0.85183   0.00000  Uiso   1.00
H746   H     0.36195   0.40240   0.81790   0.00000  Uiso   1.00
H747   H     0.36236   0.41333   0.88659   0.00000  Uiso   1.00
N748   N     0.11750   0.59087   0.81483   0.00000  Uiso   1.00
H749   H     0.13764   0.58667   0.78007   0.00000  Uiso   1.00
H750   H     0.13805   0.59760   0.84876   0.00000  Uiso   1.00
O751   O     0.75000   0.42845   0.87895   0.00000  Uiso   1.00
O752   O     0.75000   0.57155   0.78772   0.00000  Uiso   1.00
O753   O     0.75000   0.57155   0.87895   0.00000  Uiso   1.00
O754   O     0.75000   0.42845   0.78772   0.00000  Uiso   1.00
H755   H     0.95982   0.37536   0.85996   0.00000  Uiso   1.00
H756   H     0.54018   0.62464   0.80670   0.00000  Uiso   1.00
H757   H     0.95982   0.62464   0.80670   0.00000  Uiso   1.00
H758   H     0.54018   0.37536   0.85996   0.00000  Uiso   1.00
C759   C     0.75000   0.40603   0.83332   0.00000  Uiso   1.00
C760   C     0.75000   0.59397   0.83334   0.00000  Uiso   1.00
O761   O     0.68393   0.50000   0.87896   0.00000  Uiso   1.00
O762   O     0.81608   0.50000   0.78770   0.00000  Uiso   1.00
O763   O     0.81608   0.50000   0.87896   0.00000  Uiso   1.00
O764   O     0.68393   0.50000   0.78770   0.00000  Uiso   1.00
C765   C     0.66343   0.50000   0.83333   0.00000  Uiso   1.00
C766   C     0.83657   0.50000   0.83333   0.00000  Uiso   1.00
Zn767  Zn    0.75000   0.50000   0.89426   0.00000  Uiso   1.00
Zn768  Zn    0.75000   0.50000   0.77241   0.00000  Uiso   1.00
N769   N     0.75000   0.50000   0.69121   0.00000  Uiso   1.00
N770   N     0.75000   0.50000   0.97545   0.00000  Uiso   1.00
C771   C     0.90668   0.54510   0.82382   0.00000  Uiso   1.00
C772   C     0.59332   0.45490   0.84285   0.00000  Uiso   1.00
C773   C     0.90668   0.45490   0.84284   0.00000  Uiso   1.00
C774   C     0.59332   0.54510   0.82382   0.00000  Uiso   1.00
C775   C     0.88412   0.50000   0.83333   0.00000  Uiso   1.00
C776   C     0.61588   0.50000   0.83333   0.00000  Uiso   1.00
C777   C     0.95323   0.45480   0.84291   0.00000  Uiso   1.00
C778   C     0.54677   0.54520   0.82375   0.00000  Uiso   1.00
C779   C     0.95323   0.54520   0.82375   0.00000  Uiso   1.00
C780   C     0.54677   0.45480   0.84291   0.00000  Uiso   1.00
C781   C     0.97659   0.50000   0.83333   0.00000  Uiso   1.00
C782   C     0.52341   0.50000   0.83333   0.00000  Uiso   1.00
C783   C     0.97688   0.41039   0.85237   0.00000  Uiso   1.00
C784   C     0.52312   0.58961   0.81429   0.00000  Uiso   1.00
C785   C     0.97688   0.58961   0.81429   0.00000  Uiso   1.00
C786   C     0.52312   0.41039   0.85237   0.00000  Uiso   1.00
C787   C     0.75000   0.35508   0.83332   0.00000  Uiso   1.00
C788   C     0.75000   0.64492   0.83335   0.00000  Uiso   1.00
N789   N     0.88250   0.59087   0.81483   0.00000  Uiso   1.00
H790   H     0.86195   0.59760   0.84876   0.00000  Uiso   1.00
H791   H     0.86236   0.58667   0.78007   0.00000  Uiso   1.00
N792   N     0.61750   0.40913   0.85184   0.00000  Uiso   1.00
H793   H     0.63763   0.41333   0.88660   0.00000  Uiso   1.00
H794   H     0.63806   0.40240   0.81791   0.00000  Uiso   1.00
N795   N     0.88250   0.40913   0.85183   0.00000  Uiso   1.00
H796   H     0.86195   0.40240   0.81790   0.00000  Uiso   1.00
H797   H     0.86236   0.41333   0.88659   0.00000  Uiso   1.00
N798   N     0.61750   0.59087   0.81483   0.00000  Uiso   1.00
H799   H     0.63764   0.58667   0.78007   0.00000  Uiso   1.00
H800   H     0.63805   0.59760   0.84876   0.00000  Uiso   1.00
O801   O     0.25000   0.76178   0.87895   0.00000  Uiso   1.00
O802   O     0.25000   0.90488   0.78772   0.00000  Uiso   1.00
O803   O     0.25000   0.90488   0.87895   0.00000  Uiso   1.00
O804   O     0.25000   0.76178   0.78772   0.00000  Uiso   1.00
H805   H     0.45982   0.70869   0.85996   0.00000  Uiso   1.00
H806   H     0.04018   0.95797   0.80670   0.00000  Uiso   1.00
H807   H     0.45982   0.95797   0.80670   0.00000  Uiso   1.00
H808   H     0.04018   0.70869   0.85996   0.00000  Uiso   1.00
C809   C     0.25000   0.73936   0.83332   0.00000  Uiso   1.00
C810   C     0.25000   0.92731   0.83334   0.00000  Uiso   1.00
O811   O     0.18393   0.83333   0.87896   0.00000  Uiso   1.00
O812   O     0.31608   0.83333   0.78770   0.00000  Uiso   1.00
O813   O     0.31608   0.83333   0.87896   0.00000  Uiso   1.00
O814   O     0.18393   0.83333   0.78770   0.00000  Uiso   1.00
C815   C     0.16343   0.83333   0.83333   0.00000  Uiso   1.00
C816   C     0.33657   0.83333   0.83333   0.00000  Uiso   1.00
Zn817  Zn    0.25000   0.83333   0.89426   0.00000  Uiso   1.00
Zn818  Zn    0.25000   0.83333   0.77241   0.00000  Uiso   1.00
N819   N     0.25000   0.83333   0.69121   0.00000  Uiso   1.00
N820   N     0.25000   0.83333   0.97545   0.00000  Uiso   1.00
C821   C     0.40668   0.87843   0.82382   0.00000  Uiso   1.00
C822   C     0.09332   0.78823   0.84285   0.00000  Uiso   1.00
C823   C     0.40668   0.78823   0.84284   0.00000  Uiso   1.00
C824   C     0.09332   0.87843   0.82382   0.00000  Uiso   1.00
C825   C     0.38412   0.83333   0.83333   0.00000  Uiso   1.00
C826   C     0.11588   0.83333   0.83333   0.00000  Uiso   1.00
C827   C     0.45323   0.78813   0.84291   0.00000  Uiso   1.00
C828   C     0.04677   0.87853   0.82375   0.00000  Uiso   1.00
C829   C     0.45323   0.87853   0.82375   0.00000  Uiso   1.00
C830   C     0.04677   0.78813   0.84291   0.00000  Uiso   1.00
C831   C     0.47659   0.83333   0.83333   0.00000  Uiso   1.00
C832   C     0.02341   0.83333   0.83333   0.00000  Uiso   1.00
C833   C     0.47688   0.74372   0.85237   0.00000  Uiso   1.00
C834   C     0.02312   0.92295   0.81429   0.00000  Uiso   1.00
C835   C     0.47688   0.92295   0.81429   0.00000  Uiso   1.00
C836   C     0.02312   0.74372   0.85237   0.00000  Uiso   1.00
C837   C     0.25000   0.68841   0.83332   0.00000  Uiso   1.00
C838   C     0.25000   0.97825   0.83335   0.00000  Uiso   1.00
N839   N     0.38250   0.92420   0.81483   0.00000  Uiso   1.00
H840   H     0.36195   0.93093   0.84876   0.00000  Uiso   1.00
H841   H     0.36236   0.92001   0.78007   0.00000  Uiso   1.00
N842   N     0.11750   0.74246   0.85184   0.00000  Uiso   1.00
H843   H     0.13763   0.74666   0.88660   0.00000  Uiso   1.00
H844   H     0.13806   0.73574   0.81791   0.00000  Uiso   1.00
N845   N     0.38250   0.74246   0.85183   0.00000  Uiso   1.00
H846   H     0.36195   0.73573   0.81790   0.00000  Uiso   1.00
H847   H     0.36236   0.74666   0.88659   0.00000  Uiso   1.00
N848   N     0.11750   0.92420   0.81483   0.00000  Uiso   1.00
H849   H     0.13764   0.92001   0.78007   0.00000  Uiso   1.00
H850   H     0.13805   0.93093   0.84876   0.00000  Uiso   1.00
O851   O     0.75000   0.76178   0.87895   0.00000  Uiso   1.00
O852   O     0.75000   0.90488   0.78772   0.00000  Uiso   1.00
O853   O     0.75000   0.90488   0.87895   0.00000  Uiso   1.00
O854   O     0.75000   0.76178   0.78772   0.00000  Uiso   1.00
H855   H     0.95982   0.70869   0.85996   0.00000  Uiso   1.00
H856   H     0.54018   0.95797   0.80670   0.00000  Uiso   1.00
H857   H     0.95982   0.95797   0.80670   0.00000  Uiso   1.00
H858   H     0.54018   0.70869   0.85996   0.00000  Uiso   1.00
C859   C     0.75000   0.73936   0.83332   0.00000  Uiso   1.00
C860   C     0.75000   0.92731   0.83334   0.00000  Uiso   1.00
O861   O     0.68393   0.83333   0.87896   0.00000  Uiso   1.00
O862   O     0.81608   0.83333   0.78770   0.00000  Uiso   1.00
O863   O     0.81608   0.83333   0.87896   0.00000  Uiso   1.00
O864   O     0.68393   0.83333   0.78770   0.00000  Uiso   1.00
C865   C     0.66343   0.83333   0.83333   0.00000  Uiso   1.00
C866   C     0.83657   0.83333   0.83333   0.00000  Uiso   1.00
Zn867  Zn    0.75000   0.83333   0.89426   0.00000  Uiso   1.00
Zn868  Zn    0.75000   0.83333   0.77241   0.00000  Uiso   1.00
N869   N     0.75000   0.83333   0.69121   0.00000  Uiso   1.00
N870   N     0.75000   0.83333   0.97545   0.00000  Uiso   1.00
C871   C     0.90668   0.87843   0.82382   0.00000  Uiso   1.00
C872   C     0.59332   0.78823   0.84285   0.00000  Uiso   1.00
C873   C     0.90668   0.78823   0.84284   0.00000  Uiso   1.00
C874   C     0.59332   0.87843   0.82382   0.00000  Uiso   1.00
C875   C     0.88412   0.83333   0.83333   0.00000  Uiso   1.00
C876   C     0.61588   0.83333   0.83333   0.00000  Uiso   1.00
C877   C     0.95323   0.78813   0.84291   0.00000  Uiso   1.00
C878   C     0.54677   0.87853   0.82375   0.00000  Uiso   1.00
C879   C     0.95323   0.87853   0.82375   0.00000  Uiso   1.00
C880   C     0.54677   0.78813   0.84291   0.00000  Uiso   1.00
C881   C     0.97659   0.83333   0.83333   0.00000  Uiso   1.00
C882   C     0.52341   0.83333   0.83333   0.00000  Uiso   1.00
C883   C     0.97688   0.74372   0.85237   0.00000  Uiso   1.00
C884   C     0.52312   0.92295   0.81429   0.00000  Uiso   1.00
C885   C     0.97688   0.92295   0.81429   0.00000  Uiso   1.00
C886   C     0.52312   0.74372   0.85237   0.00000  Uiso   1.00
C887   C     0.75000   0.68841   0.83332   0.00000  Uiso   1.00
C888   C     0.75000   0.97825   0.83335   0.00000  Uiso   1.00
N889   N     0.88250   0.92420   0.81483   0.00000  Uiso   1.00
H890   H     0.86195   0.93093   0.84876   0.00000  Uiso   1.00
H891   H     0.86236   0.92001   0.78007   0.00000  Uiso   1.00
N892   N     0.61750   0.74246   0.85184   0.00000  Uiso   1.00
H893   H     0.63763   0.74666   0.88660   0.00000  Uiso   1.00
H894   H     0.63806   0.73574   0.81791   0.00000  Uiso   1.00
N895   N     0.88250   0.74246   0.85183   0.00000  Uiso   1.00
H896   H     0.86195   0.73573   0.81790   0.00000  Uiso   1.00
H897   H     0.86236   0.74666   0.88659   0.00000  Uiso   1.00
N898   N     0.61750   0.92420   0.81483   0.00000  Uiso   1.00
H899   H     0.63764   0.92001   0.78007   0.00000  Uiso   1.00
H900   H     0.63805   0.93093   0.84876   0.00000  Uiso   1.00
loop_
_geom_bond_atom_site_label_1
_geom_bond_atom_site_label_2
_geom_bond_distance
_geom_bond_site_symmetry_2
_ccdc_geom_bond_type
O1     Zn17    1.950   .     S
O1     C9      1.263   .     A
O2     Zn18    1.950   .     S
O2     C10     1.263   .     A
O3     C10     1.263   .     A
O3     Zn17    1.950   .     S
O4     Zn18    1.950   .     S
O4     C9      1.263   .     A
H5     C33     1.083   .     S
H6     C34     1.083   .     S
H7     C35     1.083   .     S
H8     C36     1.083   .     S
C9     C37     1.363   .     S
C10    C38     1.363   .     S
O11    C15     1.270   .     A
O11    Zn17    2.012   .     S
O12    C16     1.270   .     A
O12    Zn18    2.012   .     S
O13    Zn17    2.012   .     S
O13    C16     1.270   .     A
O14    Zn18    2.012   .     S
O14    C15     1.270   .     A
C15    C26     1.423   .     S
C16    C25     1.423   .     S
Zn17   N20     1.978   .     S
Zn18   N19     1.978   .     S
N19    N620    1.196   1_554 S
N20    N319    1.196   .     S
C21    N39     1.439   .     S
C21    C25     1.402   .     A
C21    C29     1.393   .     A
C22    N42     1.439   .     S
C22    C26     1.402   .     A
C22    C30     1.393   .     A
C23    N45     1.439   .     S
C23    C27     1.393   .     A
C23    C25     1.402   .     A
C24    C28     1.393   .     A
C24    C26     1.402   .     A
C24    N48     1.439   .     S
C27    C33     1.402   .     A
C27    C31     1.416   .     A
C28    C34     1.402   .     A
C28    C32     1.416   .     A
C29    C31     1.416   .     A
C29    C35     1.402   .     A
C30    C36     1.402   .     A
C30    C32     1.416   .     A
C31    C82     1.401   .     S
C32    C81     1.401   1_455 S
C33    C86     1.384   .     S
C34    C85     1.384   1_455 S
C35    C84     1.384   .     S
C36    C83     1.384   1_455 S
C37    C238    1.163   1_545 S
C38    C137    1.163   .     S
N39    H40     1.046   .     S
N39    H41     1.045   .     S
N42    H44     1.046   .     S
N42    H43     1.045   .     S
N45    H46     1.046   .     S
N45    H47     1.045   .     S
N48    H50     1.046   .     S
N48    H49     1.045   .     S
O51    Zn67    1.950   .     S
O51    C59     1.263   .     A
O52    Zn68    1.950   .     S
O52    C60     1.263   .     A
O53    C60     1.263   .     A
O53    Zn67    1.950   .     S
O54    Zn68    1.950   .     S
O54    C59     1.263   .     A
H55    C83     1.083   .     S
H56    C84     1.083   .     S
H57    C85     1.083   .     S
H58    C86     1.083   .     S
C59    C87     1.363   .     S
C60    C88     1.363   .     S
O61    C65     1.270   .     A
O61    Zn67    2.012   .     S
O62    C66     1.270   .     A
O62    Zn68    2.012   .     S
O63    Zn67    2.012   .     S
O63    C66     1.270   .     A
O64    Zn68    2.012   .     S
O64    C65     1.270   .     A
C65    C76     1.423   .     S
C66    C75     1.423   .     S
Zn67   N70     1.978   .     S
Zn68   N69     1.978   .     S
N69    N670    1.196   1_554 S
N70    N369    1.196   .     S
C71    N89     1.439   .     S
C71    C75     1.402   .     A
C71    C79     1.393   .     A
C72    N92     1.439   .     S
C72    C76     1.402   .     A
C72    C80     1.393   .     A
C73    N95     1.439   .     S
C73    C77     1.393   .     A
C73    C75     1.402   .     A
C74    C78     1.393   .     A
C74    C76     1.402   .     A
C74    N98     1.439   .     S
C77    C83     1.402   .     A
C77    C81     1.416   .     A
C78    C84     1.402   .     A
C78    C82     1.416   .     A
C79    C81     1.416   .     A
C79    C85     1.402   .     A
C80    C86     1.402   .     A
C80    C82     1.416   .     A
C81    C32     1.401   1_655 S
C83    C36     1.384   1_655 S
C85    C34     1.384   1_655 S
C87    C288    1.163   1_545 S
C88    C187    1.163   .     S
N89    H90     1.046   .     S
N89    H91     1.045   .     S
N92    H94     1.046   .     S
N92    H93     1.045   .     S
N95    H96     1.046   .     S
N95    H97     1.045   .     S
N98    H100    1.046   .     S
N98    H99     1.045   .     S
O101   Zn117   1.950   .     S
O101   C109    1.263   .     A
O102   Zn118   1.950   .     S
O102   C110    1.263   .     A
O103   C110    1.263   .     A
O103   Zn117   1.950   .     S
O104   Zn118   1.950   .     S
O104   C109    1.263   .     A
H105   C133    1.083   .     S
H106   C134    1.083   .     S
H107   C135    1.083   .     S
H108   C136    1.083   .     S
C109   C137    1.363   .     S
C110   C138    1.363   .     S
O111   C115    1.270   .     A
O111   Zn117   2.012   .     S
O112   C116    1.270   .     A
O112   Zn118   2.012   .     S
O113   Zn117   2.012   .     S
O113   C116    1.270   .     A
O114   Zn118   2.012   .     S
O114   C115    1.270   .     A
C115   C126    1.423   .     S
C116   C125    1.423   .     S
Zn117  N120    1.978   .     S
Zn118  N119    1.978   .     S
N119   N720    1.196   1_554 S
N120   N419    1.196   .     S
C121   N139    1.439   .     S
C121   C125    1.402   .     A
C121   C129    1.393   .     A
C122   N142    1.439   .     S
C122   C126    1.402   .     A
C122   C130    1.393   .     A
C123   N145    1.439   .     S
C123   C127    1.393   .     A
C123   C125    1.402   .     A
C124   C128    1.393   .     A
C124   C126    1.402   .     A
C124   N148    1.439   .     S
C127   C133    1.402   .     A
C127   C131    1.416   .     A
C128   C134    1.402   .     A
C128   C132    1.416   .     A
C129   C131    1.416   .     A
C129   C135    1.402   .     A
C130   C136    1.402   .     A
C130   C132    1.416   .     A
C131   C182    1.401   .     S
C132   C181    1.401   1_455 S
C133   C186    1.384   .     S
C134   C185    1.384   1_455 S
C135   C184    1.384   .     S
C136   C183    1.384   1_455 S
C138   C237    1.163   .     S
N139   H140    1.046   .     S
N139   H141    1.045   .     S
N142   H144    1.046   .     S
N142   H143    1.045   .     S
N145   H146    1.046   .     S
N145   H147    1.045   .     S
N148   H150    1.046   .     S
N148   H149    1.045   .     S
O151   Zn167   1.950   .     S
O151   C159    1.263   .     A
O152   Zn168   1.950   .     S
O152   C160    1.263   .     A
O153   C160    1.263   .     A
O153   Zn167   1.950   .     S
O154   Zn168   1.950   .     S
O154   C159    1.263   .     A
H155   C183    1.083   .     S
H156   C184    1.083   .     S
H157   C185    1.083   .     S
H158   C186    1.083   .     S
C159   C187    1.363   .     S
C160   C188    1.363   .     S
O161   C165    1.270   .     A
O161   Zn167   2.012   .     S
O162   C166    1.270   .     A
O162   Zn168   2.012   .     S
O163   Zn167   2.012   .     S
O163   C166    1.270   .     A
O164   Zn168   2.012   .     S
O164   C165    1.270   .     A
C165   C176    1.423   .     S
C166   C175    1.423   .     S
Zn167  N170    1.978   .     S
Zn168  N169    1.978   .     S
N169   N770    1.196   1_554 S
N170   N469    1.196   .     S
C171   N189    1.439   .     S
C171   C175    1.402   .     A
C171   C179    1.393   .     A
C172   N192    1.439   .     S
C172   C176    1.402   .     A
C172   C180    1.393   .     A
C173   N195    1.439   .     S
C173   C177    1.393   .     A
C173   C175    1.402   .     A
C174   C178    1.393   .     A
C174   C176    1.402   .     A
C174   N198    1.439   .     S
C177   C183    1.402   .     A
C177   C181    1.416   .     A
C178   C184    1.402   .     A
C178   C182    1.416   .     A
C179   C181    1.416   .     A
C179   C185    1.402   .     A
C180   C186    1.402   .     A
C180   C182    1.416   .     A
C181   C132    1.401   1_655 S
C183   C136    1.384   1_655 S
C185   C134    1.384   1_655 S
C188   C287    1.163   .     S
N189   H190    1.046   .     S
N189   H191    1.045   .     S
N192   H194    1.046   .     S
N192   H193    1.045   .     S
N195   H196    1.046   .     S
N195   H197    1.045   .     S
N198   H200    1.046   .     S
N198   H199    1.045   .     S
O201   Zn217   1.950   .     S
O201   C209    1.263   .     A
O202   Zn218   1.950   .     S
O202   C210    1.263   .     A
O203   C210    1.263   .     A
O203   Zn217   1.950   .     S
O204   Zn218   1.950   .     S
O204   C209    1.263   .     A
H205   C233    1.083   .     S
H206   C234    1.083   .     S
H207   C235    1.083   .     S
H208   C236    1.083   .     S
C209   C237    1.363   .     S
C210   C238    1.363   .     S
O211   C215    1.270   .     A
O211   Zn217   2.012   .     S
O212   C216    1.270   .     A
O212   Zn218   2.012   .     S
O213   Zn217   2.012   .     S
O213   C216    1.270   .     A
O214   Zn218   2.012   .     S
O214   C215    1.270   .     A
C215   C226    1.423   .     S
C216   C225    1.423   .     S
Zn217  N220    1.978   .     S
Zn218  N219    1.978   .     S
N219   N820    1.196   1_554 S
N220   N519    1.196   .     S
C221   N239    1.439   .     S
C221   C225    1.402   .     A
C221   C229    1.393   .     A
C222   N242    1.439   .     S
C222   C226    1.402   .     A
C222   C230    1.393   .     A
C223   N245    1.439   .     S
C223   C227    1.393   .     A
C223   C225    1.402   .     A
C224   C228    1.393   .     A
C224   C226    1.402   .     A
C224   N248    1.439   .     S
C227   C233    1.402   .     A
C227   C231    1.416   .     A
C228   C234    1.402   .     A
C228   C232    1.416   .     A
C229   C231    1.416   .     A
C229   C235    1.402   .     A
C230   C236    1.402   .     A
C230   C232    1.416   .     A
C231   C282    1.401   .     S
C232   C281    1.401   1_455 S
C233   C286    1.384   .     S
C234   C285    1.384   1_455 S
C235   C284    1.384   .     S
C236   C283    1.384   1_455 S
C238   C37     1.163   1_565 S
N239   H240    1.046   .     S
N239   H241    1.045   .     S
N242   H244    1.046   .     S
N242   H243    1.045   .     S
N245   H246    1.046   .     S
N245   H247    1.045   .     S
N248   H250    1.046   .     S
N248   H249    1.045   .     S
O251   Zn267   1.950   .     S
O251   C259    1.263   .     A
O252   Zn268   1.950   .     S
O252   C260    1.263   .     A
O253   C260    1.263   .     A
O253   Zn267   1.950   .     S
O254   Zn268   1.950   .     S
O254   C259    1.263   .     A
H255   C283    1.083   .     S
H256   C284    1.083   .     S
H257   C285    1.083   .     S
H258   C286    1.083   .     S
C259   C287    1.363   .     S
C260   C288    1.363   .     S
O261   C265    1.270   .     A
O261   Zn267   2.012   .     S
O262   C266    1.270   .     A
O262   Zn268   2.012   .     S
O263   Zn267   2.012   .     S
O263   C266    1.270   .     A
O264   Zn268   2.012   .     S
O264   C265    1.270   .     A
C265   C276    1.423   .     S
C266   C275    1.423   .     S
Zn267  N270    1.978   .     S
Zn268  N269    1.978   .     S
N269   N870    1.196   1_554 S
N270   N569    1.196   .     S
C271   N289    1.439   .     S
C271   C275    1.402   .     A
C271   C279    1.393   .     A
C272   N292    1.439   .     S
C272   C276    1.402   .     A
C272   C280    1.393   .     A
C273   N295    1.439   .     S
C273   C277    1.393   .     A
C273   C275    1.402   .     A
C274   C278    1.393   .     A
C274   C276    1.402   .     A
C274   N298    1.439   .     S
C277   C283    1.402   .     A
C277   C281    1.416   .     A
C278   C284    1.402   .     A
C278   C282    1.416   .     A
C279   C281    1.416   .     A
C279   C285    1.402   .     A
C280   C286    1.402   .     A
C280   C282    1.416   .     A
C281   C232    1.401   1_655 S
C283   C236    1.384   1_655 S
C285   C234    1.384   1_655 S
C288   C87     1.163   1_565 S
N289   H290    1.046   .     S
N289   H291    1.045   .     S
N292   H294    1.046   .     S
N292   H293    1.045   .     S
N295   H296    1.046   .     S
N295   H297    1.045   .     S
N298   H300    1.046   .     S
N298   H299    1.045   .     S
O301   Zn317   1.950   .     S
O301   C309    1.263   .     A
O302   Zn318   1.950   .     S
O302   C310    1.263   .     A
O303   C310    1.263   .     A
O303   Zn317   1.950   .     S
O304   Zn318   1.950   .     S
O304   C309    1.263   .     A
H305   C333    1.083   .     S
H306   C334    1.083   .     S
H307   C335    1.083   .     S
H308   C336    1.083   .     S
C309   C337    1.363   .     S
C310   C338    1.363   .     S
O311   C315    1.270   .     A
O311   Zn317   2.012   .     S
O312   C316    1.270   .     A
O312   Zn318   2.012   .     S
O313   Zn317   2.012   .     S
O313   C316    1.270   .     A
O314   Zn318   2.012   .     S
O314   C315    1.270   .     A
C315   C326    1.423   .     S
C316   C325    1.423   .     S
Zn317  N320    1.978   .     S
Zn318  N319    1.978   .     S
N320   N619    1.196   .     S
C321   N339    1.439   .     S
C321   C325    1.402   .     A
C321   C329    1.393   .     A
C322   N342    1.439   .     S
C322   C326    1.402   .     A
C322   C330    1.393   .     A
C323   N345    1.439   .     S
C323   C327    1.393   .     A
C323   C325    1.402   .     A
C324   C328    1.393   .     A
C324   C326    1.402   .     A
C324   N348    1.439   .     S
C327   C333    1.402   .     A
C327   C331    1.416   .     A
C328   C334    1.402   .     A
C328   C332    1.416   .     A
C329   C331    1.416   .     A
C329   C335    1.402   .     A
C330   C336    1.402   .     A
C330   C332    1.416   .     A
C331   C382    1.401   .     S
C332   C381    1.401   1_455 S
C333   C386    1.384   .     S
C334   C385    1.384   1_455 S
C335   C384    1.384   .     S
C336   C383    1.384   1_455 S
C337   C538    1.163   1_545 S
C338   C437    1.163   .     S
N339   H340    1.046   .     S
N339   H341    1.045   .     S
N342   H344    1.046   .     S
N342   H343    1.045   .     S
N345   H346    1.046   .     S
N345   H347    1.045   .     S
N348   H350    1.046   .     S
N348   H349    1.045   .     S
O351   Zn367   1.950   .     S
O351   C359    1.263   .     A
O352   Zn368   1.950   .     S
O352   C360    1.263   .     A
O353   C360    1.263   .     A
O353   Zn367   1.950   .     S
O354   Zn368   1.950   .     S
O354   C359    1.263   .     A
H355   C383    1.083   .     S
H356   C384    1.083   .     S
H357   C385    1.083   .     S
H358   C386    1.083   .     S
C359   C387    1.363   .     S
C360   C388    1.363   .     S
O361   C365    1.270   .     A
O361   Zn367   2.012   .     S
O362   C366    1.270   .     A
O362   Zn368   2.012   .     S
O363   Zn367   2.012   .     S
O363   C366    1.270   .     A
O364   Zn368   2.012   .     S
O364   C365    1.270   .     A
C365   C376    1.423   .     S
C366   C375    1.423   .     S
Zn367  N370    1.978   .     S
Zn368  N369    1.978   .     S
N370   N669    1.196   .     S
C371   N389    1.439   .     S
C371   C375    1.402   .     A
C371   C379    1.393   .     A
C372   N392    1.439   .     S
C372   C376    1.402   .     A
C372   C380    1.393   .     A
C373   N395    1.439   .     S
C373   C377    1.393   .     A
C373   C375    1.402   .     A
C374   C378    1.393   .     A
C374   C376    1.402   .     A
C374   N398    1.439   .     S
C377   C383    1.402   .     A
C377   C381    1.416   .     A
C378   C384    1.402   .     A
C378   C382    1.416   .     A
C379   C381    1.416   .     A
C379   C385    1.402   .     A
C380   C386    1.402   .     A
C380   C382    1.416   .     A
C381   C332    1.401   1_655 S
C383   C336    1.384   1_655 S
C385   C334    1.384   1_655 S
C387   C588    1.163   1_545 S
C388   C487    1.163   .     S
N389   H390    1.046   .     S
N389   H391    1.045   .     S
N392   H394    1.046   .     S
N392   H393    1.045   .     S
N395   H396    1.046   .     S
N395   H397    1.045   .     S
N398   H400    1.046   .     S
N398   H399    1.045   .     S
O401   Zn417   1.950   .     S
O401   C409    1.263   .     A
O402   Zn418   1.950   .     S
O402   C410    1.263   .     A
O403   C410    1.263   .     A
O403   Zn417   1.950   .     S
O404   Zn418   1.950   .     S
O404   C409    1.263   .     A
H405   C433    1.083   .     S
H406   C434    1.083   .     S
H407   C435    1.083   .     S
H408   C436    1.083   .     S
C409   C437    1.363   .     S
C410   C438    1.363   .     S
O411   C415    1.270   .     A
O411   Zn417   2.012   .     S
O412   C416    1.270   .     A
O412   Zn418   2.012   .     S
O413   Zn417   2.012   .     S
O413   C416    1.270   .     A
O414   Zn418   2.012   .     S
O414   C415    1.270   .     A
C415   C426    1.423   .     S
C416   C425    1.423   .     S
Zn417  N420    1.978   .     S
Zn418  N419    1.978   .     S
N420   N719    1.196   .     S
C421   N439    1.439   .     S
C421   C425    1.402   .     A
C421   C429    1.393   .     A
C422   N442    1.439   .     S
C422   C426    1.402   .     A
C422   C430    1.393   .     A
C423   N445    1.439   .     S
C423   C427    1.393   .     A
C423   C425    1.402   .     A
C424   C428    1.393   .     A
C424   C426    1.402   .     A
C424   N448    1.439   .     S
C427   C433    1.402   .     A
C427   C431    1.416   .     A
C428   C434    1.402   .     A
C428   C432    1.416   .     A
C429   C431    1.416   .     A
C429   C435    1.402   .     A
C430   C436    1.402   .     A
C430   C432    1.416   .     A
C431   C482    1.401   .     S
C432   C481    1.401   1_455 S
C433   C486    1.384   .     S
C434   C485    1.384   1_455 S
C435   C484    1.384   .     S
C436   C483    1.384   1_455 S
C438   C537    1.163   .     S
N439   H440    1.046   .     S
N439   H441    1.045   .     S
N442   H444    1.046   .     S
N442   H443    1.045   .     S
N445   H446    1.046   .     S
N445   H447    1.045   .     S
N448   H450    1.046   .     S
N448   H449    1.045   .     S
O451   Zn467   1.950   .     S
O451   C459    1.263   .     A
O452   Zn468   1.950   .     S
O452   C460    1.263   .     A
O453   C460    1.263   .     A
O453   Zn467   1.950   .     S
O454   Zn468   1.950   .     S
O454   C459    1.263   .     A
H455   C483    1.083   .     S
H456   C484    1.083   .     S
H457   C485    1.083   .     S
H458   C486    1.083   .     S
C459   C487    1.363   .     S
C460   C488    1.363   .     S
O461   C465    1.270   .     A
O461   Zn467   2.012   .     S
O462   C466    1.270   .     A
O462   Zn468   2.012   .     S
O463   Zn467   2.012   .     S
O463   C466    1.270   .     A
O464   Zn468   2.012   .     S
O464   C465    1.270   .     A
C465   C476    1.423   .     S
C466   C475    1.423   .     S
Zn467  N470    1.978   .     S
Zn468  N469    1.978   .     S
N470   N769    1.196   .     S
C471   N489    1.439   .     S
C471   C475    1.402   .     A
C471   C479    1.393   .     A
C472   N492    1.439   .     S
C472   C476    1.402   .     A
C472   C480    1.393   .     A
C473   N495    1.439   .     S
C473   C477    1.393   .     A
C473   C475    1.402   .     A
C474   C478    1.393   .     A
C474   C476    1.402   .     A
C474   N498    1.439   .     S
C477   C483    1.402   .     A
C477   C481    1.416   .     A
C478   C484    1.402   .     A
C478   C482    1.416   .     A
C479   C481    1.416   .     A
C479   C485    1.402   .     A
C480   C486    1.402   .     A
C480   C482    1.416   .     A
C481   C432    1.401   1_655 S
C483   C436    1.384   1_655 S
C485   C434    1.384   1_655 S
C488   C587    1.163   .     S
N489   H490    1.046   .     S
N489   H491    1.045   .     S
N492   H494    1.046   .     S
N492   H493    1.045   .     S
N495   H496    1.046   .     S
N495   H497    1.045   .     S
N498   H500    1.046   .     S
N498   H499    1.045   .     S
O501   Zn517   1.950   .     S
O501   C509    1.263   .     A
O502   Zn518   1.950   .     S
O502   C510    1.263   .     A
O503   C510    1.263   .     A
O503   Zn517   1.950   .     S
O504   Zn518   1.950   .     S
O504   C509    1.263   .     A
H505   C533    1.083   .     S
H506   C534    1.083   .     S
H507   C535    1.083   .     S
H508   C536    1.083   .     S
C509   C537    1.363   .     S
C510   C538    1.363   .     S
O511   C515    1.270   .     A
O511   Zn517   2.012   .     S
O512   C516    1.270   .     A
O512   Zn518   2.012   .     S
O513   Zn517   2.012   .     S
O513   C516    1.270   .     A
O514   Zn518   2.012   .     S
O514   C515    1.270   .     A
C515   C526    1.423   .     S
C516   C525    1.423   .     S
Zn517  N520    1.978   .     S
Zn518  N519    1.978   .     S
N520   N819    1.196   .     S
C521   N539    1.439   .     S
C521   C525    1.402   .     A
C521   C529    1.393   .     A
C522   N542    1.439   .     S
C522   C526    1.402   .     A
C522   C530    1.393   .     A
C523   N545    1.439   .     S
C523   C527    1.393   .     A
C523   C525    1.402   .     A
C524   C528    1.393   .     A
C524   C526    1.402   .     A
C524   N548    1.439   .     S
C527   C533    1.402   .     A
C527   C531    1.416   .     A
C528   C534    1.402   .     A
C528   C532    1.416   .     A
C529   C531    1.416   .     A
C529   C535    1.402   .     A
C530   C536    1.402   .     A
C530   C532    1.416   .     A
C531   C582    1.401   .     S
C532   C581    1.401   1_455 S
C533   C586    1.384   .     S
C534   C585    1.384   1_455 S
C535   C584    1.384   .     S
C536   C583    1.384   1_455 S
C538   C337    1.163   1_565 S
N539   H540    1.046   .     S
N539   H541    1.045   .     S
N542   H544    1.046   .     S
N542   H543    1.045   .     S
N545   H546    1.046   .     S
N545   H547    1.045   .     S
N548   H550    1.046   .     S
N548   H549    1.045   .     S
O551   Zn567   1.950   .     S
O551   C559    1.263   .     A
O552   Zn568   1.950   .     S
O552   C560    1.263   .     A
O553   C560    1.263   .     A
O553   Zn567   1.950   .     S
O554   Zn568   1.950   .     S
O554   C559    1.263   .     A
H555   C583    1.083   .     S
H556   C584    1.083   .     S
H557   C585    1.083   .     S
H558   C586    1.083   .     S
C559   C587    1.363   .     S
C560   C588    1.363   .     S
O561   C565    1.270   .     A
O561   Zn567   2.012   .     S
O562   C566    1.270   .     A
O562   Zn568   2.012   .     S
O563   Zn567   2.012   .     S
O563   C566    1.270   .     A
O564   Zn568   2.012   .     S
O564   C565    1.270   .     A
C565   C576    1.423   .     S
C566   C575    1.423   .     S
Zn567  N570    1.978   .     S
Zn568  N569    1.978   .     S
N570   N869    1.196   .     S
C571   N589    1.439   .     S
C571   C575    1.402   .     A
C571   C579    1.393   .     A
C572   N592    1.439   .     S
C572   C576    1.402   .     A
C572   C580    1.393   .     A
C573   N595    1.439   .     S
C573   C577    1.393   .     A
C573   C575    1.402   .     A
C574   C578    1.393   .     A
C574   C576    1.402   .     A
C574   N598    1.439   .     S
C577   C583    1.402   .     A
C577   C581    1.416   .     A
C578   C584    1.402   .     A
C578   C582    1.416   .     A
C579   C581    1.416   .     A
C579   C585    1.402   .     A
C580   C586    1.402   .     A
C580   C582    1.416   .     A
C581   C532    1.401   1_655 S
C583   C536    1.384   1_655 S
C585   C534    1.384   1_655 S
C588   C387    1.163   1_565 S
N589   H590    1.046   .     S
N589   H591    1.045   .     S
N592   H594    1.046   .     S
N592   H593    1.045   .     S
N595   H596    1.046   .     S
N595   H597    1.045   .     S
N598   H600    1.046   .     S
N598   H599    1.045   .     S
O601   Zn617   1.950   .     S
O601   C609    1.263   .     A
O602   Zn618   1.950   .     S
O602   C610    1.263   .     A
O603   C610    1.263   .     A
O603   Zn617   1.950   .     S
O604   Zn618   1.950   .     S
O604   C609    1.263   .     A
H605   C633    1.083   .     S
H606   C634    1.083   .     S
H607   C635    1.083   .     S
H608   C636    1.083   .     S
C609   C637    1.363   .     S
C610   C638    1.363   .     S
O611   C615    1.270   .     A
O611   Zn617   2.012   .     S
O612   C616    1.270   .     A
O612   Zn618   2.012   .     S
O613   Zn617   2.012   .     S
O613   C616    1.270   .     A
O614   Zn618   2.012   .     S
O614   C615    1.270   .     A
C615   C626    1.423   .     S
C616   C625    1.423   .     S
Zn617  N620    1.978   .     S
Zn618  N619    1.978   .     S
N620   N19     1.196   1_556 S
C621   N639    1.439   .     S
C621   C625    1.402   .     A
C621   C629    1.393   .     A
C622   N642    1.439   .     S
C622   C626    1.402   .     A
C622   C630    1.393   .     A
C623   N645    1.439   .     S
C623   C627    1.393   .     A
C623   C625    1.402   .     A
C624   C628    1.393   .     A
C624   C626    1.402   .     A
C624   N648    1.439   .     S
C627   C633    1.402   .     A
C627   C631    1.416   .     A
C628   C634    1.402   .     A
C628   C632    1.416   .     A
C629   C631    1.416   .     A
C629   C635    1.402   .     A
C630   C636    1.402   .     A
C630   C632    1.416   .     A
C631   C682    1.401   .     S
C632   C681    1.401   1_455 S
C633   C686    1.384   .     S
C634   C685    1.384   1_455 S
C635   C684    1.384   .     S
C636   C683    1.384   1_455 S
C637   C838    1.163   1_545 S
C638   C737    1.163   .     S
N639   H640    1.046   .     S
N639   H641    1.045   .     S
N642   H644    1.046   .     S
N642   H643    1.045   .     S
N645   H646    1.046   .     S
N645   H647    1.045   .     S
N648   H650    1.046   .     S
N648   H649    1.045   .     S
O651   Zn667   1.950   .     S
O651   C659    1.263   .     A
O652   Zn668   1.950   .     S
O652   C660    1.263   .     A
O653   C660    1.263   .     A
O653   Zn667   1.950   .     S
O654   Zn668   1.950   .     S
O654   C659    1.263   .     A
H655   C683    1.083   .     S
H656   C684    1.083   .     S
H657   C685    1.083   .     S
H658   C686    1.083   .     S
C659   C687    1.363   .     S
C660   C688    1.363   .     S
O661   C665    1.270   .     A
O661   Zn667   2.012   .     S
O662   C666    1.270   .     A
O662   Zn668   2.012   .     S
O663   Zn667   2.012   .     S
O663   C666    1.270   .     A
O664   Zn668   2.012   .     S
O664   C665    1.270   .     A
C665   C676    1.423   .     S
C666   C675    1.423   .     S
Zn667  N670    1.978   .     S
Zn668  N669    1.978   .     S
N670   N69     1.196   1_556 S
C671   N689    1.439   .     S
C671   C675    1.402   .     A
C671   C679    1.393   .     A
C672   N692    1.439   .     S
C672   C676    1.402   .     A
C672   C680    1.393   .     A
C673   N695    1.439   .     S
C673   C677    1.393   .     A
C673   C675    1.402   .     A
C674   C678    1.393   .     A
C674   C676    1.402   .     A
C674   N698    1.439   .     S
C677   C683    1.402   .     A
C677   C681    1.416   .     A
C678   C684    1.402   .     A
C678   C682    1.416   .     A
C679   C681    1.416   .     A
C679   C685    1.402   .     A
C680   C686    1.402   .     A
C680   C682    1.416   .     A
C681   C632    1.401   1_655 S
C683   C636    1.384   1_655 S
C685   C634    1.384   1_655 S
C687   C888    1.163   1_545 S
C688   C787    1.163   .     S
N689   H690    1.046   .     S
N689   H691    1.045   .     S
N692   H694    1.046   .     S
N692   H693    1.045   .     S
N695   H696    1.046   .     S
N695   H697    1.045   .     S
N698   H700    1.046   .     S
N698   H699    1.045   .     S
O701   Zn717   1.950   .     S
O701   C709    1.263   .     A
O702   Zn718   1.950   .     S
O702   C710    1.263   .     A
O703   C710    1.263   .     A
O703   Zn717   1.950   .     S
O704   Zn718   1.950   .     S
O704   C709    1.263   .     A
H705   C733    1.083   .     S
H706   C734    1.083   .     S
H707   C735    1.083   .     S
H708   C736    1.083   .     S
C709   C737    1.363   .     S
C710   C738    1.363   .     S
O711   C715    1.270   .     A
O711   Zn717   2.012   .     S
O712   C716    1.270   .     A
O712   Zn718   2.012   .     S
O713   Zn717   2.012   .     S
O713   C716    1.270   .     A
O714   Zn718   2.012   .     S
O714   C715    1.270   .     A
C715   C726    1.423   .     S
C716   C725    1.423   .     S
Zn717  N720    1.978   .     S
Zn718  N719    1.978   .     S
N720   N119    1.196   1_556 S
C721   N739    1.439   .     S
C721   C725    1.402   .     A
C721   C729    1.393   .     A
C722   N742    1.439   .     S
C722   C726    1.402   .     A
C722   C730    1.393   .     A
C723   N745    1.439   .     S
C723   C727    1.393   .     A
C723   C725    1.402   .     A
C724   C728    1.393   .     A
C724   C726    1.402   .     A
C724   N748    1.439   .     S
C727   C733    1.402   .     A
C727   C731    1.416   .     A
C728   C734    1.402   .     A
C728   C732    1.416   .     A
C729   C731    1.416   .     A
C729   C735    1.402   .     A
C730   C736    1.402   .     A
C730   C732    1.416   .     A
C731   C782    1.401   .     S
C732   C781    1.401   1_455 S
C733   C786    1.384   .     S
C734   C785    1.384   1_455 S
C735   C784    1.384   .     S
C736   C783    1.384   1_455 S
C738   C837    1.163   .     S
N739   H740    1.046   .     S
N739   H741    1.045   .     S
N742   H744    1.046   .     S
N742   H743    1.045   .     S
N745   H746    1.046   .     S
N745   H747    1.045   .     S
N748   H750    1.046   .     S
N748   H749    1.045   .     S
O751   Zn767   1.950   .     S
O751   C759    1.263   .     A
O752   Zn768   1.950   .     S
O752   C760    1.263   .     A
O753   C760    1.263   .     A
O753   Zn767   1.950   .     S
O754   Zn768   1.950   .     S
O754   C759    1.263   .     A
H755   C783    1.083   .     S
H756   C784    1.083   .     S
H757   C785    1.083   .     S
H758   C786    1.083   .     S
C759   C787    1.363   .     S
C760   C788    1.363   .     S
O761   C765    1.270   .     A
O761   Zn767   2.012   .     S
O762   C766    1.270   .     A
O762   Zn768   2.012   .     S
O763   Zn767   2.012   .     S
O763   C766    1.270   .     A
O764   Zn768   2.012   .     S
O764   C765    1.270   .     A
C765   C776    1.423   .     S
C766   C775    1.423   .     S
Zn767  N770    1.978   .     S
Zn768  N769    1.978   .     S
N770   N169    1.196   1_556 S
C771   N789    1.439   .     S
C771   C775    1.402   .     A
C771   C779    1.393   .     A
C772   N792    1.439   .     S
C772   C776    1.402   .     A
C772   C780    1.393   .     A
C773   N795    1.439   .     S
C773   C777    1.393   .     A
C773   C775    1.402   .     A
C774   C778    1.393   .     A
C774   C776    1.402   .     A
C774   N798    1.439   .     S
C777   C783    1.402   .     A
C777   C781    1.416   .     A
C778   C784    1.402   .     A
C778   C782    1.416   .     A
C779   C781    1.416   .     A
C779   C785    1.402   .     A
C780   C786    1.402   .     A
C780   C782    1.416   .     A
C781   C732    1.401   1_655 S
C783   C736    1.384   1_655 S
C785   C734    1.384   1_655 S
C788   C887    1.163   .     S
N789   H790    1.046   .     S
N789   H791    1.045   .     S
N792   H794    1.046   .     S
N792   H793    1.045   .     S
N795   H796    1.046   .     S
N795   H797    1.045   .     S
N798   H800    1.046   .     S
N798   H799    1.045   .     S
O801   Zn817   1.950   .     S
O801   C809    1.263   .     A
O802   Zn818   1.950   .     S
O802   C810    1.263   .     A
O803   C810    1.263   .     A
O803   Zn817   1.950   .     S
O804   Zn818   1.950   .     S
O804   C809    1.263   .     A
H805   C833    1.083   .     S
H806   C834    1.083   .     S
H807   C835    1.083   .     S
H808   C836    1.083   .     S
C809   C837    1.363   .     S
C810   C838    1.363   .     S
O811   C815    1.270   .     A
O811   Zn817   2.012   .     S
O812   C816    1.270   .     A
O812   Zn818   2.012   .     S
O813   Zn817   2.012   .     S
O813   C816    1.270   .     A
O814   Zn818   2.012   .     S
O814   C815    1.270   .     A
C815   C826    1.423   .     S
C816   C825    1.423   .     S
Zn817  N820    1.978   .     S
Zn818  N819    1.978   .     S
N820   N219    1.196   1_556 S
C821   N839    1.439   .     S
C821   C825    1.402   .     A
C821   C829    1.393   .     A
C822   N842    1.439   .     S
C822   C826    1.402   .     A
C822   C830    1.393   .     A
C823   N845    1.439   .     S
C823   C827    1.393   .     A
C823   C825    1.402   .     A
C824   C828    1.393   .     A
C824   C826    1.402   .     A
C824   N848    1.439   .     S
C827   C833    1.402   .     A
C827   C831    1.416   .     A
C828   C834    1.402   .     A
C828   C832    1.416   .     A
C829   C831    1.416   .     A
C829   C835    1.402   .     A
C830   C836    1.402   .     A
C830   C832    1.416   .     A
C831   C882    1.401   .     S
C832   C881    1.401   1_455 S
C833   C886    1.384   .     S
C834   C885    1.384   1_455 S
C835   C884    1.384   .     S
C836   C883    1.384   1_455 S
C838   C637    1.163   1_565 S
N839   H840    1.046   .     S
N839   H841    1.045   .     S
N842   H844    1.046   .     S
N842   H843    1.045   .     S
N845   H846    1.046   .     S
N845   H847    1.045   .     S
N848   H850    1.046   .     S
N848   H849    1.045   .     S
O851   Zn867   1.950   .     S
O851   C859    1.263   .     A
O852   Zn868   1.950   .     S
O852   C860    1.263   .     A
O853   C860    1.263   .     A
O853   Zn867   1.950   .     S
O854   Zn868   1.950   .     S
O854   C859    1.263   .     A
H855   C883    1.083   .     S
H856   C884    1.083   .     S
H857   C885    1.083   .     S
H858   C886    1.083   .     S
C859   C887    1.363   .     S
C860   C888    1.363   .     S
O861   C865    1.270   .     A
O861   Zn867   2.012   .     S
O862   C866    1.270   .     A
O862   Zn868   2.012   .     S
O863   Zn867   2.012   .     S
O863   C866    1.270   .     A
O864   Zn868   2.012   .     S
O864   C865    1.270   .     A
C865   C876    1.423   .     S
C866   C875    1.423   .     S
Zn867  N870    1.978   .     S
Zn868  N869    1.978   .     S
N870   N269    1.196   1_556 S
C871   N889    1.439   .     S
C871   C875    1.402   .     A
C871   C879    1.393   .     A
C872   N892    1.439   .     S
C872   C876    1.402   .     A
C872   C880    1.393   .     A
C873   N895    1.439   .     S
C873   C877    1.393   .     A
C873   C875    1.402   .     A
C874   C878    1.393   .     A
C874   C876    1.402   .     A
C874   N898    1.439   .     S
C877   C883    1.402   .     A
C877   C881    1.416   .     A
C878   C884    1.402   .     A
C878   C882    1.416   .     A
C879   C881    1.416   .     A
C879   C885    1.402   .     A
C880   C886    1.402   .     A
C880   C882    1.416   .     A
C881   C832    1.401   1_655 S
C883   C836    1.384   1_655 S
C885   C834    1.384   1_655 S
C888   C687    1.163   1_565 S
N889   H890    1.046   .     S
N889   H891    1.045   .     S
N892   H894    1.046   .     S
N892   H893    1.045   .     S
N895   H896    1.046   .     S
N895   H897    1.045   .     S
N898   H900    1.046   .     S
N898   H899    1.045   .     S
