data_str_m3_o1_o18_pcu_sym.130
_audit_creation_date              2020-01-03
_audit_creation_method            'Materials Studio'
_symmetry_space_group_name_H-M    'P1'
_symmetry_Int_Tables_number       1
_symmetry_cell_setting            triclinic
loop_
_symmetry_equiv_pos_as_xyz
  x,y,z
_cell_length_a                    29.7261
_cell_length_b                    32.0230
_cell_length_c                    30.9060
_cell_angle_alpha                 88.7863
_cell_angle_beta                  65.9109
_cell_angle_gamma                 89.2839
loop_
_atom_site_label
_atom_site_type_symbol
_atom_site_fract_x
_atom_site_fract_y
_atom_site_fract_z
_atom_site_U_iso_or_equiv
_atom_site_adp_type
_atom_site_occupancy
C1     C     0.16660   0.24662   0.24976   0.00000  Uiso   1.00
C2     C     0.16673   0.08671   0.25024   0.00000  Uiso   1.00
C3     C     0.13773   0.12015   0.03727   0.00000  Uiso   1.00
C4     C     0.19560   0.21319   0.46273   0.00000  Uiso   1.00
C5     C     0.10459   0.10754   0.01888   0.00000  Uiso   1.00
C6     C     0.22875   0.22580   0.48112   0.00000  Uiso   1.00
C7     C     0.21158   0.31176   0.23345   0.00000  Uiso   1.00
C8     C     0.12176   0.02158   0.26655   0.00000  Uiso   1.00
C9     C     0.21167   0.02118   0.23399   0.00000  Uiso   1.00
C10    C     0.12166   0.31215   0.26601   0.00000  Uiso   1.00
C11    C     0.16678   0.04253   0.25048   0.00000  Uiso   1.00
C12    C     0.16656   0.29080   0.24952   0.00000  Uiso   1.00
C13    C     0.29984   0.13690   0.27508   0.00000  Uiso   1.00
C14    C     0.03349   0.19644   0.22492   0.00000  Uiso   1.00
C15    C     0.01449   0.13665   0.27407   0.00000  Uiso   1.00
C16    C     0.31885   0.19668   0.22593   0.00000  Uiso   1.00
C17    C     0.13525   0.16509   0.33855   0.00000  Uiso   1.00
C18    C     0.19808   0.16824   0.16145   0.00000  Uiso   1.00
C19    C     0.11461   0.15948   0.39048   0.00000  Uiso   1.00
C20    C     0.21872   0.17386   0.10952   0.00000  Uiso   1.00
C21    C     0.06436   0.12209   0.46363   0.00000  Uiso   1.00
C22    C     0.26897   0.21125   0.03637   0.00000  Uiso   1.00
C23    C     0.07306   0.13456   0.41680   0.00000  Uiso   1.00
C24    C     0.26028   0.19877   0.08320   0.00000  Uiso   1.00
C25    C     0.14223   0.17582   0.41310   0.00000  Uiso   1.00
C26    C     0.19110   0.15751   0.08690   0.00000  Uiso   1.00
C27    C     0.13551   0.16244   0.45866   0.00000  Uiso   1.00
C28    C     0.19783   0.17089   0.04134   0.00000  Uiso   1.00
C29    C     0.10018   0.13080   0.48146   0.00000  Uiso   1.00
C30    C     0.23315   0.20253   0.01854   0.00000  Uiso   1.00
C31    C     0.16649   0.17713   0.47980   0.00000  Uiso   1.00
C32    C     0.16685   0.15621   0.02021   0.00000  Uiso   1.00
N33    N     0.04759   0.16668   0.25001   0.00000  Uiso   1.00
N34    N     0.28574   0.16666   0.24999   0.00000  Uiso   1.00
O35    O     0.12846   0.22775   0.25001   0.00000  Uiso   1.00
O36    O     0.20488   0.10558   0.25000   0.00000  Uiso   1.00
O37    O     0.20490   0.22774   0.25000   0.00000  Uiso   1.00
O38    O     0.12843   0.10559   0.25000   0.00000  Uiso   1.00
O39    O     0.10661   0.16667   0.31613   0.00000  Uiso   1.00
O40    O     0.22672   0.16666   0.18388   0.00000  Uiso   1.00
O41    O     0.18305   0.16666   0.31612   0.00000  Uiso   1.00
O42    O     0.15028   0.16667   0.18388   0.00000  Uiso   1.00
Zn43   Zn    0.11562   0.16667   0.25000   0.00000  Uiso   1.00
Zn44   Zn    0.21771   0.16666   0.25000   0.00000  Uiso   1.00
I45    I     0.07783   0.04555   0.03984   0.00000  Uiso   1.00
I46    I     0.25551   0.28779   0.46016   0.00000  Uiso   1.00
H47    H     0.16049   0.13766   0.10775   0.00000  Uiso   1.00
H48    H     0.17284   0.19567   0.39225   0.00000  Uiso   1.00
I49    I     0.30783   0.22151   0.11353   0.00000  Uiso   1.00
I50    I     0.02550   0.11182   0.38647   0.00000  Uiso   1.00
I51    I     0.32525   0.10122   0.01008   0.00000  Uiso   1.00
I52    I     0.00808   0.23212   0.48992   0.00000  Uiso   1.00
H53    H     0.14227   0.09959   0.06334   0.00000  Uiso   1.00
H54    H     0.19107   0.23375   0.43666   0.00000  Uiso   1.00
H55    H     0.24650   0.29519   0.22021   0.00000  Uiso   1.00
H56    H     0.08684   0.03814   0.27979   0.00000  Uiso   1.00
H57    H     0.24660   0.03744   0.22106   0.00000  Uiso   1.00
H58    H     0.08673   0.29589   0.27894   0.00000  Uiso   1.00
I59    I     0.25183   0.09089   0.32010   0.00000  Uiso   1.00
I60    I     0.08150   0.24244   0.17990   0.00000  Uiso   1.00
H61    H     0.02527   0.11219   0.29242   0.00000  Uiso   1.00
H62    H     0.30806   0.22114   0.20758   0.00000  Uiso   1.00
C63    C     0.49994   0.24662   0.24976   0.00000  Uiso   1.00
C64    C     0.50006   0.08671   0.25024   0.00000  Uiso   1.00
C65    C     0.47106   0.12015   0.03727   0.00000  Uiso   1.00
C66    C     0.52894   0.21319   0.46273   0.00000  Uiso   1.00
C67    C     0.43792   0.10754   0.01888   0.00000  Uiso   1.00
C68    C     0.56208   0.22580   0.48112   0.00000  Uiso   1.00
C69    C     0.54491   0.31176   0.23345   0.00000  Uiso   1.00
C70    C     0.45509   0.02158   0.26655   0.00000  Uiso   1.00
C71    C     0.54501   0.02118   0.23399   0.00000  Uiso   1.00
C72    C     0.45499   0.31215   0.26601   0.00000  Uiso   1.00
C73    C     0.50011   0.04253   0.25048   0.00000  Uiso   1.00
C74    C     0.49989   0.29080   0.24952   0.00000  Uiso   1.00
C75    C     0.63318   0.13690   0.27508   0.00000  Uiso   1.00
C76    C     0.36682   0.19644   0.22492   0.00000  Uiso   1.00
C77    C     0.34782   0.13665   0.27407   0.00000  Uiso   1.00
C78    C     0.65218   0.19668   0.22593   0.00000  Uiso   1.00
C79    C     0.46858   0.16509   0.33855   0.00000  Uiso   1.00
C80    C     0.53142   0.16824   0.16145   0.00000  Uiso   1.00
C81    C     0.44795   0.15948   0.39048   0.00000  Uiso   1.00
C82    C     0.55205   0.17386   0.10952   0.00000  Uiso   1.00
C83    C     0.39770   0.12209   0.46363   0.00000  Uiso   1.00
C84    C     0.60230   0.21125   0.03637   0.00000  Uiso   1.00
C85    C     0.40639   0.13456   0.41680   0.00000  Uiso   1.00
C86    C     0.59361   0.19877   0.08320   0.00000  Uiso   1.00
C87    C     0.47557   0.17582   0.41310   0.00000  Uiso   1.00
C88    C     0.52443   0.15751   0.08690   0.00000  Uiso   1.00
C89    C     0.46884   0.16244   0.45866   0.00000  Uiso   1.00
C90    C     0.53116   0.17089   0.04134   0.00000  Uiso   1.00
C91    C     0.43352   0.13080   0.48146   0.00000  Uiso   1.00
C92    C     0.56648   0.20253   0.01854   0.00000  Uiso   1.00
C93    C     0.49982   0.17713   0.47980   0.00000  Uiso   1.00
C94    C     0.50018   0.15621   0.02021   0.00000  Uiso   1.00
N95    N     0.38093   0.16668   0.25001   0.00000  Uiso   1.00
N96    N     0.61907   0.16666   0.24999   0.00000  Uiso   1.00
O97    O     0.46179   0.22775   0.25001   0.00000  Uiso   1.00
O98    O     0.53821   0.10558   0.25000   0.00000  Uiso   1.00
O99    O     0.53823   0.22774   0.25000   0.00000  Uiso   1.00
O100   O     0.46177   0.10559   0.25000   0.00000  Uiso   1.00
O101   O     0.43994   0.16667   0.31613   0.00000  Uiso   1.00
O102   O     0.56006   0.16666   0.18388   0.00000  Uiso   1.00
O103   O     0.51639   0.16666   0.31612   0.00000  Uiso   1.00
O104   O     0.48361   0.16667   0.18388   0.00000  Uiso   1.00
Zn105  Zn    0.44896   0.16667   0.25000   0.00000  Uiso   1.00
Zn106  Zn    0.55104   0.16666   0.25000   0.00000  Uiso   1.00
I107   I     0.41116   0.04555   0.03984   0.00000  Uiso   1.00
I108   I     0.58884   0.28779   0.46016   0.00000  Uiso   1.00
H109   H     0.49383   0.13766   0.10775   0.00000  Uiso   1.00
H110   H     0.50617   0.19567   0.39225   0.00000  Uiso   1.00
I111   I     0.64116   0.22151   0.11353   0.00000  Uiso   1.00
I112   I     0.35884   0.11182   0.38647   0.00000  Uiso   1.00
I113   I     0.65858   0.10122   0.01008   0.00000  Uiso   1.00
I114   I     0.34142   0.23212   0.48992   0.00000  Uiso   1.00
H115   H     0.47560   0.09959   0.06334   0.00000  Uiso   1.00
H116   H     0.52440   0.23375   0.43666   0.00000  Uiso   1.00
H117   H     0.57983   0.29519   0.22021   0.00000  Uiso   1.00
H118   H     0.42017   0.03814   0.27979   0.00000  Uiso   1.00
H119   H     0.57993   0.03744   0.22106   0.00000  Uiso   1.00
H120   H     0.42007   0.29589   0.27894   0.00000  Uiso   1.00
I121   I     0.58517   0.09089   0.32010   0.00000  Uiso   1.00
I122   I     0.41483   0.24244   0.17990   0.00000  Uiso   1.00
H123   H     0.35860   0.11219   0.29242   0.00000  Uiso   1.00
H124   H     0.64140   0.22114   0.20758   0.00000  Uiso   1.00
C125   C     0.83327   0.24662   0.24976   0.00000  Uiso   1.00
C126   C     0.83340   0.08671   0.25024   0.00000  Uiso   1.00
C127   C     0.80440   0.12015   0.03727   0.00000  Uiso   1.00
C128   C     0.86227   0.21319   0.46273   0.00000  Uiso   1.00
C129   C     0.77125   0.10754   0.01888   0.00000  Uiso   1.00
C130   C     0.89541   0.22580   0.48112   0.00000  Uiso   1.00
C131   C     0.87824   0.31176   0.23345   0.00000  Uiso   1.00
C132   C     0.78842   0.02158   0.26655   0.00000  Uiso   1.00
C133   C     0.87834   0.02118   0.23399   0.00000  Uiso   1.00
C134   C     0.78833   0.31215   0.26601   0.00000  Uiso   1.00
C135   C     0.83344   0.04253   0.25048   0.00000  Uiso   1.00
C136   C     0.83322   0.29080   0.24952   0.00000  Uiso   1.00
C137   C     0.96651   0.13690   0.27508   0.00000  Uiso   1.00
C138   C     0.70016   0.19644   0.22492   0.00000  Uiso   1.00
C139   C     0.68115   0.13665   0.27407   0.00000  Uiso   1.00
C140   C     0.98551   0.19668   0.22593   0.00000  Uiso   1.00
C141   C     0.80192   0.16509   0.33855   0.00000  Uiso   1.00
C142   C     0.86475   0.16824   0.16145   0.00000  Uiso   1.00
C143   C     0.78128   0.15948   0.39048   0.00000  Uiso   1.00
C144   C     0.88539   0.17386   0.10952   0.00000  Uiso   1.00
C145   C     0.73103   0.12209   0.46363   0.00000  Uiso   1.00
C146   C     0.93564   0.21125   0.03637   0.00000  Uiso   1.00
C147   C     0.73972   0.13456   0.41680   0.00000  Uiso   1.00
C148   C     0.92694   0.19877   0.08320   0.00000  Uiso   1.00
C149   C     0.80890   0.17582   0.41310   0.00000  Uiso   1.00
C150   C     0.85777   0.15751   0.08690   0.00000  Uiso   1.00
C151   C     0.80217   0.16244   0.45866   0.00000  Uiso   1.00
C152   C     0.86450   0.17089   0.04134   0.00000  Uiso   1.00
C153   C     0.76685   0.13080   0.48146   0.00000  Uiso   1.00
C154   C     0.89982   0.20253   0.01854   0.00000  Uiso   1.00
C155   C     0.83315   0.17713   0.47980   0.00000  Uiso   1.00
C156   C     0.83352   0.15621   0.02021   0.00000  Uiso   1.00
N157   N     0.71426   0.16668   0.25001   0.00000  Uiso   1.00
N158   N     0.95241   0.16666   0.24999   0.00000  Uiso   1.00
O159   O     0.79512   0.22775   0.25001   0.00000  Uiso   1.00
O160   O     0.87154   0.10558   0.25000   0.00000  Uiso   1.00
O161   O     0.87157   0.22774   0.25000   0.00000  Uiso   1.00
O162   O     0.79510   0.10559   0.25000   0.00000  Uiso   1.00
O163   O     0.77328   0.16667   0.31613   0.00000  Uiso   1.00
O164   O     0.89339   0.16666   0.18388   0.00000  Uiso   1.00
O165   O     0.84972   0.16666   0.31612   0.00000  Uiso   1.00
O166   O     0.81695   0.16667   0.18388   0.00000  Uiso   1.00
Zn167  Zn    0.78229   0.16667   0.25000   0.00000  Uiso   1.00
Zn168  Zn    0.88438   0.16666   0.25000   0.00000  Uiso   1.00
I169   I     0.74450   0.04555   0.03984   0.00000  Uiso   1.00
I170   I     0.92217   0.28779   0.46016   0.00000  Uiso   1.00
H171   H     0.82716   0.13766   0.10775   0.00000  Uiso   1.00
H172   H     0.83951   0.19567   0.39225   0.00000  Uiso   1.00
I173   I     0.97450   0.22151   0.11353   0.00000  Uiso   1.00
I174   I     0.69217   0.11182   0.38647   0.00000  Uiso   1.00
I175   I     0.99192   0.10122   0.01008   0.00000  Uiso   1.00
I176   I     0.67475   0.23212   0.48992   0.00000  Uiso   1.00
H177   H     0.80893   0.09959   0.06334   0.00000  Uiso   1.00
H178   H     0.85773   0.23375   0.43666   0.00000  Uiso   1.00
H179   H     0.91316   0.29519   0.22021   0.00000  Uiso   1.00
H180   H     0.75350   0.03814   0.27979   0.00000  Uiso   1.00
H181   H     0.91327   0.03744   0.22106   0.00000  Uiso   1.00
H182   H     0.75340   0.29589   0.27894   0.00000  Uiso   1.00
I183   I     0.91850   0.09089   0.32010   0.00000  Uiso   1.00
I184   I     0.74817   0.24244   0.17990   0.00000  Uiso   1.00
H185   H     0.69194   0.11219   0.29242   0.00000  Uiso   1.00
H186   H     0.97473   0.22114   0.20758   0.00000  Uiso   1.00
C187   C     0.16660   0.57996   0.24976   0.00000  Uiso   1.00
C188   C     0.16673   0.42004   0.25024   0.00000  Uiso   1.00
C189   C     0.13773   0.45348   0.03727   0.00000  Uiso   1.00
C190   C     0.19560   0.54652   0.46273   0.00000  Uiso   1.00
C191   C     0.10459   0.44087   0.01888   0.00000  Uiso   1.00
C192   C     0.22875   0.55913   0.48112   0.00000  Uiso   1.00
C193   C     0.21158   0.64509   0.23345   0.00000  Uiso   1.00
C194   C     0.12176   0.35491   0.26655   0.00000  Uiso   1.00
C195   C     0.21167   0.35451   0.23399   0.00000  Uiso   1.00
C196   C     0.12166   0.64549   0.26601   0.00000  Uiso   1.00
C197   C     0.16678   0.37587   0.25048   0.00000  Uiso   1.00
C198   C     0.16656   0.62413   0.24952   0.00000  Uiso   1.00
C199   C     0.29984   0.47023   0.27508   0.00000  Uiso   1.00
C200   C     0.03349   0.52977   0.22492   0.00000  Uiso   1.00
C201   C     0.01449   0.46999   0.27407   0.00000  Uiso   1.00
C202   C     0.31885   0.53001   0.22593   0.00000  Uiso   1.00
C203   C     0.13525   0.49842   0.33855   0.00000  Uiso   1.00
C204   C     0.19808   0.50158   0.16145   0.00000  Uiso   1.00
C205   C     0.11461   0.49281   0.39048   0.00000  Uiso   1.00
C206   C     0.21872   0.50719   0.10952   0.00000  Uiso   1.00
C207   C     0.06436   0.45542   0.46363   0.00000  Uiso   1.00
C208   C     0.26897   0.54458   0.03637   0.00000  Uiso   1.00
C209   C     0.07306   0.46789   0.41680   0.00000  Uiso   1.00
C210   C     0.26028   0.53211   0.08320   0.00000  Uiso   1.00
C211   C     0.14223   0.50916   0.41310   0.00000  Uiso   1.00
C212   C     0.19110   0.49084   0.08690   0.00000  Uiso   1.00
C213   C     0.13551   0.49577   0.45866   0.00000  Uiso   1.00
C214   C     0.19783   0.50423   0.04134   0.00000  Uiso   1.00
C215   C     0.10018   0.46414   0.48146   0.00000  Uiso   1.00
C216   C     0.23315   0.53586   0.01854   0.00000  Uiso   1.00
C217   C     0.16649   0.51046   0.47980   0.00000  Uiso   1.00
C218   C     0.16685   0.48954   0.02021   0.00000  Uiso   1.00
N219   N     0.04759   0.50001   0.25001   0.00000  Uiso   1.00
N220   N     0.28574   0.49999   0.24999   0.00000  Uiso   1.00
O221   O     0.12846   0.56108   0.25001   0.00000  Uiso   1.00
O222   O     0.20488   0.43892   0.25000   0.00000  Uiso   1.00
O223   O     0.20490   0.56107   0.25000   0.00000  Uiso   1.00
O224   O     0.12843   0.43893   0.25000   0.00000  Uiso   1.00
O225   O     0.10661   0.50001   0.31613   0.00000  Uiso   1.00
O226   O     0.22672   0.49999   0.18388   0.00000  Uiso   1.00
O227   O     0.18305   0.50000   0.31612   0.00000  Uiso   1.00
O228   O     0.15028   0.50000   0.18388   0.00000  Uiso   1.00
Zn229  Zn    0.11562   0.50001   0.25000   0.00000  Uiso   1.00
Zn230  Zn    0.21771   0.49999   0.25000   0.00000  Uiso   1.00
I231   I     0.07783   0.37888   0.03984   0.00000  Uiso   1.00
I232   I     0.25551   0.62112   0.46016   0.00000  Uiso   1.00
H233   H     0.16049   0.47099   0.10775   0.00000  Uiso   1.00
H234   H     0.17284   0.52901   0.39225   0.00000  Uiso   1.00
I235   I     0.30783   0.55484   0.11353   0.00000  Uiso   1.00
I236   I     0.02550   0.44516   0.38647   0.00000  Uiso   1.00
I237   I     0.32525   0.43455   0.01008   0.00000  Uiso   1.00
I238   I     0.00808   0.56545   0.48992   0.00000  Uiso   1.00
H239   H     0.14227   0.43292   0.06334   0.00000  Uiso   1.00
H240   H     0.19107   0.56708   0.43666   0.00000  Uiso   1.00
H241   H     0.24650   0.62852   0.22021   0.00000  Uiso   1.00
H242   H     0.08684   0.37148   0.27979   0.00000  Uiso   1.00
H243   H     0.24660   0.37077   0.22106   0.00000  Uiso   1.00
H244   H     0.08673   0.62923   0.27894   0.00000  Uiso   1.00
I245   I     0.25183   0.42423   0.32010   0.00000  Uiso   1.00
I246   I     0.08150   0.57577   0.17990   0.00000  Uiso   1.00
H247   H     0.02527   0.44552   0.29242   0.00000  Uiso   1.00
H248   H     0.30806   0.55448   0.20758   0.00000  Uiso   1.00
C249   C     0.49994   0.57996   0.24976   0.00000  Uiso   1.00
C250   C     0.50006   0.42004   0.25024   0.00000  Uiso   1.00
C251   C     0.47106   0.45348   0.03727   0.00000  Uiso   1.00
C252   C     0.52894   0.54652   0.46273   0.00000  Uiso   1.00
C253   C     0.43792   0.44087   0.01888   0.00000  Uiso   1.00
C254   C     0.56208   0.55913   0.48112   0.00000  Uiso   1.00
C255   C     0.54491   0.64509   0.23345   0.00000  Uiso   1.00
C256   C     0.45509   0.35491   0.26655   0.00000  Uiso   1.00
C257   C     0.54501   0.35451   0.23399   0.00000  Uiso   1.00
C258   C     0.45499   0.64549   0.26601   0.00000  Uiso   1.00
C259   C     0.50011   0.37587   0.25048   0.00000  Uiso   1.00
C260   C     0.49989   0.62413   0.24952   0.00000  Uiso   1.00
C261   C     0.63318   0.47023   0.27508   0.00000  Uiso   1.00
C262   C     0.36682   0.52977   0.22492   0.00000  Uiso   1.00
C263   C     0.34782   0.46999   0.27407   0.00000  Uiso   1.00
C264   C     0.65218   0.53001   0.22593   0.00000  Uiso   1.00
C265   C     0.46858   0.49842   0.33855   0.00000  Uiso   1.00
C266   C     0.53142   0.50158   0.16145   0.00000  Uiso   1.00
C267   C     0.44795   0.49281   0.39048   0.00000  Uiso   1.00
C268   C     0.55205   0.50719   0.10952   0.00000  Uiso   1.00
C269   C     0.39770   0.45542   0.46363   0.00000  Uiso   1.00
C270   C     0.60230   0.54458   0.03637   0.00000  Uiso   1.00
C271   C     0.40639   0.46789   0.41680   0.00000  Uiso   1.00
C272   C     0.59361   0.53211   0.08320   0.00000  Uiso   1.00
C273   C     0.47557   0.50916   0.41310   0.00000  Uiso   1.00
C274   C     0.52443   0.49084   0.08690   0.00000  Uiso   1.00
C275   C     0.46884   0.49577   0.45866   0.00000  Uiso   1.00
C276   C     0.53116   0.50423   0.04134   0.00000  Uiso   1.00
C277   C     0.43352   0.46414   0.48146   0.00000  Uiso   1.00
C278   C     0.56648   0.53586   0.01854   0.00000  Uiso   1.00
C279   C     0.49982   0.51046   0.47980   0.00000  Uiso   1.00
C280   C     0.50018   0.48954   0.02021   0.00000  Uiso   1.00
N281   N     0.38093   0.50001   0.25001   0.00000  Uiso   1.00
N282   N     0.61907   0.49999   0.24999   0.00000  Uiso   1.00
O283   O     0.46179   0.56108   0.25001   0.00000  Uiso   1.00
O284   O     0.53821   0.43892   0.25000   0.00000  Uiso   1.00
O285   O     0.53823   0.56107   0.25000   0.00000  Uiso   1.00
O286   O     0.46177   0.43893   0.25000   0.00000  Uiso   1.00
O287   O     0.43994   0.50001   0.31613   0.00000  Uiso   1.00
O288   O     0.56006   0.49999   0.18388   0.00000  Uiso   1.00
O289   O     0.51639   0.50000   0.31612   0.00000  Uiso   1.00
O290   O     0.48361   0.50000   0.18388   0.00000  Uiso   1.00
Zn291  Zn    0.44896   0.50001   0.25000   0.00000  Uiso   1.00
Zn292  Zn    0.55104   0.49999   0.25000   0.00000  Uiso   1.00
I293   I     0.41116   0.37888   0.03984   0.00000  Uiso   1.00
I294   I     0.58884   0.62112   0.46016   0.00000  Uiso   1.00
H295   H     0.49383   0.47099   0.10775   0.00000  Uiso   1.00
H296   H     0.50617   0.52901   0.39225   0.00000  Uiso   1.00
I297   I     0.64116   0.55484   0.11353   0.00000  Uiso   1.00
I298   I     0.35884   0.44516   0.38647   0.00000  Uiso   1.00
I299   I     0.65858   0.43455   0.01008   0.00000  Uiso   1.00
I300   I     0.34142   0.56545   0.48992   0.00000  Uiso   1.00
H301   H     0.47560   0.43292   0.06334   0.00000  Uiso   1.00
H302   H     0.52440   0.56708   0.43666   0.00000  Uiso   1.00
H303   H     0.57983   0.62852   0.22021   0.00000  Uiso   1.00
H304   H     0.42017   0.37148   0.27979   0.00000  Uiso   1.00
H305   H     0.57993   0.37077   0.22106   0.00000  Uiso   1.00
H306   H     0.42007   0.62923   0.27894   0.00000  Uiso   1.00
I307   I     0.58517   0.42423   0.32010   0.00000  Uiso   1.00
I308   I     0.41483   0.57577   0.17990   0.00000  Uiso   1.00
H309   H     0.35860   0.44552   0.29242   0.00000  Uiso   1.00
H310   H     0.64140   0.55448   0.20758   0.00000  Uiso   1.00
C311   C     0.83327   0.57996   0.24976   0.00000  Uiso   1.00
C312   C     0.83340   0.42004   0.25024   0.00000  Uiso   1.00
C313   C     0.80440   0.45348   0.03727   0.00000  Uiso   1.00
C314   C     0.86227   0.54652   0.46273   0.00000  Uiso   1.00
C315   C     0.77125   0.44087   0.01888   0.00000  Uiso   1.00
C316   C     0.89541   0.55913   0.48112   0.00000  Uiso   1.00
C317   C     0.87824   0.64509   0.23345   0.00000  Uiso   1.00
C318   C     0.78842   0.35491   0.26655   0.00000  Uiso   1.00
C319   C     0.87834   0.35451   0.23399   0.00000  Uiso   1.00
C320   C     0.78833   0.64549   0.26601   0.00000  Uiso   1.00
C321   C     0.83344   0.37587   0.25048   0.00000  Uiso   1.00
C322   C     0.83322   0.62413   0.24952   0.00000  Uiso   1.00
C323   C     0.96651   0.47023   0.27508   0.00000  Uiso   1.00
C324   C     0.70016   0.52977   0.22492   0.00000  Uiso   1.00
C325   C     0.68115   0.46999   0.27407   0.00000  Uiso   1.00
C326   C     0.98551   0.53001   0.22593   0.00000  Uiso   1.00
C327   C     0.80192   0.49842   0.33855   0.00000  Uiso   1.00
C328   C     0.86475   0.50158   0.16145   0.00000  Uiso   1.00
C329   C     0.78128   0.49281   0.39048   0.00000  Uiso   1.00
C330   C     0.88539   0.50719   0.10952   0.00000  Uiso   1.00
C331   C     0.73103   0.45542   0.46363   0.00000  Uiso   1.00
C332   C     0.93564   0.54458   0.03637   0.00000  Uiso   1.00
C333   C     0.73972   0.46789   0.41680   0.00000  Uiso   1.00
C334   C     0.92694   0.53211   0.08320   0.00000  Uiso   1.00
C335   C     0.80890   0.50916   0.41310   0.00000  Uiso   1.00
C336   C     0.85777   0.49084   0.08690   0.00000  Uiso   1.00
C337   C     0.80217   0.49577   0.45866   0.00000  Uiso   1.00
C338   C     0.86450   0.50423   0.04134   0.00000  Uiso   1.00
C339   C     0.76685   0.46414   0.48146   0.00000  Uiso   1.00
C340   C     0.89982   0.53586   0.01854   0.00000  Uiso   1.00
C341   C     0.83315   0.51046   0.47980   0.00000  Uiso   1.00
C342   C     0.83352   0.48954   0.02021   0.00000  Uiso   1.00
N343   N     0.71426   0.50001   0.25001   0.00000  Uiso   1.00
N344   N     0.95241   0.49999   0.24999   0.00000  Uiso   1.00
O345   O     0.79512   0.56108   0.25001   0.00000  Uiso   1.00
O346   O     0.87154   0.43892   0.25000   0.00000  Uiso   1.00
O347   O     0.87157   0.56107   0.25000   0.00000  Uiso   1.00
O348   O     0.79510   0.43893   0.25000   0.00000  Uiso   1.00
O349   O     0.77328   0.50001   0.31613   0.00000  Uiso   1.00
O350   O     0.89339   0.49999   0.18388   0.00000  Uiso   1.00
O351   O     0.84972   0.50000   0.31612   0.00000  Uiso   1.00
O352   O     0.81695   0.50000   0.18388   0.00000  Uiso   1.00
Zn353  Zn    0.78229   0.50001   0.25000   0.00000  Uiso   1.00
Zn354  Zn    0.88438   0.49999   0.25000   0.00000  Uiso   1.00
I355   I     0.74450   0.37888   0.03984   0.00000  Uiso   1.00
I356   I     0.92217   0.62112   0.46016   0.00000  Uiso   1.00
H357   H     0.82716   0.47099   0.10775   0.00000  Uiso   1.00
H358   H     0.83951   0.52901   0.39225   0.00000  Uiso   1.00
I359   I     0.97450   0.55484   0.11353   0.00000  Uiso   1.00
I360   I     0.69217   0.44516   0.38647   0.00000  Uiso   1.00
I361   I     0.99192   0.43455   0.01008   0.00000  Uiso   1.00
I362   I     0.67475   0.56545   0.48992   0.00000  Uiso   1.00
H363   H     0.80893   0.43292   0.06334   0.00000  Uiso   1.00
H364   H     0.85773   0.56708   0.43666   0.00000  Uiso   1.00
H365   H     0.91316   0.62852   0.22021   0.00000  Uiso   1.00
H366   H     0.75350   0.37148   0.27979   0.00000  Uiso   1.00
H367   H     0.91327   0.37077   0.22106   0.00000  Uiso   1.00
H368   H     0.75340   0.62923   0.27894   0.00000  Uiso   1.00
I369   I     0.91850   0.42423   0.32010   0.00000  Uiso   1.00
I370   I     0.74817   0.57577   0.17990   0.00000  Uiso   1.00
H371   H     0.69194   0.44552   0.29242   0.00000  Uiso   1.00
H372   H     0.97473   0.55448   0.20758   0.00000  Uiso   1.00
C373   C     0.16660   0.91329   0.24976   0.00000  Uiso   1.00
C374   C     0.16673   0.75338   0.25024   0.00000  Uiso   1.00
C375   C     0.13773   0.78681   0.03727   0.00000  Uiso   1.00
C376   C     0.19560   0.87985   0.46273   0.00000  Uiso   1.00
C377   C     0.10459   0.77420   0.01888   0.00000  Uiso   1.00
C378   C     0.22875   0.89246   0.48112   0.00000  Uiso   1.00
C379   C     0.21158   0.97842   0.23345   0.00000  Uiso   1.00
C380   C     0.12176   0.68825   0.26655   0.00000  Uiso   1.00
C381   C     0.21167   0.68785   0.23399   0.00000  Uiso   1.00
C382   C     0.12166   0.97882   0.26601   0.00000  Uiso   1.00
C383   C     0.16678   0.70920   0.25048   0.00000  Uiso   1.00
C384   C     0.16656   0.95747   0.24952   0.00000  Uiso   1.00
C385   C     0.29984   0.80356   0.27508   0.00000  Uiso   1.00
C386   C     0.03349   0.86310   0.22492   0.00000  Uiso   1.00
C387   C     0.01449   0.80332   0.27407   0.00000  Uiso   1.00
C388   C     0.31885   0.86334   0.22593   0.00000  Uiso   1.00
C389   C     0.13525   0.83176   0.33855   0.00000  Uiso   1.00
C390   C     0.19808   0.83491   0.16145   0.00000  Uiso   1.00
C391   C     0.11461   0.82614   0.39048   0.00000  Uiso   1.00
C392   C     0.21872   0.84053   0.10952   0.00000  Uiso   1.00
C393   C     0.06436   0.78875   0.46363   0.00000  Uiso   1.00
C394   C     0.26897   0.87791   0.03637   0.00000  Uiso   1.00
C395   C     0.07306   0.80123   0.41680   0.00000  Uiso   1.00
C396   C     0.26028   0.86544   0.08320   0.00000  Uiso   1.00
C397   C     0.14223   0.84249   0.41310   0.00000  Uiso   1.00
C398   C     0.19110   0.82418   0.08690   0.00000  Uiso   1.00
C399   C     0.13551   0.82911   0.45866   0.00000  Uiso   1.00
C400   C     0.19783   0.83756   0.04134   0.00000  Uiso   1.00
C401   C     0.10018   0.79747   0.48146   0.00000  Uiso   1.00
C402   C     0.23315   0.86920   0.01854   0.00000  Uiso   1.00
C403   C     0.16649   0.84379   0.47980   0.00000  Uiso   1.00
C404   C     0.16685   0.82287   0.02021   0.00000  Uiso   1.00
N405   N     0.04759   0.83334   0.25001   0.00000  Uiso   1.00
N406   N     0.28574   0.83332   0.24999   0.00000  Uiso   1.00
O407   O     0.12846   0.89442   0.25001   0.00000  Uiso   1.00
O408   O     0.20488   0.77225   0.25000   0.00000  Uiso   1.00
O409   O     0.20490   0.89441   0.25000   0.00000  Uiso   1.00
O410   O     0.12843   0.77226   0.25000   0.00000  Uiso   1.00
O411   O     0.10661   0.83334   0.31613   0.00000  Uiso   1.00
O412   O     0.22672   0.83333   0.18388   0.00000  Uiso   1.00
O413   O     0.18305   0.83333   0.31612   0.00000  Uiso   1.00
O414   O     0.15028   0.83334   0.18388   0.00000  Uiso   1.00
Zn415  Zn    0.11562   0.83334   0.25000   0.00000  Uiso   1.00
Zn416  Zn    0.21771   0.83333   0.25000   0.00000  Uiso   1.00
I417   I     0.07783   0.71221   0.03984   0.00000  Uiso   1.00
I418   I     0.25551   0.95445   0.46016   0.00000  Uiso   1.00
H419   H     0.16049   0.80433   0.10775   0.00000  Uiso   1.00
H420   H     0.17284   0.86234   0.39225   0.00000  Uiso   1.00
I421   I     0.30783   0.88818   0.11353   0.00000  Uiso   1.00
I422   I     0.02550   0.77849   0.38647   0.00000  Uiso   1.00
I423   I     0.32525   0.76788   0.01008   0.00000  Uiso   1.00
I424   I     0.00808   0.89878   0.48992   0.00000  Uiso   1.00
H425   H     0.14227   0.76625   0.06334   0.00000  Uiso   1.00
H426   H     0.19107   0.90041   0.43666   0.00000  Uiso   1.00
H427   H     0.24650   0.96186   0.22021   0.00000  Uiso   1.00
H428   H     0.08684   0.70481   0.27979   0.00000  Uiso   1.00
H429   H     0.24660   0.70411   0.22106   0.00000  Uiso   1.00
H430   H     0.08673   0.96256   0.27894   0.00000  Uiso   1.00
I431   I     0.25183   0.75756   0.32010   0.00000  Uiso   1.00
I432   I     0.08150   0.90911   0.17990   0.00000  Uiso   1.00
H433   H     0.02527   0.77886   0.29242   0.00000  Uiso   1.00
H434   H     0.30806   0.88781   0.20758   0.00000  Uiso   1.00
C435   C     0.49994   0.91329   0.24976   0.00000  Uiso   1.00
C436   C     0.50006   0.75338   0.25024   0.00000  Uiso   1.00
C437   C     0.47106   0.78681   0.03727   0.00000  Uiso   1.00
C438   C     0.52894   0.87985   0.46273   0.00000  Uiso   1.00
C439   C     0.43792   0.77420   0.01888   0.00000  Uiso   1.00
C440   C     0.56208   0.89246   0.48112   0.00000  Uiso   1.00
C441   C     0.54491   0.97842   0.23345   0.00000  Uiso   1.00
C442   C     0.45509   0.68825   0.26655   0.00000  Uiso   1.00
C443   C     0.54501   0.68785   0.23399   0.00000  Uiso   1.00
C444   C     0.45499   0.97882   0.26601   0.00000  Uiso   1.00
C445   C     0.50011   0.70920   0.25048   0.00000  Uiso   1.00
C446   C     0.49989   0.95747   0.24952   0.00000  Uiso   1.00
C447   C     0.63318   0.80356   0.27508   0.00000  Uiso   1.00
C448   C     0.36682   0.86310   0.22492   0.00000  Uiso   1.00
C449   C     0.34782   0.80332   0.27407   0.00000  Uiso   1.00
C450   C     0.65218   0.86334   0.22593   0.00000  Uiso   1.00
C451   C     0.46858   0.83176   0.33855   0.00000  Uiso   1.00
C452   C     0.53142   0.83491   0.16145   0.00000  Uiso   1.00
C453   C     0.44795   0.82614   0.39048   0.00000  Uiso   1.00
C454   C     0.55205   0.84053   0.10952   0.00000  Uiso   1.00
C455   C     0.39770   0.78875   0.46363   0.00000  Uiso   1.00
C456   C     0.60230   0.87791   0.03637   0.00000  Uiso   1.00
C457   C     0.40639   0.80123   0.41680   0.00000  Uiso   1.00
C458   C     0.59361   0.86544   0.08320   0.00000  Uiso   1.00
C459   C     0.47557   0.84249   0.41310   0.00000  Uiso   1.00
C460   C     0.52443   0.82418   0.08690   0.00000  Uiso   1.00
C461   C     0.46884   0.82911   0.45866   0.00000  Uiso   1.00
C462   C     0.53116   0.83756   0.04134   0.00000  Uiso   1.00
C463   C     0.43352   0.79747   0.48146   0.00000  Uiso   1.00
C464   C     0.56648   0.86920   0.01854   0.00000  Uiso   1.00
C465   C     0.49982   0.84379   0.47980   0.00000  Uiso   1.00
C466   C     0.50018   0.82287   0.02021   0.00000  Uiso   1.00
N467   N     0.38093   0.83334   0.25001   0.00000  Uiso   1.00
N468   N     0.61907   0.83332   0.24999   0.00000  Uiso   1.00
O469   O     0.46179   0.89442   0.25001   0.00000  Uiso   1.00
O470   O     0.53821   0.77225   0.25000   0.00000  Uiso   1.00
O471   O     0.53823   0.89441   0.25000   0.00000  Uiso   1.00
O472   O     0.46177   0.77226   0.25000   0.00000  Uiso   1.00
O473   O     0.43994   0.83334   0.31613   0.00000  Uiso   1.00
O474   O     0.56006   0.83333   0.18388   0.00000  Uiso   1.00
O475   O     0.51639   0.83333   0.31612   0.00000  Uiso   1.00
O476   O     0.48361   0.83334   0.18388   0.00000  Uiso   1.00
Zn477  Zn    0.44896   0.83334   0.25000   0.00000  Uiso   1.00
Zn478  Zn    0.55104   0.83333   0.25000   0.00000  Uiso   1.00
I479   I     0.41116   0.71221   0.03984   0.00000  Uiso   1.00
I480   I     0.58884   0.95445   0.46016   0.00000  Uiso   1.00
H481   H     0.49383   0.80433   0.10775   0.00000  Uiso   1.00
H482   H     0.50617   0.86234   0.39225   0.00000  Uiso   1.00
I483   I     0.64116   0.88818   0.11353   0.00000  Uiso   1.00
I484   I     0.35884   0.77849   0.38647   0.00000  Uiso   1.00
I485   I     0.65858   0.76788   0.01008   0.00000  Uiso   1.00
I486   I     0.34142   0.89878   0.48992   0.00000  Uiso   1.00
H487   H     0.47560   0.76625   0.06334   0.00000  Uiso   1.00
H488   H     0.52440   0.90041   0.43666   0.00000  Uiso   1.00
H489   H     0.57983   0.96186   0.22021   0.00000  Uiso   1.00
H490   H     0.42017   0.70481   0.27979   0.00000  Uiso   1.00
H491   H     0.57993   0.70411   0.22106   0.00000  Uiso   1.00
H492   H     0.42007   0.96256   0.27894   0.00000  Uiso   1.00
I493   I     0.58517   0.75756   0.32010   0.00000  Uiso   1.00
I494   I     0.41483   0.90911   0.17990   0.00000  Uiso   1.00
H495   H     0.35860   0.77886   0.29242   0.00000  Uiso   1.00
H496   H     0.64140   0.88781   0.20758   0.00000  Uiso   1.00
C497   C     0.83327   0.91329   0.24976   0.00000  Uiso   1.00
C498   C     0.83340   0.75338   0.25024   0.00000  Uiso   1.00
C499   C     0.80440   0.78681   0.03727   0.00000  Uiso   1.00
C500   C     0.86227   0.87985   0.46273   0.00000  Uiso   1.00
C501   C     0.77125   0.77420   0.01888   0.00000  Uiso   1.00
C502   C     0.89541   0.89246   0.48112   0.00000  Uiso   1.00
C503   C     0.87824   0.97842   0.23345   0.00000  Uiso   1.00
C504   C     0.78842   0.68825   0.26655   0.00000  Uiso   1.00
C505   C     0.87834   0.68785   0.23399   0.00000  Uiso   1.00
C506   C     0.78833   0.97882   0.26601   0.00000  Uiso   1.00
C507   C     0.83344   0.70920   0.25048   0.00000  Uiso   1.00
C508   C     0.83322   0.95747   0.24952   0.00000  Uiso   1.00
C509   C     0.96651   0.80356   0.27508   0.00000  Uiso   1.00
C510   C     0.70016   0.86310   0.22492   0.00000  Uiso   1.00
C511   C     0.68115   0.80332   0.27407   0.00000  Uiso   1.00
C512   C     0.98551   0.86334   0.22593   0.00000  Uiso   1.00
C513   C     0.80192   0.83176   0.33855   0.00000  Uiso   1.00
C514   C     0.86475   0.83491   0.16145   0.00000  Uiso   1.00
C515   C     0.78128   0.82614   0.39048   0.00000  Uiso   1.00
C516   C     0.88539   0.84053   0.10952   0.00000  Uiso   1.00
C517   C     0.73103   0.78875   0.46363   0.00000  Uiso   1.00
C518   C     0.93564   0.87791   0.03637   0.00000  Uiso   1.00
C519   C     0.73972   0.80123   0.41680   0.00000  Uiso   1.00
C520   C     0.92694   0.86544   0.08320   0.00000  Uiso   1.00
C521   C     0.80890   0.84249   0.41310   0.00000  Uiso   1.00
C522   C     0.85777   0.82418   0.08690   0.00000  Uiso   1.00
C523   C     0.80217   0.82911   0.45866   0.00000  Uiso   1.00
C524   C     0.86450   0.83756   0.04134   0.00000  Uiso   1.00
C525   C     0.76685   0.79747   0.48146   0.00000  Uiso   1.00
C526   C     0.89982   0.86920   0.01854   0.00000  Uiso   1.00
C527   C     0.83315   0.84379   0.47980   0.00000  Uiso   1.00
C528   C     0.83352   0.82287   0.02021   0.00000  Uiso   1.00
N529   N     0.71426   0.83334   0.25001   0.00000  Uiso   1.00
N530   N     0.95241   0.83332   0.24999   0.00000  Uiso   1.00
O531   O     0.79512   0.89442   0.25001   0.00000  Uiso   1.00
O532   O     0.87154   0.77225   0.25000   0.00000  Uiso   1.00
O533   O     0.87157   0.89441   0.25000   0.00000  Uiso   1.00
O534   O     0.79510   0.77226   0.25000   0.00000  Uiso   1.00
O535   O     0.77328   0.83334   0.31613   0.00000  Uiso   1.00
O536   O     0.89339   0.83333   0.18388   0.00000  Uiso   1.00
O537   O     0.84972   0.83333   0.31612   0.00000  Uiso   1.00
O538   O     0.81695   0.83334   0.18388   0.00000  Uiso   1.00
Zn539  Zn    0.78229   0.83334   0.25000   0.00000  Uiso   1.00
Zn540  Zn    0.88438   0.83333   0.25000   0.00000  Uiso   1.00
I541   I     0.74450   0.71221   0.03984   0.00000  Uiso   1.00
I542   I     0.92217   0.95445   0.46016   0.00000  Uiso   1.00
H543   H     0.82716   0.80433   0.10775   0.00000  Uiso   1.00
H544   H     0.83951   0.86234   0.39225   0.00000  Uiso   1.00
I545   I     0.97450   0.88818   0.11353   0.00000  Uiso   1.00
I546   I     0.69217   0.77849   0.38647   0.00000  Uiso   1.00
I547   I     0.99192   0.76788   0.01008   0.00000  Uiso   1.00
I548   I     0.67475   0.89878   0.48992   0.00000  Uiso   1.00
H549   H     0.80893   0.76625   0.06334   0.00000  Uiso   1.00
H550   H     0.85773   0.90041   0.43666   0.00000  Uiso   1.00
H551   H     0.91316   0.96186   0.22021   0.00000  Uiso   1.00
H552   H     0.75350   0.70481   0.27979   0.00000  Uiso   1.00
H553   H     0.91327   0.70411   0.22106   0.00000  Uiso   1.00
H554   H     0.75340   0.96256   0.27894   0.00000  Uiso   1.00
I555   I     0.91850   0.75756   0.32010   0.00000  Uiso   1.00
I556   I     0.74817   0.90911   0.17990   0.00000  Uiso   1.00
H557   H     0.69194   0.77886   0.29242   0.00000  Uiso   1.00
H558   H     0.97473   0.88781   0.20758   0.00000  Uiso   1.00
C559   C     0.16660   0.24662   0.74976   0.00000  Uiso   1.00
C560   C     0.16673   0.08671   0.75024   0.00000  Uiso   1.00
C561   C     0.13773   0.12015   0.53727   0.00000  Uiso   1.00
C562   C     0.19560   0.21319   0.96273   0.00000  Uiso   1.00
C563   C     0.10459   0.10754   0.51888   0.00000  Uiso   1.00
C564   C     0.22875   0.22580   0.98112   0.00000  Uiso   1.00
C565   C     0.21158   0.31176   0.73345   0.00000  Uiso   1.00
C566   C     0.12176   0.02158   0.76655   0.00000  Uiso   1.00
C567   C     0.21167   0.02118   0.73399   0.00000  Uiso   1.00
C568   C     0.12166   0.31215   0.76601   0.00000  Uiso   1.00
C569   C     0.16678   0.04253   0.75048   0.00000  Uiso   1.00
C570   C     0.16656   0.29080   0.74952   0.00000  Uiso   1.00
C571   C     0.29984   0.13690   0.77508   0.00000  Uiso   1.00
C572   C     0.03349   0.19644   0.72492   0.00000  Uiso   1.00
C573   C     0.01449   0.13665   0.77407   0.00000  Uiso   1.00
C574   C     0.31885   0.19668   0.72593   0.00000  Uiso   1.00
C575   C     0.13525   0.16509   0.83855   0.00000  Uiso   1.00
C576   C     0.19808   0.16824   0.66145   0.00000  Uiso   1.00
C577   C     0.11461   0.15948   0.89048   0.00000  Uiso   1.00
C578   C     0.21872   0.17386   0.60952   0.00000  Uiso   1.00
C579   C     0.06436   0.12209   0.96363   0.00000  Uiso   1.00
C580   C     0.26897   0.21125   0.53637   0.00000  Uiso   1.00
C581   C     0.07306   0.13456   0.91680   0.00000  Uiso   1.00
C582   C     0.26028   0.19877   0.58320   0.00000  Uiso   1.00
C583   C     0.14223   0.17582   0.91310   0.00000  Uiso   1.00
C584   C     0.19110   0.15751   0.58690   0.00000  Uiso   1.00
C585   C     0.13551   0.16244   0.95866   0.00000  Uiso   1.00
C586   C     0.19783   0.17089   0.54134   0.00000  Uiso   1.00
C587   C     0.10018   0.13080   0.98146   0.00000  Uiso   1.00
C588   C     0.23315   0.20253   0.51854   0.00000  Uiso   1.00
C589   C     0.16649   0.17713   0.97980   0.00000  Uiso   1.00
C590   C     0.16685   0.15621   0.52021   0.00000  Uiso   1.00
N591   N     0.04759   0.16668   0.75001   0.00000  Uiso   1.00
N592   N     0.28574   0.16666   0.74999   0.00000  Uiso   1.00
O593   O     0.12846   0.22775   0.75001   0.00000  Uiso   1.00
O594   O     0.20488   0.10558   0.75000   0.00000  Uiso   1.00
O595   O     0.20490   0.22774   0.75000   0.00000  Uiso   1.00
O596   O     0.12843   0.10559   0.75000   0.00000  Uiso   1.00
O597   O     0.10661   0.16667   0.81613   0.00000  Uiso   1.00
O598   O     0.22672   0.16666   0.68388   0.00000  Uiso   1.00
O599   O     0.18305   0.16666   0.81612   0.00000  Uiso   1.00
O600   O     0.15028   0.16667   0.68388   0.00000  Uiso   1.00
Zn601  Zn    0.11562   0.16667   0.75000   0.00000  Uiso   1.00
Zn602  Zn    0.21771   0.16666   0.75000   0.00000  Uiso   1.00
I603   I     0.07783   0.04555   0.53984   0.00000  Uiso   1.00
I604   I     0.25551   0.28779   0.96016   0.00000  Uiso   1.00
H605   H     0.16049   0.13766   0.60775   0.00000  Uiso   1.00
H606   H     0.17284   0.19567   0.89225   0.00000  Uiso   1.00
I607   I     0.30783   0.22151   0.61353   0.00000  Uiso   1.00
I608   I     0.02550   0.11182   0.88647   0.00000  Uiso   1.00
I609   I     0.32525   0.10122   0.51008   0.00000  Uiso   1.00
I610   I     0.00808   0.23212   0.98992   0.00000  Uiso   1.00
H611   H     0.14227   0.09959   0.56334   0.00000  Uiso   1.00
H612   H     0.19107   0.23375   0.93666   0.00000  Uiso   1.00
H613   H     0.24650   0.29519   0.72021   0.00000  Uiso   1.00
H614   H     0.08684   0.03814   0.77979   0.00000  Uiso   1.00
H615   H     0.24660   0.03744   0.72106   0.00000  Uiso   1.00
H616   H     0.08673   0.29589   0.77894   0.00000  Uiso   1.00
I617   I     0.25183   0.09089   0.82010   0.00000  Uiso   1.00
I618   I     0.08150   0.24244   0.67990   0.00000  Uiso   1.00
H619   H     0.02527   0.11219   0.79242   0.00000  Uiso   1.00
H620   H     0.30806   0.22114   0.70758   0.00000  Uiso   1.00
C621   C     0.49994   0.24662   0.74976   0.00000  Uiso   1.00
C622   C     0.50006   0.08671   0.75024   0.00000  Uiso   1.00
C623   C     0.47106   0.12015   0.53727   0.00000  Uiso   1.00
C624   C     0.52894   0.21319   0.96273   0.00000  Uiso   1.00
C625   C     0.43792   0.10754   0.51888   0.00000  Uiso   1.00
C626   C     0.56208   0.22580   0.98112   0.00000  Uiso   1.00
C627   C     0.54491   0.31176   0.73345   0.00000  Uiso   1.00
C628   C     0.45509   0.02158   0.76655   0.00000  Uiso   1.00
C629   C     0.54501   0.02118   0.73399   0.00000  Uiso   1.00
C630   C     0.45499   0.31215   0.76601   0.00000  Uiso   1.00
C631   C     0.50011   0.04253   0.75048   0.00000  Uiso   1.00
C632   C     0.49989   0.29080   0.74952   0.00000  Uiso   1.00
C633   C     0.63318   0.13690   0.77508   0.00000  Uiso   1.00
C634   C     0.36682   0.19644   0.72492   0.00000  Uiso   1.00
C635   C     0.34782   0.13665   0.77407   0.00000  Uiso   1.00
C636   C     0.65218   0.19668   0.72593   0.00000  Uiso   1.00
C637   C     0.46858   0.16509   0.83855   0.00000  Uiso   1.00
C638   C     0.53142   0.16824   0.66145   0.00000  Uiso   1.00
C639   C     0.44795   0.15948   0.89048   0.00000  Uiso   1.00
C640   C     0.55205   0.17386   0.60952   0.00000  Uiso   1.00
C641   C     0.39770   0.12209   0.96363   0.00000  Uiso   1.00
C642   C     0.60230   0.21125   0.53637   0.00000  Uiso   1.00
C643   C     0.40639   0.13456   0.91680   0.00000  Uiso   1.00
C644   C     0.59361   0.19877   0.58320   0.00000  Uiso   1.00
C645   C     0.47557   0.17582   0.91310   0.00000  Uiso   1.00
C646   C     0.52443   0.15751   0.58690   0.00000  Uiso   1.00
C647   C     0.46884   0.16244   0.95866   0.00000  Uiso   1.00
C648   C     0.53116   0.17089   0.54134   0.00000  Uiso   1.00
C649   C     0.43352   0.13080   0.98146   0.00000  Uiso   1.00
C650   C     0.56648   0.20253   0.51854   0.00000  Uiso   1.00
C651   C     0.49982   0.17713   0.97980   0.00000  Uiso   1.00
C652   C     0.50018   0.15621   0.52021   0.00000  Uiso   1.00
N653   N     0.38093   0.16668   0.75001   0.00000  Uiso   1.00
N654   N     0.61907   0.16666   0.74999   0.00000  Uiso   1.00
O655   O     0.46179   0.22775   0.75001   0.00000  Uiso   1.00
O656   O     0.53821   0.10558   0.75000   0.00000  Uiso   1.00
O657   O     0.53823   0.22774   0.75000   0.00000  Uiso   1.00
O658   O     0.46177   0.10559   0.75000   0.00000  Uiso   1.00
O659   O     0.43994   0.16667   0.81613   0.00000  Uiso   1.00
O660   O     0.56006   0.16666   0.68388   0.00000  Uiso   1.00
O661   O     0.51639   0.16666   0.81612   0.00000  Uiso   1.00
O662   O     0.48361   0.16667   0.68388   0.00000  Uiso   1.00
Zn663  Zn    0.44896   0.16667   0.75000   0.00000  Uiso   1.00
Zn664  Zn    0.55104   0.16666   0.75000   0.00000  Uiso   1.00
I665   I     0.41116   0.04555   0.53984   0.00000  Uiso   1.00
I666   I     0.58884   0.28779   0.96016   0.00000  Uiso   1.00
H667   H     0.49383   0.13766   0.60775   0.00000  Uiso   1.00
H668   H     0.50617   0.19567   0.89225   0.00000  Uiso   1.00
I669   I     0.64116   0.22151   0.61353   0.00000  Uiso   1.00
I670   I     0.35884   0.11182   0.88647   0.00000  Uiso   1.00
I671   I     0.65858   0.10122   0.51008   0.00000  Uiso   1.00
I672   I     0.34142   0.23212   0.98992   0.00000  Uiso   1.00
H673   H     0.47560   0.09959   0.56334   0.00000  Uiso   1.00
H674   H     0.52440   0.23375   0.93666   0.00000  Uiso   1.00
H675   H     0.57983   0.29519   0.72021   0.00000  Uiso   1.00
H676   H     0.42017   0.03814   0.77979   0.00000  Uiso   1.00
H677   H     0.57993   0.03744   0.72106   0.00000  Uiso   1.00
H678   H     0.42007   0.29589   0.77894   0.00000  Uiso   1.00
I679   I     0.58517   0.09089   0.82010   0.00000  Uiso   1.00
I680   I     0.41483   0.24244   0.67990   0.00000  Uiso   1.00
H681   H     0.35860   0.11219   0.79242   0.00000  Uiso   1.00
H682   H     0.64140   0.22114   0.70758   0.00000  Uiso   1.00
C683   C     0.83327   0.24662   0.74976   0.00000  Uiso   1.00
C684   C     0.83340   0.08671   0.75024   0.00000  Uiso   1.00
C685   C     0.80440   0.12015   0.53727   0.00000  Uiso   1.00
C686   C     0.86227   0.21319   0.96273   0.00000  Uiso   1.00
C687   C     0.77125   0.10754   0.51888   0.00000  Uiso   1.00
C688   C     0.89541   0.22580   0.98112   0.00000  Uiso   1.00
C689   C     0.87824   0.31176   0.73345   0.00000  Uiso   1.00
C690   C     0.78842   0.02158   0.76655   0.00000  Uiso   1.00
C691   C     0.87834   0.02118   0.73399   0.00000  Uiso   1.00
C692   C     0.78833   0.31215   0.76601   0.00000  Uiso   1.00
C693   C     0.83344   0.04253   0.75048   0.00000  Uiso   1.00
C694   C     0.83322   0.29080   0.74952   0.00000  Uiso   1.00
C695   C     0.96651   0.13690   0.77508   0.00000  Uiso   1.00
C696   C     0.70016   0.19644   0.72492   0.00000  Uiso   1.00
C697   C     0.68115   0.13665   0.77407   0.00000  Uiso   1.00
C698   C     0.98551   0.19668   0.72593   0.00000  Uiso   1.00
C699   C     0.80192   0.16509   0.83855   0.00000  Uiso   1.00
C700   C     0.86475   0.16824   0.66145   0.00000  Uiso   1.00
C701   C     0.78128   0.15948   0.89048   0.00000  Uiso   1.00
C702   C     0.88539   0.17386   0.60952   0.00000  Uiso   1.00
C703   C     0.73103   0.12209   0.96363   0.00000  Uiso   1.00
C704   C     0.93564   0.21125   0.53637   0.00000  Uiso   1.00
C705   C     0.73972   0.13456   0.91680   0.00000  Uiso   1.00
C706   C     0.92694   0.19877   0.58320   0.00000  Uiso   1.00
C707   C     0.80890   0.17582   0.91310   0.00000  Uiso   1.00
C708   C     0.85777   0.15751   0.58690   0.00000  Uiso   1.00
C709   C     0.80217   0.16244   0.95866   0.00000  Uiso   1.00
C710   C     0.86450   0.17089   0.54134   0.00000  Uiso   1.00
C711   C     0.76685   0.13080   0.98146   0.00000  Uiso   1.00
C712   C     0.89982   0.20253   0.51854   0.00000  Uiso   1.00
C713   C     0.83315   0.17713   0.97980   0.00000  Uiso   1.00
C714   C     0.83352   0.15621   0.52021   0.00000  Uiso   1.00
N715   N     0.71426   0.16668   0.75001   0.00000  Uiso   1.00
N716   N     0.95241   0.16666   0.74999   0.00000  Uiso   1.00
O717   O     0.79512   0.22775   0.75001   0.00000  Uiso   1.00
O718   O     0.87154   0.10558   0.75000   0.00000  Uiso   1.00
O719   O     0.87157   0.22774   0.75000   0.00000  Uiso   1.00
O720   O     0.79510   0.10559   0.75000   0.00000  Uiso   1.00
O721   O     0.77328   0.16667   0.81613   0.00000  Uiso   1.00
O722   O     0.89339   0.16666   0.68388   0.00000  Uiso   1.00
O723   O     0.84972   0.16666   0.81612   0.00000  Uiso   1.00
O724   O     0.81695   0.16667   0.68388   0.00000  Uiso   1.00
Zn725  Zn    0.78229   0.16667   0.75000   0.00000  Uiso   1.00
Zn726  Zn    0.88438   0.16666   0.75000   0.00000  Uiso   1.00
I727   I     0.74450   0.04555   0.53984   0.00000  Uiso   1.00
I728   I     0.92217   0.28779   0.96016   0.00000  Uiso   1.00
H729   H     0.82716   0.13766   0.60775   0.00000  Uiso   1.00
H730   H     0.83951   0.19567   0.89225   0.00000  Uiso   1.00
I731   I     0.97450   0.22151   0.61353   0.00000  Uiso   1.00
I732   I     0.69217   0.11182   0.88647   0.00000  Uiso   1.00
I733   I     0.99192   0.10122   0.51008   0.00000  Uiso   1.00
I734   I     0.67475   0.23212   0.98992   0.00000  Uiso   1.00
H735   H     0.80893   0.09959   0.56334   0.00000  Uiso   1.00
H736   H     0.85773   0.23375   0.93666   0.00000  Uiso   1.00
H737   H     0.91316   0.29519   0.72021   0.00000  Uiso   1.00
H738   H     0.75350   0.03814   0.77979   0.00000  Uiso   1.00
H739   H     0.91327   0.03744   0.72106   0.00000  Uiso   1.00
H740   H     0.75340   0.29589   0.77894   0.00000  Uiso   1.00
I741   I     0.91850   0.09089   0.82010   0.00000  Uiso   1.00
I742   I     0.74817   0.24244   0.67990   0.00000  Uiso   1.00
H743   H     0.69194   0.11219   0.79242   0.00000  Uiso   1.00
H744   H     0.97473   0.22114   0.70758   0.00000  Uiso   1.00
C745   C     0.16660   0.57996   0.74976   0.00000  Uiso   1.00
C746   C     0.16673   0.42004   0.75024   0.00000  Uiso   1.00
C747   C     0.13773   0.45348   0.53727   0.00000  Uiso   1.00
C748   C     0.19560   0.54652   0.96273   0.00000  Uiso   1.00
C749   C     0.10459   0.44087   0.51888   0.00000  Uiso   1.00
C750   C     0.22875   0.55913   0.98112   0.00000  Uiso   1.00
C751   C     0.21158   0.64509   0.73345   0.00000  Uiso   1.00
C752   C     0.12176   0.35491   0.76655   0.00000  Uiso   1.00
C753   C     0.21167   0.35451   0.73399   0.00000  Uiso   1.00
C754   C     0.12166   0.64549   0.76601   0.00000  Uiso   1.00
C755   C     0.16678   0.37587   0.75048   0.00000  Uiso   1.00
C756   C     0.16656   0.62413   0.74952   0.00000  Uiso   1.00
C757   C     0.29984   0.47023   0.77508   0.00000  Uiso   1.00
C758   C     0.03349   0.52977   0.72492   0.00000  Uiso   1.00
C759   C     0.01449   0.46999   0.77407   0.00000  Uiso   1.00
C760   C     0.31885   0.53001   0.72593   0.00000  Uiso   1.00
C761   C     0.13525   0.49842   0.83855   0.00000  Uiso   1.00
C762   C     0.19808   0.50158   0.66145   0.00000  Uiso   1.00
C763   C     0.11461   0.49281   0.89048   0.00000  Uiso   1.00
C764   C     0.21872   0.50719   0.60952   0.00000  Uiso   1.00
C765   C     0.06436   0.45542   0.96363   0.00000  Uiso   1.00
C766   C     0.26897   0.54458   0.53637   0.00000  Uiso   1.00
C767   C     0.07306   0.46789   0.91680   0.00000  Uiso   1.00
C768   C     0.26028   0.53211   0.58320   0.00000  Uiso   1.00
C769   C     0.14223   0.50916   0.91310   0.00000  Uiso   1.00
C770   C     0.19110   0.49084   0.58690   0.00000  Uiso   1.00
C771   C     0.13551   0.49577   0.95866   0.00000  Uiso   1.00
C772   C     0.19783   0.50423   0.54134   0.00000  Uiso   1.00
C773   C     0.10018   0.46414   0.98146   0.00000  Uiso   1.00
C774   C     0.23315   0.53586   0.51854   0.00000  Uiso   1.00
C775   C     0.16649   0.51046   0.97980   0.00000  Uiso   1.00
C776   C     0.16685   0.48954   0.52021   0.00000  Uiso   1.00
N777   N     0.04759   0.50001   0.75001   0.00000  Uiso   1.00
N778   N     0.28574   0.49999   0.74999   0.00000  Uiso   1.00
O779   O     0.12846   0.56108   0.75001   0.00000  Uiso   1.00
O780   O     0.20488   0.43892   0.75000   0.00000  Uiso   1.00
O781   O     0.20490   0.56107   0.75000   0.00000  Uiso   1.00
O782   O     0.12843   0.43893   0.75000   0.00000  Uiso   1.00
O783   O     0.10661   0.50001   0.81613   0.00000  Uiso   1.00
O784   O     0.22672   0.49999   0.68388   0.00000  Uiso   1.00
O785   O     0.18305   0.50000   0.81612   0.00000  Uiso   1.00
O786   O     0.15028   0.50000   0.68388   0.00000  Uiso   1.00
Zn787  Zn    0.11562   0.50001   0.75000   0.00000  Uiso   1.00
Zn788  Zn    0.21771   0.49999   0.75000   0.00000  Uiso   1.00
I789   I     0.07783   0.37888   0.53984   0.00000  Uiso   1.00
I790   I     0.25551   0.62112   0.96016   0.00000  Uiso   1.00
H791   H     0.16049   0.47099   0.60775   0.00000  Uiso   1.00
H792   H     0.17284   0.52901   0.89225   0.00000  Uiso   1.00
I793   I     0.30783   0.55484   0.61353   0.00000  Uiso   1.00
I794   I     0.02550   0.44516   0.88647   0.00000  Uiso   1.00
I795   I     0.32525   0.43455   0.51008   0.00000  Uiso   1.00
I796   I     0.00808   0.56545   0.98992   0.00000  Uiso   1.00
H797   H     0.14227   0.43292   0.56334   0.00000  Uiso   1.00
H798   H     0.19107   0.56708   0.93666   0.00000  Uiso   1.00
H799   H     0.24650   0.62852   0.72021   0.00000  Uiso   1.00
H800   H     0.08684   0.37148   0.77979   0.00000  Uiso   1.00
H801   H     0.24660   0.37077   0.72106   0.00000  Uiso   1.00
H802   H     0.08673   0.62923   0.77894   0.00000  Uiso   1.00
I803   I     0.25183   0.42423   0.82010   0.00000  Uiso   1.00
I804   I     0.08150   0.57577   0.67990   0.00000  Uiso   1.00
H805   H     0.02527   0.44552   0.79242   0.00000  Uiso   1.00
H806   H     0.30806   0.55448   0.70758   0.00000  Uiso   1.00
C807   C     0.49994   0.57996   0.74976   0.00000  Uiso   1.00
C808   C     0.50006   0.42004   0.75024   0.00000  Uiso   1.00
C809   C     0.47106   0.45348   0.53727   0.00000  Uiso   1.00
C810   C     0.52894   0.54652   0.96273   0.00000  Uiso   1.00
C811   C     0.43792   0.44087   0.51888   0.00000  Uiso   1.00
C812   C     0.56208   0.55913   0.98112   0.00000  Uiso   1.00
C813   C     0.54491   0.64509   0.73345   0.00000  Uiso   1.00
C814   C     0.45509   0.35491   0.76655   0.00000  Uiso   1.00
C815   C     0.54501   0.35451   0.73399   0.00000  Uiso   1.00
C816   C     0.45499   0.64549   0.76601   0.00000  Uiso   1.00
C817   C     0.50011   0.37587   0.75048   0.00000  Uiso   1.00
C818   C     0.49989   0.62413   0.74952   0.00000  Uiso   1.00
C819   C     0.63318   0.47023   0.77508   0.00000  Uiso   1.00
C820   C     0.36682   0.52977   0.72492   0.00000  Uiso   1.00
C821   C     0.34782   0.46999   0.77407   0.00000  Uiso   1.00
C822   C     0.65218   0.53001   0.72593   0.00000  Uiso   1.00
C823   C     0.46858   0.49842   0.83855   0.00000  Uiso   1.00
C824   C     0.53142   0.50158   0.66145   0.00000  Uiso   1.00
C825   C     0.44795   0.49281   0.89048   0.00000  Uiso   1.00
C826   C     0.55205   0.50719   0.60952   0.00000  Uiso   1.00
C827   C     0.39770   0.45542   0.96363   0.00000  Uiso   1.00
C828   C     0.60230   0.54458   0.53637   0.00000  Uiso   1.00
C829   C     0.40639   0.46789   0.91680   0.00000  Uiso   1.00
C830   C     0.59361   0.53211   0.58320   0.00000  Uiso   1.00
C831   C     0.47557   0.50916   0.91310   0.00000  Uiso   1.00
C832   C     0.52443   0.49084   0.58690   0.00000  Uiso   1.00
C833   C     0.46884   0.49577   0.95866   0.00000  Uiso   1.00
C834   C     0.53116   0.50423   0.54134   0.00000  Uiso   1.00
C835   C     0.43352   0.46414   0.98146   0.00000  Uiso   1.00
C836   C     0.56648   0.53586   0.51854   0.00000  Uiso   1.00
C837   C     0.49982   0.51046   0.97980   0.00000  Uiso   1.00
C838   C     0.50018   0.48954   0.52021   0.00000  Uiso   1.00
N839   N     0.38093   0.50001   0.75001   0.00000  Uiso   1.00
N840   N     0.61907   0.49999   0.74999   0.00000  Uiso   1.00
O841   O     0.46179   0.56108   0.75001   0.00000  Uiso   1.00
O842   O     0.53821   0.43892   0.75000   0.00000  Uiso   1.00
O843   O     0.53823   0.56107   0.75000   0.00000  Uiso   1.00
O844   O     0.46177   0.43893   0.75000   0.00000  Uiso   1.00
O845   O     0.43994   0.50001   0.81613   0.00000  Uiso   1.00
O846   O     0.56006   0.49999   0.68388   0.00000  Uiso   1.00
O847   O     0.51639   0.50000   0.81612   0.00000  Uiso   1.00
O848   O     0.48361   0.50000   0.68388   0.00000  Uiso   1.00
Zn849  Zn    0.44896   0.50001   0.75000   0.00000  Uiso   1.00
Zn850  Zn    0.55104   0.49999   0.75000   0.00000  Uiso   1.00
I851   I     0.41116   0.37888   0.53984   0.00000  Uiso   1.00
I852   I     0.58884   0.62112   0.96016   0.00000  Uiso   1.00
H853   H     0.49383   0.47099   0.60775   0.00000  Uiso   1.00
H854   H     0.50617   0.52901   0.89225   0.00000  Uiso   1.00
I855   I     0.64116   0.55484   0.61353   0.00000  Uiso   1.00
I856   I     0.35884   0.44516   0.88647   0.00000  Uiso   1.00
I857   I     0.65858   0.43455   0.51008   0.00000  Uiso   1.00
I858   I     0.34142   0.56545   0.98992   0.00000  Uiso   1.00
H859   H     0.47560   0.43292   0.56334   0.00000  Uiso   1.00
H860   H     0.52440   0.56708   0.93666   0.00000  Uiso   1.00
H861   H     0.57983   0.62852   0.72021   0.00000  Uiso   1.00
H862   H     0.42017   0.37148   0.77979   0.00000  Uiso   1.00
H863   H     0.57993   0.37077   0.72106   0.00000  Uiso   1.00
H864   H     0.42007   0.62923   0.77894   0.00000  Uiso   1.00
I865   I     0.58517   0.42423   0.82010   0.00000  Uiso   1.00
I866   I     0.41483   0.57577   0.67990   0.00000  Uiso   1.00
H867   H     0.35860   0.44552   0.79242   0.00000  Uiso   1.00
H868   H     0.64140   0.55448   0.70758   0.00000  Uiso   1.00
C869   C     0.83327   0.57996   0.74976   0.00000  Uiso   1.00
C870   C     0.83340   0.42004   0.75024   0.00000  Uiso   1.00
C871   C     0.80440   0.45348   0.53727   0.00000  Uiso   1.00
C872   C     0.86227   0.54652   0.96273   0.00000  Uiso   1.00
C873   C     0.77125   0.44087   0.51888   0.00000  Uiso   1.00
C874   C     0.89541   0.55913   0.98112   0.00000  Uiso   1.00
C875   C     0.87824   0.64509   0.73345   0.00000  Uiso   1.00
C876   C     0.78842   0.35491   0.76655   0.00000  Uiso   1.00
C877   C     0.87834   0.35451   0.73399   0.00000  Uiso   1.00
C878   C     0.78833   0.64549   0.76601   0.00000  Uiso   1.00
C879   C     0.83344   0.37587   0.75048   0.00000  Uiso   1.00
C880   C     0.83322   0.62413   0.74952   0.00000  Uiso   1.00
C881   C     0.96651   0.47023   0.77508   0.00000  Uiso   1.00
C882   C     0.70016   0.52977   0.72492   0.00000  Uiso   1.00
C883   C     0.68115   0.46999   0.77407   0.00000  Uiso   1.00
C884   C     0.98551   0.53001   0.72593   0.00000  Uiso   1.00
C885   C     0.80192   0.49842   0.83855   0.00000  Uiso   1.00
C886   C     0.86475   0.50158   0.66145   0.00000  Uiso   1.00
C887   C     0.78128   0.49281   0.89048   0.00000  Uiso   1.00
C888   C     0.88539   0.50719   0.60952   0.00000  Uiso   1.00
C889   C     0.73103   0.45542   0.96363   0.00000  Uiso   1.00
C890   C     0.93564   0.54458   0.53637   0.00000  Uiso   1.00
C891   C     0.73972   0.46789   0.91680   0.00000  Uiso   1.00
C892   C     0.92694   0.53211   0.58320   0.00000  Uiso   1.00
C893   C     0.80890   0.50916   0.91310   0.00000  Uiso   1.00
C894   C     0.85777   0.49084   0.58690   0.00000  Uiso   1.00
C895   C     0.80217   0.49577   0.95866   0.00000  Uiso   1.00
C896   C     0.86450   0.50423   0.54134   0.00000  Uiso   1.00
C897   C     0.76685   0.46414   0.98146   0.00000  Uiso   1.00
C898   C     0.89982   0.53586   0.51854   0.00000  Uiso   1.00
C899   C     0.83315   0.51046   0.97980   0.00000  Uiso   1.00
C900   C     0.83352   0.48954   0.52021   0.00000  Uiso   1.00
N901   N     0.71426   0.50001   0.75001   0.00000  Uiso   1.00
N902   N     0.95241   0.49999   0.74999   0.00000  Uiso   1.00
O903   O     0.79512   0.56108   0.75001   0.00000  Uiso   1.00
O904   O     0.87154   0.43892   0.75000   0.00000  Uiso   1.00
O905   O     0.87157   0.56107   0.75000   0.00000  Uiso   1.00
O906   O     0.79510   0.43893   0.75000   0.00000  Uiso   1.00
O907   O     0.77328   0.50001   0.81613   0.00000  Uiso   1.00
O908   O     0.89339   0.49999   0.68388   0.00000  Uiso   1.00
O909   O     0.84972   0.50000   0.81612   0.00000  Uiso   1.00
O910   O     0.81695   0.50000   0.68388   0.00000  Uiso   1.00
Zn911  Zn    0.78229   0.50001   0.75000   0.00000  Uiso   1.00
Zn912  Zn    0.88438   0.49999   0.75000   0.00000  Uiso   1.00
I913   I     0.74450   0.37888   0.53984   0.00000  Uiso   1.00
I914   I     0.92217   0.62112   0.96016   0.00000  Uiso   1.00
H915   H     0.82716   0.47099   0.60775   0.00000  Uiso   1.00
H916   H     0.83951   0.52901   0.89225   0.00000  Uiso   1.00
I917   I     0.97450   0.55484   0.61353   0.00000  Uiso   1.00
I918   I     0.69217   0.44516   0.88647   0.00000  Uiso   1.00
I919   I     0.99192   0.43455   0.51008   0.00000  Uiso   1.00
I920   I     0.67475   0.56545   0.98992   0.00000  Uiso   1.00
H921   H     0.80893   0.43292   0.56334   0.00000  Uiso   1.00
H922   H     0.85773   0.56708   0.93666   0.00000  Uiso   1.00
H923   H     0.91316   0.62852   0.72021   0.00000  Uiso   1.00
H924   H     0.75350   0.37148   0.77979   0.00000  Uiso   1.00
H925   H     0.91327   0.37077   0.72106   0.00000  Uiso   1.00
H926   H     0.75340   0.62923   0.77894   0.00000  Uiso   1.00
I927   I     0.91850   0.42423   0.82010   0.00000  Uiso   1.00
I928   I     0.74817   0.57577   0.67990   0.00000  Uiso   1.00
H929   H     0.69194   0.44552   0.79242   0.00000  Uiso   1.00
H930   H     0.97473   0.55448   0.70758   0.00000  Uiso   1.00
C931   C     0.16660   0.91329   0.74976   0.00000  Uiso   1.00
C932   C     0.16673   0.75338   0.75024   0.00000  Uiso   1.00
C933   C     0.13773   0.78681   0.53727   0.00000  Uiso   1.00
C934   C     0.19560   0.87985   0.96273   0.00000  Uiso   1.00
C935   C     0.10459   0.77420   0.51888   0.00000  Uiso   1.00
C936   C     0.22875   0.89246   0.98112   0.00000  Uiso   1.00
C937   C     0.21158   0.97842   0.73345   0.00000  Uiso   1.00
C938   C     0.12176   0.68825   0.76655   0.00000  Uiso   1.00
C939   C     0.21167   0.68785   0.73399   0.00000  Uiso   1.00
C940   C     0.12166   0.97882   0.76601   0.00000  Uiso   1.00
C941   C     0.16678   0.70920   0.75048   0.00000  Uiso   1.00
C942   C     0.16656   0.95747   0.74952   0.00000  Uiso   1.00
C943   C     0.29984   0.80356   0.77508   0.00000  Uiso   1.00
C944   C     0.03349   0.86310   0.72492   0.00000  Uiso   1.00
C945   C     0.01449   0.80332   0.77407   0.00000  Uiso   1.00
C946   C     0.31885   0.86334   0.72593   0.00000  Uiso   1.00
C947   C     0.13525   0.83176   0.83855   0.00000  Uiso   1.00
C948   C     0.19808   0.83491   0.66145   0.00000  Uiso   1.00
C949   C     0.11461   0.82614   0.89048   0.00000  Uiso   1.00
C950   C     0.21872   0.84053   0.60952   0.00000  Uiso   1.00
C951   C     0.06436   0.78875   0.96363   0.00000  Uiso   1.00
C952   C     0.26897   0.87791   0.53637   0.00000  Uiso   1.00
C953   C     0.07306   0.80123   0.91680   0.00000  Uiso   1.00
C954   C     0.26028   0.86544   0.58320   0.00000  Uiso   1.00
C955   C     0.14223   0.84249   0.91310   0.00000  Uiso   1.00
C956   C     0.19110   0.82418   0.58690   0.00000  Uiso   1.00
C957   C     0.13551   0.82911   0.95866   0.00000  Uiso   1.00
C958   C     0.19783   0.83756   0.54134   0.00000  Uiso   1.00
C959   C     0.10018   0.79747   0.98146   0.00000  Uiso   1.00
C960   C     0.23315   0.86920   0.51854   0.00000  Uiso   1.00
C961   C     0.16649   0.84379   0.97980   0.00000  Uiso   1.00
C962   C     0.16685   0.82287   0.52021   0.00000  Uiso   1.00
N963   N     0.04759   0.83334   0.75001   0.00000  Uiso   1.00
N964   N     0.28574   0.83332   0.74999   0.00000  Uiso   1.00
O965   O     0.12846   0.89442   0.75001   0.00000  Uiso   1.00
O966   O     0.20488   0.77225   0.75000   0.00000  Uiso   1.00
O967   O     0.20490   0.89441   0.75000   0.00000  Uiso   1.00
O968   O     0.12843   0.77226   0.75000   0.00000  Uiso   1.00
O969   O     0.10661   0.83334   0.81613   0.00000  Uiso   1.00
O970   O     0.22672   0.83333   0.68388   0.00000  Uiso   1.00
O971   O     0.18305   0.83333   0.81612   0.00000  Uiso   1.00
O972   O     0.15028   0.83334   0.68388   0.00000  Uiso   1.00
Zn973  Zn    0.11562   0.83334   0.75000   0.00000  Uiso   1.00
Zn974  Zn    0.21771   0.83333   0.75000   0.00000  Uiso   1.00
I975   I     0.07783   0.71221   0.53984   0.00000  Uiso   1.00
I976   I     0.25551   0.95445   0.96016   0.00000  Uiso   1.00
H977   H     0.16049   0.80433   0.60775   0.00000  Uiso   1.00
H978   H     0.17284   0.86234   0.89225   0.00000  Uiso   1.00
I979   I     0.30783   0.88818   0.61353   0.00000  Uiso   1.00
I980   I     0.02550   0.77849   0.88647   0.00000  Uiso   1.00
I981   I     0.32525   0.76788   0.51008   0.00000  Uiso   1.00
I982   I     0.00808   0.89878   0.98992   0.00000  Uiso   1.00
H983   H     0.14227   0.76625   0.56334   0.00000  Uiso   1.00
H984   H     0.19107   0.90041   0.93666   0.00000  Uiso   1.00
H985   H     0.24650   0.96186   0.72021   0.00000  Uiso   1.00
H986   H     0.08684   0.70481   0.77979   0.00000  Uiso   1.00
H987   H     0.24660   0.70411   0.72106   0.00000  Uiso   1.00
H988   H     0.08673   0.96256   0.77894   0.00000  Uiso   1.00
I989   I     0.25183   0.75756   0.82010   0.00000  Uiso   1.00
I990   I     0.08150   0.90911   0.67990   0.00000  Uiso   1.00
H991   H     0.02527   0.77886   0.79242   0.00000  Uiso   1.00
H992   H     0.30806   0.88781   0.70758   0.00000  Uiso   1.00
C993   C     0.49994   0.91329   0.74976   0.00000  Uiso   1.00
C994   C     0.50006   0.75338   0.75024   0.00000  Uiso   1.00
C995   C     0.47106   0.78681   0.53727   0.00000  Uiso   1.00
C996   C     0.52894   0.87985   0.96273   0.00000  Uiso   1.00
C997   C     0.43792   0.77420   0.51888   0.00000  Uiso   1.00
C998   C     0.56208   0.89246   0.98112   0.00000  Uiso   1.00
C999   C     0.54491   0.97842   0.73345   0.00000  Uiso   1.00
C1000  C     0.45509   0.68825   0.76655   0.00000  Uiso   1.00
C1001  C     0.54501   0.68785   0.73399   0.00000  Uiso   1.00
C1002  C     0.45499   0.97882   0.76601   0.00000  Uiso   1.00
C1003  C     0.50011   0.70920   0.75048   0.00000  Uiso   1.00
C1004  C     0.49989   0.95747   0.74952   0.00000  Uiso   1.00
C1005  C     0.63318   0.80356   0.77508   0.00000  Uiso   1.00
C1006  C     0.36682   0.86310   0.72492   0.00000  Uiso   1.00
C1007  C     0.34782   0.80332   0.77407   0.00000  Uiso   1.00
C1008  C     0.65218   0.86334   0.72593   0.00000  Uiso   1.00
C1009  C     0.46858   0.83176   0.83855   0.00000  Uiso   1.00
C1010  C     0.53142   0.83491   0.66145   0.00000  Uiso   1.00
C1011  C     0.44795   0.82614   0.89048   0.00000  Uiso   1.00
C1012  C     0.55205   0.84053   0.60952   0.00000  Uiso   1.00
C1013  C     0.39770   0.78875   0.96363   0.00000  Uiso   1.00
C1014  C     0.60230   0.87791   0.53637   0.00000  Uiso   1.00
C1015  C     0.40639   0.80123   0.91680   0.00000  Uiso   1.00
C1016  C     0.59361   0.86544   0.58320   0.00000  Uiso   1.00
C1017  C     0.47557   0.84249   0.91310   0.00000  Uiso   1.00
C1018  C     0.52443   0.82418   0.58690   0.00000  Uiso   1.00
C1019  C     0.46884   0.82911   0.95866   0.00000  Uiso   1.00
C1020  C     0.53116   0.83756   0.54134   0.00000  Uiso   1.00
C1021  C     0.43352   0.79747   0.98146   0.00000  Uiso   1.00
C1022  C     0.56648   0.86920   0.51854   0.00000  Uiso   1.00
C1023  C     0.49982   0.84379   0.97980   0.00000  Uiso   1.00
C1024  C     0.50018   0.82287   0.52021   0.00000  Uiso   1.00
N1025  N     0.38093   0.83334   0.75001   0.00000  Uiso   1.00
N1026  N     0.61907   0.83332   0.74999   0.00000  Uiso   1.00
O1027  O     0.46179   0.89442   0.75001   0.00000  Uiso   1.00
O1028  O     0.53821   0.77225   0.75000   0.00000  Uiso   1.00
O1029  O     0.53823   0.89441   0.75000   0.00000  Uiso   1.00
O1030  O     0.46177   0.77226   0.75000   0.00000  Uiso   1.00
O1031  O     0.43994   0.83334   0.81613   0.00000  Uiso   1.00
O1032  O     0.56006   0.83333   0.68388   0.00000  Uiso   1.00
O1033  O     0.51639   0.83333   0.81612   0.00000  Uiso   1.00
O1034  O     0.48361   0.83334   0.68388   0.00000  Uiso   1.00
Zn1035 Zn    0.44896   0.83334   0.75000   0.00000  Uiso   1.00
Zn1036 Zn    0.55104   0.83333   0.75000   0.00000  Uiso   1.00
I1037  I     0.41116   0.71221   0.53984   0.00000  Uiso   1.00
I1038  I     0.58884   0.95445   0.96016   0.00000  Uiso   1.00
H1039  H     0.49383   0.80433   0.60775   0.00000  Uiso   1.00
H1040  H     0.50617   0.86234   0.89225   0.00000  Uiso   1.00
I1041  I     0.64116   0.88818   0.61353   0.00000  Uiso   1.00
I1042  I     0.35884   0.77849   0.88647   0.00000  Uiso   1.00
I1043  I     0.65858   0.76788   0.51008   0.00000  Uiso   1.00
I1044  I     0.34142   0.89878   0.98992   0.00000  Uiso   1.00
H1045  H     0.47560   0.76625   0.56334   0.00000  Uiso   1.00
H1046  H     0.52440   0.90041   0.93666   0.00000  Uiso   1.00
H1047  H     0.57983   0.96186   0.72021   0.00000  Uiso   1.00
H1048  H     0.42017   0.70481   0.77979   0.00000  Uiso   1.00
H1049  H     0.57993   0.70411   0.72106   0.00000  Uiso   1.00
H1050  H     0.42007   0.96256   0.77894   0.00000  Uiso   1.00
I1051  I     0.58517   0.75756   0.82010   0.00000  Uiso   1.00
I1052  I     0.41483   0.90911   0.67990   0.00000  Uiso   1.00
H1053  H     0.35860   0.77886   0.79242   0.00000  Uiso   1.00
H1054  H     0.64140   0.88781   0.70758   0.00000  Uiso   1.00
C1055  C     0.83327   0.91329   0.74976   0.00000  Uiso   1.00
C1056  C     0.83340   0.75338   0.75024   0.00000  Uiso   1.00
C1057  C     0.80440   0.78681   0.53727   0.00000  Uiso   1.00
C1058  C     0.86227   0.87985   0.96273   0.00000  Uiso   1.00
C1059  C     0.77125   0.77420   0.51888   0.00000  Uiso   1.00
C1060  C     0.89541   0.89246   0.98112   0.00000  Uiso   1.00
C1061  C     0.87824   0.97842   0.73345   0.00000  Uiso   1.00
C1062  C     0.78842   0.68825   0.76655   0.00000  Uiso   1.00
C1063  C     0.87834   0.68785   0.73399   0.00000  Uiso   1.00
C1064  C     0.78833   0.97882   0.76601   0.00000  Uiso   1.00
C1065  C     0.83344   0.70920   0.75048   0.00000  Uiso   1.00
C1066  C     0.83322   0.95747   0.74952   0.00000  Uiso   1.00
C1067  C     0.96651   0.80356   0.77508   0.00000  Uiso   1.00
C1068  C     0.70016   0.86310   0.72492   0.00000  Uiso   1.00
C1069  C     0.68115   0.80332   0.77407   0.00000  Uiso   1.00
C1070  C     0.98551   0.86334   0.72593   0.00000  Uiso   1.00
C1071  C     0.80192   0.83176   0.83855   0.00000  Uiso   1.00
C1072  C     0.86475   0.83491   0.66145   0.00000  Uiso   1.00
C1073  C     0.78128   0.82614   0.89048   0.00000  Uiso   1.00
C1074  C     0.88539   0.84053   0.60952   0.00000  Uiso   1.00
C1075  C     0.73103   0.78875   0.96363   0.00000  Uiso   1.00
C1076  C     0.93564   0.87791   0.53637   0.00000  Uiso   1.00
C1077  C     0.73972   0.80123   0.91680   0.00000  Uiso   1.00
C1078  C     0.92694   0.86544   0.58320   0.00000  Uiso   1.00
C1079  C     0.80890   0.84249   0.91310   0.00000  Uiso   1.00
C1080  C     0.85777   0.82418   0.58690   0.00000  Uiso   1.00
C1081  C     0.80217   0.82911   0.95866   0.00000  Uiso   1.00
C1082  C     0.86450   0.83756   0.54134   0.00000  Uiso   1.00
C1083  C     0.76685   0.79747   0.98146   0.00000  Uiso   1.00
C1084  C     0.89982   0.86920   0.51854   0.00000  Uiso   1.00
C1085  C     0.83315   0.84379   0.97980   0.00000  Uiso   1.00
C1086  C     0.83352   0.82287   0.52021   0.00000  Uiso   1.00
N1087  N     0.71426   0.83334   0.75001   0.00000  Uiso   1.00
N1088  N     0.95241   0.83332   0.74999   0.00000  Uiso   1.00
O1089  O     0.79512   0.89442   0.75001   0.00000  Uiso   1.00
O1090  O     0.87154   0.77225   0.75000   0.00000  Uiso   1.00
O1091  O     0.87157   0.89441   0.75000   0.00000  Uiso   1.00
O1092  O     0.79510   0.77226   0.75000   0.00000  Uiso   1.00
O1093  O     0.77328   0.83334   0.81613   0.00000  Uiso   1.00
O1094  O     0.89339   0.83333   0.68388   0.00000  Uiso   1.00
O1095  O     0.84972   0.83333   0.81612   0.00000  Uiso   1.00
O1096  O     0.81695   0.83334   0.68388   0.00000  Uiso   1.00
Zn1097 Zn    0.78229   0.83334   0.75000   0.00000  Uiso   1.00
Zn1098 Zn    0.88438   0.83333   0.75000   0.00000  Uiso   1.00
I1099  I     0.74450   0.71221   0.53984   0.00000  Uiso   1.00
I1100  I     0.92217   0.95445   0.96016   0.00000  Uiso   1.00
H1101  H     0.82716   0.80433   0.60775   0.00000  Uiso   1.00
H1102  H     0.83951   0.86234   0.89225   0.00000  Uiso   1.00
I1103  I     0.97450   0.88818   0.61353   0.00000  Uiso   1.00
I1104  I     0.69217   0.77849   0.88647   0.00000  Uiso   1.00
I1105  I     0.99192   0.76788   0.51008   0.00000  Uiso   1.00
I1106  I     0.67475   0.89878   0.98992   0.00000  Uiso   1.00
H1107  H     0.80893   0.76625   0.56334   0.00000  Uiso   1.00
H1108  H     0.85773   0.90041   0.93666   0.00000  Uiso   1.00
H1109  H     0.91316   0.96186   0.72021   0.00000  Uiso   1.00
H1110  H     0.75350   0.70481   0.77979   0.00000  Uiso   1.00
H1111  H     0.91327   0.70411   0.72106   0.00000  Uiso   1.00
H1112  H     0.75340   0.96256   0.77894   0.00000  Uiso   1.00
I1113  I     0.91850   0.75756   0.82010   0.00000  Uiso   1.00
I1114  I     0.74817   0.90911   0.67990   0.00000  Uiso   1.00
H1115  H     0.69194   0.77886   0.79242   0.00000  Uiso   1.00
H1116  H     0.97473   0.88781   0.70758   0.00000  Uiso   1.00
loop_
_geom_bond_atom_site_label_1
_geom_bond_atom_site_label_2
_geom_bond_distance
_geom_bond_site_symmetry_2
_ccdc_geom_bond_type
C1     O37     1.285   .     A
C1     C12     1.415   .     S
C1     O35     1.289   .     A
C2     O38     1.285   .     A
C2     C11     1.415   .     S
C2     O36     1.289   .     A
C3     H53     1.079   .     S
C3     C32     1.410   .     A
C3     C5      1.391   .     A
C4     H54     1.079   .     S
C4     C31     1.410   .     A
C4     C6      1.391   .     A
C5     I45     2.135   .     S
C5     C587    1.412   1_554 S
C6     I46     2.135   .     S
C6     C588    1.412   .     S
C7     H55     1.084   .     S
C7     C12     1.398   .     A
C7     C195    1.370   .     S
C8     H56     1.084   .     S
C8     C11     1.398   .     A
C8     C382    1.370   1_545 S
C9     C11     1.395   .     A
C9     H57     1.084   .     S
C9     C379    1.370   1_545 S
C10    C12     1.395   .     A
C10    H58     1.084   .     S
C10    C194    1.370   .     S
C13    I59     2.118   .     S
C13    N34     1.382   .     A
C13    C77     1.414   .     S
C14    I60     2.118   .     S
C14    N33     1.382   .     A
C14    C140    1.414   1_455 S
C15    H61     1.078   .     S
C15    N33     1.357   .     A
C15    C137    1.414   1_455 S
C16    H62     1.078   .     S
C16    N34     1.357   .     A
C16    C76     1.414   .     S
C17    C19     1.474   .     S
C17    O39     1.299   .     A
C17    O41     1.303   .     A
C18    C20     1.474   .     S
C18    O42     1.303   .     A
C18    O40     1.299   .     A
C19    C23     1.415   .     A
C19    C25     1.390   .     A
C20    C24     1.415   .     A
C20    C26     1.390   .     A
C21    C23     1.412   .     A
C21    C29     1.417   .     A
C21    I733    2.149   1_455 S
C22    C24     1.412   .     A
C22    C30     1.417   .     A
C22    I672    2.149   1_554 S
C23    I50     2.132   .     S
C24    I49     2.132   .     S
C25    H48     1.080   .     S
C25    C27     1.398   .     A
C26    C28     1.398   .     A
C26    H47     1.080   .     S
C27    C29     1.420   .     A
C27    C31     1.418   .     A
C28    C30     1.420   .     A
C28    C32     1.418   .     A
C29    C563    1.412   .     S
C30    C564    1.412   1_554 S
C31    C590    1.409   .     S
C32    C589    1.409   1_554 S
N33    Zn43    2.022   .     S
N34    Zn44    2.022   .     S
O35    Zn43    1.997   .     S
O36    Zn44    1.997   .     S
O37    Zn44    1.988   .     S
O38    Zn43    1.988   .     S
O39    Zn43    1.950   .     S
O40    Zn44    1.950   .     S
O41    Zn44    1.876   .     S
O42    Zn43    1.876   .     S
I51    C641    2.149   1_554 S
I52    C704    2.149   1_455 S
C63    O99     1.285   .     A
C63    C74     1.415   .     S
C63    O97     1.289   .     A
C64    O100    1.285   .     A
C64    C73     1.415   .     S
C64    O98     1.289   .     A
C65    H115    1.079   .     S
C65    C94     1.410   .     A
C65    C67     1.391   .     A
C66    H116    1.079   .     S
C66    C93     1.410   .     A
C66    C68     1.391   .     A
C67    I107    2.135   .     S
C67    C649    1.412   1_554 S
C68    I108    2.135   .     S
C68    C650    1.412   .     S
C69    H117    1.084   .     S
C69    C74     1.398   .     A
C69    C257    1.370   .     S
C70    H118    1.084   .     S
C70    C73     1.398   .     A
C70    C444    1.370   1_545 S
C71    C73     1.395   .     A
C71    H119    1.084   .     S
C71    C441    1.370   1_545 S
C72    C74     1.395   .     A
C72    H120    1.084   .     S
C72    C256    1.370   .     S
C75    I121    2.118   .     S
C75    N96     1.382   .     A
C75    C139    1.414   .     S
C76    I122    2.118   .     S
C76    N95     1.382   .     A
C77    H123    1.078   .     S
C77    N95     1.357   .     A
C78    H124    1.078   .     S
C78    N96     1.357   .     A
C78    C138    1.414   .     S
C79    C81     1.474   .     S
C79    O101    1.299   .     A
C79    O103    1.303   .     A
C80    C82     1.474   .     S
C80    O104    1.303   .     A
C80    O102    1.299   .     A
C81    C85     1.415   .     A
C81    C87     1.390   .     A
C82    C86     1.415   .     A
C82    C88     1.390   .     A
C83    C85     1.412   .     A
C83    C91     1.417   .     A
C83    I609    2.149   .     S
C84    C86     1.412   .     A
C84    C92     1.417   .     A
C84    I734    2.149   1_554 S
C85    I112    2.132   .     S
C86    I111    2.132   .     S
C87    H110    1.080   .     S
C87    C89     1.398   .     A
C88    C90     1.398   .     A
C88    H109    1.080   .     S
C89    C91     1.420   .     A
C89    C93     1.418   .     A
C90    C92     1.420   .     A
C90    C94     1.418   .     A
C91    C625    1.412   .     S
C92    C626    1.412   1_554 S
C93    C652    1.409   .     S
C94    C651    1.409   1_554 S
N95    Zn105   2.022   .     S
N96    Zn106   2.022   .     S
O97    Zn105   1.997   .     S
O98    Zn106   1.997   .     S
O99    Zn106   1.988   .     S
O100   Zn105   1.988   .     S
O101   Zn105   1.950   .     S
O102   Zn106   1.950   .     S
O103   Zn106   1.876   .     S
O104   Zn105   1.876   .     S
I113   C703    2.149   1_554 S
I114   C580    2.149   .     S
C125   O161    1.285   .     A
C125   C136    1.415   .     S
C125   O159    1.289   .     A
C126   O162    1.285   .     A
C126   C135    1.415   .     S
C126   O160    1.289   .     A
C127   H177    1.079   .     S
C127   C156    1.410   .     A
C127   C129    1.391   .     A
C128   H178    1.079   .     S
C128   C155    1.410   .     A
C128   C130    1.391   .     A
C129   I169    2.135   .     S
C129   C711    1.412   1_554 S
C130   I170    2.135   .     S
C130   C712    1.412   .     S
C131   H179    1.084   .     S
C131   C136    1.398   .     A
C131   C319    1.370   .     S
C132   H180    1.084   .     S
C132   C135    1.398   .     A
C132   C506    1.370   1_545 S
C133   C135    1.395   .     A
C133   H181    1.084   .     S
C133   C503    1.370   1_545 S
C134   C136    1.395   .     A
C134   H182    1.084   .     S
C134   C318    1.370   .     S
C137   I183    2.118   .     S
C137   N158    1.382   .     A
C137   C15     1.414   1_655 S
C138   I184    2.118   .     S
C138   N157    1.382   .     A
C139   H185    1.078   .     S
C139   N157    1.357   .     A
C140   H186    1.078   .     S
C140   N158    1.357   .     A
C140   C14     1.414   1_655 S
C141   C143    1.474   .     S
C141   O163    1.299   .     A
C141   O165    1.303   .     A
C142   C144    1.474   .     S
C142   O166    1.303   .     A
C142   O164    1.299   .     A
C143   C147    1.415   .     A
C143   C149    1.390   .     A
C144   C148    1.415   .     A
C144   C150    1.390   .     A
C145   C147    1.412   .     A
C145   C153    1.417   .     A
C145   I671    2.149   .     S
C146   C148    1.412   .     A
C146   C154    1.417   .     A
C146   I610    2.149   1_654 S
C147   I174    2.132   .     S
C148   I173    2.132   .     S
C149   H172    1.080   .     S
C149   C151    1.398   .     A
C150   C152    1.398   .     A
C150   H171    1.080   .     S
C151   C153    1.420   .     A
C151   C155    1.418   .     A
C152   C154    1.420   .     A
C152   C156    1.418   .     A
C153   C687    1.412   .     S
C154   C688    1.412   1_554 S
C155   C714    1.409   .     S
C156   C713    1.409   1_554 S
N157   Zn167   2.022   .     S
N158   Zn168   2.022   .     S
O159   Zn167   1.997   .     S
O160   Zn168   1.997   .     S
O161   Zn168   1.988   .     S
O162   Zn167   1.988   .     S
O163   Zn167   1.950   .     S
O164   Zn168   1.950   .     S
O165   Zn168   1.876   .     S
O166   Zn167   1.876   .     S
I175   C579    2.149   1_654 S
I176   C642    2.149   .     S
C187   O223    1.285   .     A
C187   C198    1.415   .     S
C187   O221    1.289   .     A
C188   O224    1.285   .     A
C188   C197    1.415   .     S
C188   O222    1.289   .     A
C189   H239    1.079   .     S
C189   C218    1.410   .     A
C189   C191    1.391   .     A
C190   H240    1.079   .     S
C190   C217    1.410   .     A
C190   C192    1.391   .     A
C191   I231    2.135   .     S
C191   C773    1.412   1_554 S
C192   I232    2.135   .     S
C192   C774    1.412   .     S
C193   H241    1.084   .     S
C193   C198    1.398   .     A
C193   C381    1.370   .     S
C194   H242    1.084   .     S
C194   C197    1.398   .     A
C195   C197    1.395   .     A
C195   H243    1.084   .     S
C196   C198    1.395   .     A
C196   H244    1.084   .     S
C196   C380    1.370   .     S
C199   I245    2.118   .     S
C199   N220    1.382   .     A
C199   C263    1.414   .     S
C200   I246    2.118   .     S
C200   N219    1.382   .     A
C200   C326    1.414   1_455 S
C201   H247    1.078   .     S
C201   N219    1.357   .     A
C201   C323    1.414   1_455 S
C202   H248    1.078   .     S
C202   N220    1.357   .     A
C202   C262    1.414   .     S
C203   C205    1.474   .     S
C203   O225    1.299   .     A
C203   O227    1.303   .     A
C204   C206    1.474   .     S
C204   O228    1.303   .     A
C204   O226    1.299   .     A
C205   C209    1.415   .     A
C205   C211    1.390   .     A
C206   C210    1.415   .     A
C206   C212    1.390   .     A
C207   C209    1.412   .     A
C207   C215    1.417   .     A
C207   I919    2.149   1_455 S
C208   C210    1.412   .     A
C208   C216    1.417   .     A
C208   I858    2.149   1_554 S
C209   I236    2.132   .     S
C210   I235    2.132   .     S
C211   H234    1.080   .     S
C211   C213    1.398   .     A
C212   C214    1.398   .     A
C212   H233    1.080   .     S
C213   C215    1.420   .     A
C213   C217    1.418   .     A
C214   C216    1.420   .     A
C214   C218    1.418   .     A
C215   C749    1.412   .     S
C216   C750    1.412   1_554 S
C217   C776    1.409   .     S
C218   C775    1.409   1_554 S
N219   Zn229   2.022   .     S
N220   Zn230   2.022   .     S
O221   Zn229   1.997   .     S
O222   Zn230   1.997   .     S
O223   Zn230   1.988   .     S
O224   Zn229   1.988   .     S
O225   Zn229   1.950   .     S
O226   Zn230   1.950   .     S
O227   Zn230   1.876   .     S
O228   Zn229   1.876   .     S
I237   C827    2.149   1_554 S
I238   C890    2.149   1_455 S
C249   O285    1.285   .     A
C249   C260    1.415   .     S
C249   O283    1.289   .     A
C250   O286    1.285   .     A
C250   C259    1.415   .     S
C250   O284    1.289   .     A
C251   H301    1.079   .     S
C251   C280    1.410   .     A
C251   C253    1.391   .     A
C252   H302    1.079   .     S
C252   C279    1.410   .     A
C252   C254    1.391   .     A
C253   I293    2.135   .     S
C253   C835    1.412   1_554 S
C254   I294    2.135   .     S
C254   C836    1.412   .     S
C255   H303    1.084   .     S
C255   C260    1.398   .     A
C255   C443    1.370   .     S
C256   H304    1.084   .     S
C256   C259    1.398   .     A
C257   C259    1.395   .     A
C257   H305    1.084   .     S
C258   C260    1.395   .     A
C258   H306    1.084   .     S
C258   C442    1.370   .     S
C261   I307    2.118   .     S
C261   N282    1.382   .     A
C261   C325    1.414   .     S
C262   I308    2.118   .     S
C262   N281    1.382   .     A
C263   H309    1.078   .     S
C263   N281    1.357   .     A
C264   H310    1.078   .     S
C264   N282    1.357   .     A
C264   C324    1.414   .     S
C265   C267    1.474   .     S
C265   O287    1.299   .     A
C265   O289    1.303   .     A
C266   C268    1.474   .     S
C266   O290    1.303   .     A
C266   O288    1.299   .     A
C267   C271    1.415   .     A
C267   C273    1.390   .     A
C268   C272    1.415   .     A
C268   C274    1.390   .     A
C269   C271    1.412   .     A
C269   C277    1.417   .     A
C269   I795    2.149   .     S
C270   C272    1.412   .     A
C270   C278    1.417   .     A
C270   I920    2.149   1_554 S
C271   I298    2.132   .     S
C272   I297    2.132   .     S
C273   H296    1.080   .     S
C273   C275    1.398   .     A
C274   C276    1.398   .     A
C274   H295    1.080   .     S
C275   C277    1.420   .     A
C275   C279    1.418   .     A
C276   C278    1.420   .     A
C276   C280    1.418   .     A
C277   C811    1.412   .     S
C278   C812    1.412   1_554 S
C279   C838    1.409   .     S
C280   C837    1.409   1_554 S
N281   Zn291   2.022   .     S
N282   Zn292   2.022   .     S
O283   Zn291   1.997   .     S
O284   Zn292   1.997   .     S
O285   Zn292   1.988   .     S
O286   Zn291   1.988   .     S
O287   Zn291   1.950   .     S
O288   Zn292   1.950   .     S
O289   Zn292   1.876   .     S
O290   Zn291   1.876   .     S
I299   C889    2.149   1_554 S
I300   C766    2.149   .     S
C311   O347    1.285   .     A
C311   C322    1.415   .     S
C311   O345    1.289   .     A
C312   O348    1.285   .     A
C312   C321    1.415   .     S
C312   O346    1.289   .     A
C313   H363    1.079   .     S
C313   C342    1.410   .     A
C313   C315    1.391   .     A
C314   H364    1.079   .     S
C314   C341    1.410   .     A
C314   C316    1.391   .     A
C315   I355    2.135   .     S
C315   C897    1.412   1_554 S
C316   I356    2.135   .     S
C316   C898    1.412   .     S
C317   H365    1.084   .     S
C317   C322    1.398   .     A
C317   C505    1.370   .     S
C318   H366    1.084   .     S
C318   C321    1.398   .     A
C319   C321    1.395   .     A
C319   H367    1.084   .     S
C320   C322    1.395   .     A
C320   H368    1.084   .     S
C320   C504    1.370   .     S
C323   I369    2.118   .     S
C323   N344    1.382   .     A
C323   C201    1.414   1_655 S
C324   I370    2.118   .     S
C324   N343    1.382   .     A
C325   H371    1.078   .     S
C325   N343    1.357   .     A
C326   H372    1.078   .     S
C326   N344    1.357   .     A
C326   C200    1.414   1_655 S
C327   C329    1.474   .     S
C327   O349    1.299   .     A
C327   O351    1.303   .     A
C328   C330    1.474   .     S
C328   O352    1.303   .     A
C328   O350    1.299   .     A
C329   C333    1.415   .     A
C329   C335    1.390   .     A
C330   C334    1.415   .     A
C330   C336    1.390   .     A
C331   C333    1.412   .     A
C331   C339    1.417   .     A
C331   I857    2.149   .     S
C332   C334    1.412   .     A
C332   C340    1.417   .     A
C332   I796    2.149   1_654 S
C333   I360    2.132   .     S
C334   I359    2.132   .     S
C335   H358    1.080   .     S
C335   C337    1.398   .     A
C336   C338    1.398   .     A
C336   H357    1.080   .     S
C337   C339    1.420   .     A
C337   C341    1.418   .     A
C338   C340    1.420   .     A
C338   C342    1.418   .     A
C339   C873    1.412   .     S
C340   C874    1.412   1_554 S
C341   C900    1.409   .     S
C342   C899    1.409   1_554 S
N343   Zn353   2.022   .     S
N344   Zn354   2.022   .     S
O345   Zn353   1.997   .     S
O346   Zn354   1.997   .     S
O347   Zn354   1.988   .     S
O348   Zn353   1.988   .     S
O349   Zn353   1.950   .     S
O350   Zn354   1.950   .     S
O351   Zn354   1.876   .     S
O352   Zn353   1.876   .     S
I361   C765    2.149   1_654 S
I362   C828    2.149   .     S
C373   O409    1.285   .     A
C373   C384    1.415   .     S
C373   O407    1.289   .     A
C374   O410    1.285   .     A
C374   C383    1.415   .     S
C374   O408    1.289   .     A
C375   H425    1.079   .     S
C375   C404    1.410   .     A
C375   C377    1.391   .     A
C376   H426    1.079   .     S
C376   C403    1.410   .     A
C376   C378    1.391   .     A
C377   I417    2.135   .     S
C377   C959    1.412   1_554 S
C378   I418    2.135   .     S
C378   C960    1.412   .     S
C379   H427    1.084   .     S
C379   C384    1.398   .     A
C379   C9      1.370   1_565 S
C380   H428    1.084   .     S
C380   C383    1.398   .     A
C381   C383    1.395   .     A
C381   H429    1.084   .     S
C382   C384    1.395   .     A
C382   H430    1.084   .     S
C382   C8      1.370   1_565 S
C385   I431    2.118   .     S
C385   N406    1.382   .     A
C385   C449    1.414   .     S
C386   I432    2.118   .     S
C386   N405    1.382   .     A
C386   C512    1.414   1_455 S
C387   H433    1.078   .     S
C387   N405    1.357   .     A
C387   C509    1.414   1_455 S
C388   H434    1.078   .     S
C388   N406    1.357   .     A
C388   C448    1.414   .     S
C389   C391    1.474   .     S
C389   O411    1.299   .     A
C389   O413    1.303   .     A
C390   C392    1.474   .     S
C390   O414    1.303   .     A
C390   O412    1.299   .     A
C391   C395    1.415   .     A
C391   C397    1.390   .     A
C392   C396    1.415   .     A
C392   C398    1.390   .     A
C393   C395    1.412   .     A
C393   C401    1.417   .     A
C393   I1105   2.149   1_455 S
C394   C396    1.412   .     A
C394   C402    1.417   .     A
C394   I1044   2.149   1_554 S
C395   I422    2.132   .     S
C396   I421    2.132   .     S
C397   H420    1.080   .     S
C397   C399    1.398   .     A
C398   C400    1.398   .     A
C398   H419    1.080   .     S
C399   C401    1.420   .     A
C399   C403    1.418   .     A
C400   C402    1.420   .     A
C400   C404    1.418   .     A
C401   C935    1.412   .     S
C402   C936    1.412   1_554 S
C403   C962    1.409   .     S
C404   C961    1.409   1_554 S
N405   Zn415   2.022   .     S
N406   Zn416   2.022   .     S
O407   Zn415   1.997   .     S
O408   Zn416   1.997   .     S
O409   Zn416   1.988   .     S
O410   Zn415   1.988   .     S
O411   Zn415   1.950   .     S
O412   Zn416   1.950   .     S
O413   Zn416   1.876   .     S
O414   Zn415   1.876   .     S
I423   C1013   2.149   1_554 S
I424   C1076   2.149   1_455 S
C435   O471    1.285   .     A
C435   C446    1.415   .     S
C435   O469    1.289   .     A
C436   O472    1.285   .     A
C436   C445    1.415   .     S
C436   O470    1.289   .     A
C437   H487    1.079   .     S
C437   C466    1.410   .     A
C437   C439    1.391   .     A
C438   H488    1.079   .     S
C438   C465    1.410   .     A
C438   C440    1.391   .     A
C439   I479    2.135   .     S
C439   C1021   1.412   1_554 S
C440   I480    2.135   .     S
C440   C1022   1.412   .     S
C441   H489    1.084   .     S
C441   C446    1.398   .     A
C441   C71     1.370   1_565 S
C442   H490    1.084   .     S
C442   C445    1.398   .     A
C443   C445    1.395   .     A
C443   H491    1.084   .     S
C444   C446    1.395   .     A
C444   H492    1.084   .     S
C444   C70     1.370   1_565 S
C447   I493    2.118   .     S
C447   N468    1.382   .     A
C447   C511    1.414   .     S
C448   I494    2.118   .     S
C448   N467    1.382   .     A
C449   H495    1.078   .     S
C449   N467    1.357   .     A
C450   H496    1.078   .     S
C450   N468    1.357   .     A
C450   C510    1.414   .     S
C451   C453    1.474   .     S
C451   O473    1.299   .     A
C451   O475    1.303   .     A
C452   C454    1.474   .     S
C452   O476    1.303   .     A
C452   O474    1.299   .     A
C453   C457    1.415   .     A
C453   C459    1.390   .     A
C454   C458    1.415   .     A
C454   C460    1.390   .     A
C455   C457    1.412   .     A
C455   C463    1.417   .     A
C455   I981    2.149   .     S
C456   C458    1.412   .     A
C456   C464    1.417   .     A
C456   I1106   2.149   1_554 S
C457   I484    2.132   .     S
C458   I483    2.132   .     S
C459   H482    1.080   .     S
C459   C461    1.398   .     A
C460   C462    1.398   .     A
C460   H481    1.080   .     S
C461   C463    1.420   .     A
C461   C465    1.418   .     A
C462   C464    1.420   .     A
C462   C466    1.418   .     A
C463   C997    1.412   .     S
C464   C998    1.412   1_554 S
C465   C1024   1.409   .     S
C466   C1023   1.409   1_554 S
N467   Zn477   2.022   .     S
N468   Zn478   2.022   .     S
O469   Zn477   1.997   .     S
O470   Zn478   1.997   .     S
O471   Zn478   1.988   .     S
O472   Zn477   1.988   .     S
O473   Zn477   1.950   .     S
O474   Zn478   1.950   .     S
O475   Zn478   1.876   .     S
O476   Zn477   1.876   .     S
I485   C1075   2.149   1_554 S
I486   C952    2.149   .     S
C497   O533    1.285   .     A
C497   C508    1.415   .     S
C497   O531    1.289   .     A
C498   O534    1.285   .     A
C498   C507    1.415   .     S
C498   O532    1.289   .     A
C499   H549    1.079   .     S
C499   C528    1.410   .     A
C499   C501    1.391   .     A
C500   H550    1.079   .     S
C500   C527    1.410   .     A
C500   C502    1.391   .     A
C501   I541    2.135   .     S
C501   C1083   1.412   1_554 S
C502   I542    2.135   .     S
C502   C1084   1.412   .     S
C503   H551    1.084   .     S
C503   C508    1.398   .     A
C503   C133    1.370   1_565 S
C504   H552    1.084   .     S
C504   C507    1.398   .     A
C505   C507    1.395   .     A
C505   H553    1.084   .     S
C506   C508    1.395   .     A
C506   H554    1.084   .     S
C506   C132    1.370   1_565 S
C509   I555    2.118   .     S
C509   N530    1.382   .     A
C509   C387    1.414   1_655 S
C510   I556    2.118   .     S
C510   N529    1.382   .     A
C511   H557    1.078   .     S
C511   N529    1.357   .     A
C512   H558    1.078   .     S
C512   N530    1.357   .     A
C512   C386    1.414   1_655 S
C513   C515    1.474   .     S
C513   O535    1.299   .     A
C513   O537    1.303   .     A
C514   C516    1.474   .     S
C514   O538    1.303   .     A
C514   O536    1.299   .     A
C515   C519    1.415   .     A
C515   C521    1.390   .     A
C516   C520    1.415   .     A
C516   C522    1.390   .     A
C517   C519    1.412   .     A
C517   C525    1.417   .     A
C517   I1043   2.149   .     S
C518   C520    1.412   .     A
C518   C526    1.417   .     A
C518   I982    2.149   1_654 S
C519   I546    2.132   .     S
C520   I545    2.132   .     S
C521   H544    1.080   .     S
C521   C523    1.398   .     A
C522   C524    1.398   .     A
C522   H543    1.080   .     S
C523   C525    1.420   .     A
C523   C527    1.418   .     A
C524   C526    1.420   .     A
C524   C528    1.418   .     A
C525   C1059   1.412   .     S
C526   C1060   1.412   1_554 S
C527   C1086   1.409   .     S
C528   C1085   1.409   1_554 S
N529   Zn539   2.022   .     S
N530   Zn540   2.022   .     S
O531   Zn539   1.997   .     S
O532   Zn540   1.997   .     S
O533   Zn540   1.988   .     S
O534   Zn539   1.988   .     S
O535   Zn539   1.950   .     S
O536   Zn540   1.950   .     S
O537   Zn540   1.876   .     S
O538   Zn539   1.876   .     S
I547   C951    2.149   1_654 S
I548   C1014   2.149   .     S
C559   O595    1.285   .     A
C559   C570    1.415   .     S
C559   O593    1.289   .     A
C560   O596    1.285   .     A
C560   C569    1.415   .     S
C560   O594    1.289   .     A
C561   H611    1.079   .     S
C561   C590    1.410   .     A
C561   C563    1.391   .     A
C562   H612    1.079   .     S
C562   C589    1.410   .     A
C562   C564    1.391   .     A
C563   I603    2.135   .     S
C564   I604    2.135   .     S
C564   C30     1.412   1_556 S
C565   H613    1.084   .     S
C565   C570    1.398   .     A
C565   C753    1.370   .     S
C566   H614    1.084   .     S
C566   C569    1.398   .     A
C566   C940    1.370   1_545 S
C567   C569    1.395   .     A
C567   H615    1.084   .     S
C567   C937    1.370   1_545 S
C568   C570    1.395   .     A
C568   H616    1.084   .     S
C568   C752    1.370   .     S
C571   I617    2.118   .     S
C571   N592    1.382   .     A
C571   C635    1.414   .     S
C572   I618    2.118   .     S
C572   N591    1.382   .     A
C572   C698    1.414   1_455 S
C573   H619    1.078   .     S
C573   N591    1.357   .     A
C573   C695    1.414   1_455 S
C574   H620    1.078   .     S
C574   N592    1.357   .     A
C574   C634    1.414   .     S
C575   C577    1.474   .     S
C575   O597    1.299   .     A
C575   O599    1.303   .     A
C576   C578    1.474   .     S
C576   O600    1.303   .     A
C576   O598    1.299   .     A
C577   C581    1.415   .     A
C577   C583    1.390   .     A
C578   C582    1.415   .     A
C578   C584    1.390   .     A
C579   C581    1.412   .     A
C579   C587    1.417   .     A
C579   I175    2.149   1_456 S
C580   C582    1.412   .     A
C580   C588    1.417   .     A
C581   I608    2.132   .     S
C582   I607    2.132   .     S
C583   H606    1.080   .     S
C583   C585    1.398   .     A
C584   C586    1.398   .     A
C584   H605    1.080   .     S
C585   C587    1.420   .     A
C585   C589    1.418   .     A
C586   C588    1.420   .     A
C586   C590    1.418   .     A
C587   C5      1.412   1_556 S
C589   C32     1.409   1_556 S
N591   Zn601   2.022   .     S
N592   Zn602   2.022   .     S
O593   Zn601   1.997   .     S
O594   Zn602   1.997   .     S
O595   Zn602   1.988   .     S
O596   Zn601   1.988   .     S
O597   Zn601   1.950   .     S
O598   Zn602   1.950   .     S
O599   Zn602   1.876   .     S
O600   Zn601   1.876   .     S
I610   C146    2.149   1_456 S
C621   O657    1.285   .     A
C621   C632    1.415   .     S
C621   O655    1.289   .     A
C622   O658    1.285   .     A
C622   C631    1.415   .     S
C622   O656    1.289   .     A
C623   H673    1.079   .     S
C623   C652    1.410   .     A
C623   C625    1.391   .     A
C624   H674    1.079   .     S
C624   C651    1.410   .     A
C624   C626    1.391   .     A
C625   I665    2.135   .     S
C626   I666    2.135   .     S
C626   C92     1.412   1_556 S
C627   H675    1.084   .     S
C627   C632    1.398   .     A
C627   C815    1.370   .     S
C628   H676    1.084   .     S
C628   C631    1.398   .     A
C628   C1002   1.370   1_545 S
C629   C631    1.395   .     A
C629   H677    1.084   .     S
C629   C999    1.370   1_545 S
C630   C632    1.395   .     A
C630   H678    1.084   .     S
C630   C814    1.370   .     S
C633   I679    2.118   .     S
C633   N654    1.382   .     A
C633   C697    1.414   .     S
C634   I680    2.118   .     S
C634   N653    1.382   .     A
C635   H681    1.078   .     S
C635   N653    1.357   .     A
C636   H682    1.078   .     S
C636   N654    1.357   .     A
C636   C696    1.414   .     S
C637   C639    1.474   .     S
C637   O659    1.299   .     A
C637   O661    1.303   .     A
C638   C640    1.474   .     S
C638   O662    1.303   .     A
C638   O660    1.299   .     A
C639   C643    1.415   .     A
C639   C645    1.390   .     A
C640   C644    1.415   .     A
C640   C646    1.390   .     A
C641   C643    1.412   .     A
C641   C649    1.417   .     A
C641   I51     2.149   1_556 S
C642   C644    1.412   .     A
C642   C650    1.417   .     A
C643   I670    2.132   .     S
C644   I669    2.132   .     S
C645   H668    1.080   .     S
C645   C647    1.398   .     A
C646   C648    1.398   .     A
C646   H667    1.080   .     S
C647   C649    1.420   .     A
C647   C651    1.418   .     A
C648   C650    1.420   .     A
C648   C652    1.418   .     A
C649   C67     1.412   1_556 S
C651   C94     1.409   1_556 S
N653   Zn663   2.022   .     S
N654   Zn664   2.022   .     S
O655   Zn663   1.997   .     S
O656   Zn664   1.997   .     S
O657   Zn664   1.988   .     S
O658   Zn663   1.988   .     S
O659   Zn663   1.950   .     S
O660   Zn664   1.950   .     S
O661   Zn664   1.876   .     S
O662   Zn663   1.876   .     S
I672   C22     2.149   1_556 S
C683   O719    1.285   .     A
C683   C694    1.415   .     S
C683   O717    1.289   .     A
C684   O720    1.285   .     A
C684   C693    1.415   .     S
C684   O718    1.289   .     A
C685   H735    1.079   .     S
C685   C714    1.410   .     A
C685   C687    1.391   .     A
C686   H736    1.079   .     S
C686   C713    1.410   .     A
C686   C688    1.391   .     A
C687   I727    2.135   .     S
C688   I728    2.135   .     S
C688   C154    1.412   1_556 S
C689   H737    1.084   .     S
C689   C694    1.398   .     A
C689   C877    1.370   .     S
C690   H738    1.084   .     S
C690   C693    1.398   .     A
C690   C1064   1.370   1_545 S
C691   C693    1.395   .     A
C691   H739    1.084   .     S
C691   C1061   1.370   1_545 S
C692   C694    1.395   .     A
C692   H740    1.084   .     S
C692   C876    1.370   .     S
C695   I741    2.118   .     S
C695   N716    1.382   .     A
C695   C573    1.414   1_655 S
C696   I742    2.118   .     S
C696   N715    1.382   .     A
C697   H743    1.078   .     S
C697   N715    1.357   .     A
C698   H744    1.078   .     S
C698   N716    1.357   .     A
C698   C572    1.414   1_655 S
C699   C701    1.474   .     S
C699   O721    1.299   .     A
C699   O723    1.303   .     A
C700   C702    1.474   .     S
C700   O724    1.303   .     A
C700   O722    1.299   .     A
C701   C705    1.415   .     A
C701   C707    1.390   .     A
C702   C706    1.415   .     A
C702   C708    1.390   .     A
C703   C705    1.412   .     A
C703   C711    1.417   .     A
C703   I113    2.149   1_556 S
C704   C706    1.412   .     A
C704   C712    1.417   .     A
C704   I52     2.149   1_655 S
C705   I732    2.132   .     S
C706   I731    2.132   .     S
C707   H730    1.080   .     S
C707   C709    1.398   .     A
C708   C710    1.398   .     A
C708   H729    1.080   .     S
C709   C711    1.420   .     A
C709   C713    1.418   .     A
C710   C712    1.420   .     A
C710   C714    1.418   .     A
C711   C129    1.412   1_556 S
C713   C156    1.409   1_556 S
N715   Zn725   2.022   .     S
N716   Zn726   2.022   .     S
O717   Zn725   1.997   .     S
O718   Zn726   1.997   .     S
O719   Zn726   1.988   .     S
O720   Zn725   1.988   .     S
O721   Zn725   1.950   .     S
O722   Zn726   1.950   .     S
O723   Zn726   1.876   .     S
O724   Zn725   1.876   .     S
I733   C21     2.149   1_655 S
I734   C84     2.149   1_556 S
C745   O781    1.285   .     A
C745   C756    1.415   .     S
C745   O779    1.289   .     A
C746   O782    1.285   .     A
C746   C755    1.415   .     S
C746   O780    1.289   .     A
C747   H797    1.079   .     S
C747   C776    1.410   .     A
C747   C749    1.391   .     A
C748   H798    1.079   .     S
C748   C775    1.410   .     A
C748   C750    1.391   .     A
C749   I789    2.135   .     S
C750   I790    2.135   .     S
C750   C216    1.412   1_556 S
C751   H799    1.084   .     S
C751   C756    1.398   .     A
C751   C939    1.370   .     S
C752   H800    1.084   .     S
C752   C755    1.398   .     A
C753   C755    1.395   .     A
C753   H801    1.084   .     S
C754   C756    1.395   .     A
C754   H802    1.084   .     S
C754   C938    1.370   .     S
C757   I803    2.118   .     S
C757   N778    1.382   .     A
C757   C821    1.414   .     S
C758   I804    2.118   .     S
C758   N777    1.382   .     A
C758   C884    1.414   1_455 S
C759   H805    1.078   .     S
C759   N777    1.357   .     A
C759   C881    1.414   1_455 S
C760   H806    1.078   .     S
C760   N778    1.357   .     A
C760   C820    1.414   .     S
C761   C763    1.474   .     S
C761   O783    1.299   .     A
C761   O785    1.303   .     A
C762   C764    1.474   .     S
C762   O786    1.303   .     A
C762   O784    1.299   .     A
C763   C767    1.415   .     A
C763   C769    1.390   .     A
C764   C768    1.415   .     A
C764   C770    1.390   .     A
C765   C767    1.412   .     A
C765   C773    1.417   .     A
C765   I361    2.149   1_456 S
C766   C768    1.412   .     A
C766   C774    1.417   .     A
C767   I794    2.132   .     S
C768   I793    2.132   .     S
C769   H792    1.080   .     S
C769   C771    1.398   .     A
C770   C772    1.398   .     A
C770   H791    1.080   .     S
C771   C773    1.420   .     A
C771   C775    1.418   .     A
C772   C774    1.420   .     A
C772   C776    1.418   .     A
C773   C191    1.412   1_556 S
C775   C218    1.409   1_556 S
N777   Zn787   2.022   .     S
N778   Zn788   2.022   .     S
O779   Zn787   1.997   .     S
O780   Zn788   1.997   .     S
O781   Zn788   1.988   .     S
O782   Zn787   1.988   .     S
O783   Zn787   1.950   .     S
O784   Zn788   1.950   .     S
O785   Zn788   1.876   .     S
O786   Zn787   1.876   .     S
I796   C332    2.149   1_456 S
C807   O843    1.285   .     A
C807   C818    1.415   .     S
C807   O841    1.289   .     A
C808   O844    1.285   .     A
C808   C817    1.415   .     S
C808   O842    1.289   .     A
C809   H859    1.079   .     S
C809   C838    1.410   .     A
C809   C811    1.391   .     A
C810   H860    1.079   .     S
C810   C837    1.410   .     A
C810   C812    1.391   .     A
C811   I851    2.135   .     S
C812   I852    2.135   .     S
C812   C278    1.412   1_556 S
C813   H861    1.084   .     S
C813   C818    1.398   .     A
C813   C1001   1.370   .     S
C814   H862    1.084   .     S
C814   C817    1.398   .     A
C815   C817    1.395   .     A
C815   H863    1.084   .     S
C816   C818    1.395   .     A
C816   H864    1.084   .     S
C816   C1000   1.370   .     S
C819   I865    2.118   .     S
C819   N840    1.382   .     A
C819   C883    1.414   .     S
C820   I866    2.118   .     S
C820   N839    1.382   .     A
C821   H867    1.078   .     S
C821   N839    1.357   .     A
C822   H868    1.078   .     S
C822   N840    1.357   .     A
C822   C882    1.414   .     S
C823   C825    1.474   .     S
C823   O845    1.299   .     A
C823   O847    1.303   .     A
C824   C826    1.474   .     S
C824   O848    1.303   .     A
C824   O846    1.299   .     A
C825   C829    1.415   .     A
C825   C831    1.390   .     A
C826   C830    1.415   .     A
C826   C832    1.390   .     A
C827   C829    1.412   .     A
C827   C835    1.417   .     A
C827   I237    2.149   1_556 S
C828   C830    1.412   .     A
C828   C836    1.417   .     A
C829   I856    2.132   .     S
C830   I855    2.132   .     S
C831   H854    1.080   .     S
C831   C833    1.398   .     A
C832   C834    1.398   .     A
C832   H853    1.080   .     S
C833   C835    1.420   .     A
C833   C837    1.418   .     A
C834   C836    1.420   .     A
C834   C838    1.418   .     A
C835   C253    1.412   1_556 S
C837   C280    1.409   1_556 S
N839   Zn849   2.022   .     S
N840   Zn850   2.022   .     S
O841   Zn849   1.997   .     S
O842   Zn850   1.997   .     S
O843   Zn850   1.988   .     S
O844   Zn849   1.988   .     S
O845   Zn849   1.950   .     S
O846   Zn850   1.950   .     S
O847   Zn850   1.876   .     S
O848   Zn849   1.876   .     S
I858   C208    2.149   1_556 S
C869   O905    1.285   .     A
C869   C880    1.415   .     S
C869   O903    1.289   .     A
C870   O906    1.285   .     A
C870   C879    1.415   .     S
C870   O904    1.289   .     A
C871   H921    1.079   .     S
C871   C900    1.410   .     A
C871   C873    1.391   .     A
C872   H922    1.079   .     S
C872   C899    1.410   .     A
C872   C874    1.391   .     A
C873   I913    2.135   .     S
C874   I914    2.135   .     S
C874   C340    1.412   1_556 S
C875   H923    1.084   .     S
C875   C880    1.398   .     A
C875   C1063   1.370   .     S
C876   H924    1.084   .     S
C876   C879    1.398   .     A
C877   C879    1.395   .     A
C877   H925    1.084   .     S
C878   C880    1.395   .     A
C878   H926    1.084   .     S
C878   C1062   1.370   .     S
C881   I927    2.118   .     S
C881   N902    1.382   .     A
C881   C759    1.414   1_655 S
C882   I928    2.118   .     S
C882   N901    1.382   .     A
C883   H929    1.078   .     S
C883   N901    1.357   .     A
C884   H930    1.078   .     S
C884   N902    1.357   .     A
C884   C758    1.414   1_655 S
C885   C887    1.474   .     S
C885   O907    1.299   .     A
C885   O909    1.303   .     A
C886   C888    1.474   .     S
C886   O910    1.303   .     A
C886   O908    1.299   .     A
C887   C891    1.415   .     A
C887   C893    1.390   .     A
C888   C892    1.415   .     A
C888   C894    1.390   .     A
C889   C891    1.412   .     A
C889   C897    1.417   .     A
C889   I299    2.149   1_556 S
C890   C892    1.412   .     A
C890   C898    1.417   .     A
C890   I238    2.149   1_655 S
C891   I918    2.132   .     S
C892   I917    2.132   .     S
C893   H916    1.080   .     S
C893   C895    1.398   .     A
C894   C896    1.398   .     A
C894   H915    1.080   .     S
C895   C897    1.420   .     A
C895   C899    1.418   .     A
C896   C898    1.420   .     A
C896   C900    1.418   .     A
C897   C315    1.412   1_556 S
C899   C342    1.409   1_556 S
N901   Zn911   2.022   .     S
N902   Zn912   2.022   .     S
O903   Zn911   1.997   .     S
O904   Zn912   1.997   .     S
O905   Zn912   1.988   .     S
O906   Zn911   1.988   .     S
O907   Zn911   1.950   .     S
O908   Zn912   1.950   .     S
O909   Zn912   1.876   .     S
O910   Zn911   1.876   .     S
I919   C207    2.149   1_655 S
I920   C270    2.149   1_556 S
C931   O967    1.285   .     A
C931   C942    1.415   .     S
C931   O965    1.289   .     A
C932   O968    1.285   .     A
C932   C941    1.415   .     S
C932   O966    1.289   .     A
C933   H983    1.079   .     S
C933   C962    1.410   .     A
C933   C935    1.391   .     A
C934   H984    1.079   .     S
C934   C961    1.410   .     A
C934   C936    1.391   .     A
C935   I975    2.135   .     S
C936   I976    2.135   .     S
C936   C402    1.412   1_556 S
C937   H985    1.084   .     S
C937   C942    1.398   .     A
C937   C567    1.370   1_565 S
C938   H986    1.084   .     S
C938   C941    1.398   .     A
C939   C941    1.395   .     A
C939   H987    1.084   .     S
C940   C942    1.395   .     A
C940   H988    1.084   .     S
C940   C566    1.370   1_565 S
C943   I989    2.118   .     S
C943   N964    1.382   .     A
C943   C1007   1.414   .     S
C944   I990    2.118   .     S
C944   N963    1.382   .     A
C944   C1070   1.414   1_455 S
C945   H991    1.078   .     S
C945   N963    1.357   .     A
C945   C1067   1.414   1_455 S
C946   H992    1.078   .     S
C946   N964    1.357   .     A
C946   C1006   1.414   .     S
C947   C949    1.474   .     S
C947   O969    1.299   .     A
C947   O971    1.303   .     A
C948   C950    1.474   .     S
C948   O972    1.303   .     A
C948   O970    1.299   .     A
C949   C953    1.415   .     A
C949   C955    1.390   .     A
C950   C954    1.415   .     A
C950   C956    1.390   .     A
C951   C953    1.412   .     A
C951   C959    1.417   .     A
C951   I547    2.149   1_456 S
C952   C954    1.412   .     A
C952   C960    1.417   .     A
C953   I980    2.132   .     S
C954   I979    2.132   .     S
C955   H978    1.080   .     S
C955   C957    1.398   .     A
C956   C958    1.398   .     A
C956   H977    1.080   .     S
C957   C959    1.420   .     A
C957   C961    1.418   .     A
C958   C960    1.420   .     A
C958   C962    1.418   .     A
C959   C377    1.412   1_556 S
C961   C404    1.409   1_556 S
N963   Zn973   2.022   .     S
N964   Zn974   2.022   .     S
O965   Zn973   1.997   .     S
O966   Zn974   1.997   .     S
O967   Zn974   1.988   .     S
O968   Zn973   1.988   .     S
O969   Zn973   1.950   .     S
O970   Zn974   1.950   .     S
O971   Zn974   1.876   .     S
O972   Zn973   1.876   .     S
I982   C518    2.149   1_456 S
C993   O1029   1.285   .     A
C993   C1004   1.415   .     S
C993   O1027   1.289   .     A
C994   O1030   1.285   .     A
C994   C1003   1.415   .     S
C994   O1028   1.289   .     A
C995   H1045   1.079   .     S
C995   C1024   1.410   .     A
C995   C997    1.391   .     A
C996   H1046   1.079   .     S
C996   C1023   1.410   .     A
C996   C998    1.391   .     A
C997   I1037   2.135   .     S
C998   I1038   2.135   .     S
C998   C464    1.412   1_556 S
C999   H1047   1.084   .     S
C999   C1004   1.398   .     A
C999   C629    1.370   1_565 S
C1000  H1048   1.084   .     S
C1000  C1003   1.398   .     A
C1001  C1003   1.395   .     A
C1001  H1049   1.084   .     S
C1002  C1004   1.395   .     A
C1002  H1050   1.084   .     S
C1002  C628    1.370   1_565 S
C1005  I1051   2.118   .     S
C1005  N1026   1.382   .     A
C1005  C1069   1.414   .     S
C1006  I1052   2.118   .     S
C1006  N1025   1.382   .     A
C1007  H1053   1.078   .     S
C1007  N1025   1.357   .     A
C1008  H1054   1.078   .     S
C1008  N1026   1.357   .     A
C1008  C1068   1.414   .     S
C1009  C1011   1.474   .     S
C1009  O1031   1.299   .     A
C1009  O1033   1.303   .     A
C1010  C1012   1.474   .     S
C1010  O1034   1.303   .     A
C1010  O1032   1.299   .     A
C1011  C1015   1.415   .     A
C1011  C1017   1.390   .     A
C1012  C1016   1.415   .     A
C1012  C1018   1.390   .     A
C1013  C1015   1.412   .     A
C1013  C1021   1.417   .     A
C1013  I423    2.149   1_556 S
C1014  C1016   1.412   .     A
C1014  C1022   1.417   .     A
C1015  I1042   2.132   .     S
C1016  I1041   2.132   .     S
C1017  H1040   1.080   .     S
C1017  C1019   1.398   .     A
C1018  C1020   1.398   .     A
C1018  H1039   1.080   .     S
C1019  C1021   1.420   .     A
C1019  C1023   1.418   .     A
C1020  C1022   1.420   .     A
C1020  C1024   1.418   .     A
C1021  C439    1.412   1_556 S
C1023  C466    1.409   1_556 S
N1025  Zn1035  2.022   .     S
N1026  Zn1036  2.022   .     S
O1027  Zn1035  1.997   .     S
O1028  Zn1036  1.997   .     S
O1029  Zn1036  1.988   .     S
O1030  Zn1035  1.988   .     S
O1031  Zn1035  1.950   .     S
O1032  Zn1036  1.950   .     S
O1033  Zn1036  1.876   .     S
O1034  Zn1035  1.876   .     S
I1044  C394    2.149   1_556 S
C1055  O1091   1.285   .     A
C1055  C1066   1.415   .     S
C1055  O1089   1.289   .     A
C1056  O1092   1.285   .     A
C1056  C1065   1.415   .     S
C1056  O1090   1.289   .     A
C1057  H1107   1.079   .     S
C1057  C1086   1.410   .     A
C1057  C1059   1.391   .     A
C1058  H1108   1.079   .     S
C1058  C1085   1.410   .     A
C1058  C1060   1.391   .     A
C1059  I1099   2.135   .     S
C1060  I1100   2.135   .     S
C1060  C526    1.412   1_556 S
C1061  H1109   1.084   .     S
C1061  C1066   1.398   .     A
C1061  C691    1.370   1_565 S
C1062  H1110   1.084   .     S
C1062  C1065   1.398   .     A
C1063  C1065   1.395   .     A
C1063  H1111   1.084   .     S
C1064  C1066   1.395   .     A
C1064  H1112   1.084   .     S
C1064  C690    1.370   1_565 S
C1067  I1113   2.118   .     S
C1067  N1088   1.382   .     A
C1067  C945    1.414   1_655 S
C1068  I1114   2.118   .     S
C1068  N1087   1.382   .     A
C1069  H1115   1.078   .     S
C1069  N1087   1.357   .     A
C1070  H1116   1.078   .     S
C1070  N1088   1.357   .     A
C1070  C944    1.414   1_655 S
C1071  C1073   1.474   .     S
C1071  O1093   1.299   .     A
C1071  O1095   1.303   .     A
C1072  C1074   1.474   .     S
C1072  O1096   1.303   .     A
C1072  O1094   1.299   .     A
C1073  C1077   1.415   .     A
C1073  C1079   1.390   .     A
C1074  C1078   1.415   .     A
C1074  C1080   1.390   .     A
C1075  C1077   1.412   .     A
C1075  C1083   1.417   .     A
C1075  I485    2.149   1_556 S
C1076  C1078   1.412   .     A
C1076  C1084   1.417   .     A
C1076  I424    2.149   1_655 S
C1077  I1104   2.132   .     S
C1078  I1103   2.132   .     S
C1079  H1102   1.080   .     S
C1079  C1081   1.398   .     A
C1080  C1082   1.398   .     A
C1080  H1101   1.080   .     S
C1081  C1083   1.420   .     A
C1081  C1085   1.418   .     A
C1082  C1084   1.420   .     A
C1082  C1086   1.418   .     A
C1083  C501    1.412   1_556 S
C1085  C528    1.409   1_556 S
N1087  Zn1097  2.022   .     S
N1088  Zn1098  2.022   .     S
O1089  Zn1097  1.997   .     S
O1090  Zn1098  1.997   .     S
O1091  Zn1098  1.988   .     S
O1092  Zn1097  1.988   .     S
O1093  Zn1097  1.950   .     S
O1094  Zn1098  1.950   .     S
O1095  Zn1098  1.876   .     S
O1096  Zn1097  1.876   .     S
I1105  C393    2.149   1_655 S
I1106  C456    2.149   1_556 S
