data_str_m3_o10_o16_pcu_sym.78
_audit_creation_date              2020-01-03
_audit_creation_method            'Materials Studio'
_symmetry_space_group_name_H-M    'P1'
_symmetry_Int_Tables_number       1
_symmetry_cell_setting            triclinic
loop_
_symmetry_equiv_pos_as_xyz
  x,y,z
_cell_length_a                    23.4504
_cell_length_b                    25.5963
_cell_length_c                    24.0491
_cell_angle_alpha                 91.6110
_cell_angle_beta                  101.3916
_cell_angle_gamma                 93.7671
loop_
_atom_site_label
_atom_site_type_symbol
_atom_site_fract_x
_atom_site_fract_y
_atom_site_fract_z
_atom_site_U_iso_or_equiv
_atom_site_adp_type
_atom_site_occupancy
C1     C     0.01309   0.26444   0.24350   0.00000  Uiso   1.00
C2     C     0.05338   0.17566   0.41687   0.00000  Uiso   1.00
C3     C     0.01839   0.31873   0.23548   0.00000  Uiso   1.00
C4     C     0.03575   0.17001   0.35546   0.00000  Uiso   1.00
C5     C     0.30492   0.01394   0.23196   0.00000  Uiso   1.00
C6     C     0.31692   0.06837   0.24609   0.00000  Uiso   1.00
C7     C     0.29721   0.16207   0.14437   0.00000  Uiso   1.00
C8     C     0.25174   0.07733   0.01284   0.00000  Uiso   1.00
C9     C     0.27578   0.14766   0.08440   0.00000  Uiso   1.00
C10    C     0.03423   0.21812   0.44398   0.00000  Uiso   1.00
C11    C     0.05741   0.23067   0.00053   0.00000  Uiso   1.00
C12    C     0.12802   0.16444   0.49953   0.00000  Uiso   1.00
C13    C     0.10418   0.20441   0.02953   0.00000  Uiso   1.00
C14    C     0.00982   0.07330   0.08339   0.00000  Uiso   1.00
C15    C     0.24296   0.32665   0.21007   0.00000  Uiso   1.00
C16    C     0.16813   0.01872   0.42595   0.00000  Uiso   1.00
C17    C     0.11907   0.21451   0.09201   0.00000  Uiso   1.00
C18    C     0.05593   0.06148   0.38736   0.00000  Uiso   1.00
C19    C     0.09463   0.14405   0.44721   0.00000  Uiso   1.00
C20    C     0.18350   0.14466   0.01764   0.00000  Uiso   1.00
C21    C     0.19756   0.09765   0.49219   0.00000  Uiso   1.00
C22    C     0.15652   0.07076   0.44831   0.00000  Uiso   1.00
C23    C     0.10386   0.09335   0.42656   0.00000  Uiso   1.00
C24    C     0.22666   0.17189   0.05846   0.00000  Uiso   1.00
C25    C     0.29021   0.10069   0.05994   0.00000  Uiso   1.00
H26    H     0.22056   0.21062   0.07425   0.00000  Uiso   1.00
H27    H     0.03879   0.26145   0.02141   0.00000  Uiso   1.00
H28    H     0.32633   0.08263   0.42846   0.00000  Uiso   1.00
H29    H     0.06297   0.00271   0.24252   0.00000  Uiso   1.00
H30    H     0.29890   0.00254   0.08181   0.00000  Uiso   1.00
H31    H     0.26291   0.28207   0.14671   0.00000  Uiso   1.00
H32    H     0.15701   0.12322   0.21054   0.00000  Uiso   1.00
H33    H     0.17644   0.20941   0.29039   0.00000  Uiso   1.00
H34    H     0.15147   0.27371   0.42406   0.00000  Uiso   1.00
H35    H     0.26368   0.04177   0.49405   0.00000  Uiso   1.00
H36    H     0.00140   0.24185   0.42120   0.00000  Uiso   1.00
H37    H     0.11529   0.26274   0.15890   0.00000  Uiso   1.00
N38    N     0.14493   0.15223   0.23543   0.00000  Uiso   1.00
N39    N     0.18840   0.18110   0.26458   0.00000  Uiso   1.00
O40    O     0.29769   0.24629   0.25358   0.00000  Uiso   1.00
O41    O     0.00681   0.01929   0.09098   0.00000  Uiso   1.00
O42    O     0.20408   0.00836   0.23227   0.00000  Uiso   1.00
O43    O     0.22832   0.29085   0.16364   0.00000  Uiso   1.00
O44    O     0.20188   0.01577   0.39338   0.00000  Uiso   1.00
O45    O     0.14011   0.30677   0.44203   0.00000  Uiso   1.00
O46    O     0.13984   0.18074   0.12294   0.00000  Uiso   1.00
O47    O     0.10583   0.26159   0.11588   0.00000  Uiso   1.00
O48    O     0.06729   0.03341   0.34987   0.00000  Uiso   1.00
O49    O     0.33120   0.06185   0.39349   0.00000  Uiso   1.00
O50    O     0.05742   0.23704   0.24423   0.00000  Uiso   1.00
O51    O     0.31490   0.17358   0.33380   0.00000  Uiso   1.00
O52    O     0.07463   0.16433   0.32446   0.00000  Uiso   1.00
O53    O     0.27592   0.09629   0.25577   0.00000  Uiso   1.00
O54    O     0.03565   0.08704   0.24642   0.00000  Uiso   1.00
O55    O     0.25870   0.16901   0.17554   0.00000  Uiso   1.00
O56    O     0.01843   0.15976   0.16620   0.00000  Uiso   1.00
O57    O     0.05740   0.09757   0.09409   0.00000  Uiso   1.00
Zn58   Zn    0.27119   0.17284   0.25624   0.00000  Uiso   1.00
Zn59   Zn    0.06214   0.16049   0.24376   0.00000  Uiso   1.00
C60    C     0.34642   0.26444   0.24350   0.00000  Uiso   1.00
C61    C     0.38671   0.17566   0.41687   0.00000  Uiso   1.00
C62    C     0.35172   0.31873   0.23548   0.00000  Uiso   1.00
C63    C     0.36908   0.17001   0.35546   0.00000  Uiso   1.00
C64    C     0.63825   0.01394   0.23196   0.00000  Uiso   1.00
C65    C     0.65026   0.06837   0.24609   0.00000  Uiso   1.00
C66    C     0.63055   0.16207   0.14437   0.00000  Uiso   1.00
C67    C     0.58507   0.07733   0.01284   0.00000  Uiso   1.00
C68    C     0.60911   0.14766   0.08440   0.00000  Uiso   1.00
C69    C     0.36756   0.21812   0.44398   0.00000  Uiso   1.00
C70    C     0.39075   0.23067   0.00053   0.00000  Uiso   1.00
C71    C     0.46135   0.16444   0.49953   0.00000  Uiso   1.00
C72    C     0.43751   0.20441   0.02953   0.00000  Uiso   1.00
C73    C     0.34315   0.07330   0.08339   0.00000  Uiso   1.00
C74    C     0.57630   0.32665   0.21007   0.00000  Uiso   1.00
C75    C     0.50146   0.01872   0.42595   0.00000  Uiso   1.00
C76    C     0.45240   0.21451   0.09201   0.00000  Uiso   1.00
C77    C     0.38927   0.06148   0.38736   0.00000  Uiso   1.00
C78    C     0.42797   0.14405   0.44721   0.00000  Uiso   1.00
C79    C     0.51683   0.14466   0.01764   0.00000  Uiso   1.00
C80    C     0.53089   0.09765   0.49219   0.00000  Uiso   1.00
C81    C     0.48985   0.07076   0.44831   0.00000  Uiso   1.00
C82    C     0.43719   0.09335   0.42656   0.00000  Uiso   1.00
C83    C     0.55999   0.17189   0.05846   0.00000  Uiso   1.00
C84    C     0.62354   0.10069   0.05994   0.00000  Uiso   1.00
H85    H     0.55389   0.21062   0.07425   0.00000  Uiso   1.00
H86    H     0.37212   0.26145   0.02141   0.00000  Uiso   1.00
H87    H     0.65966   0.08263   0.42846   0.00000  Uiso   1.00
H88    H     0.39630   0.00271   0.24252   0.00000  Uiso   1.00
H89    H     0.63223   0.00254   0.08181   0.00000  Uiso   1.00
H90    H     0.59624   0.28207   0.14671   0.00000  Uiso   1.00
H91    H     0.49035   0.12322   0.21054   0.00000  Uiso   1.00
H92    H     0.50977   0.20941   0.29039   0.00000  Uiso   1.00
H93    H     0.48480   0.27371   0.42406   0.00000  Uiso   1.00
H94    H     0.59701   0.04177   0.49405   0.00000  Uiso   1.00
H95    H     0.33473   0.24185   0.42120   0.00000  Uiso   1.00
H96    H     0.44862   0.26274   0.15890   0.00000  Uiso   1.00
N97    N     0.47827   0.15223   0.23543   0.00000  Uiso   1.00
N98    N     0.52173   0.18110   0.26458   0.00000  Uiso   1.00
O99    O     0.63102   0.24629   0.25358   0.00000  Uiso   1.00
O100   O     0.34014   0.01929   0.09098   0.00000  Uiso   1.00
O101   O     0.53741   0.00836   0.23227   0.00000  Uiso   1.00
O102   O     0.56165   0.29085   0.16364   0.00000  Uiso   1.00
O103   O     0.53522   0.01577   0.39338   0.00000  Uiso   1.00
O104   O     0.47345   0.30677   0.44203   0.00000  Uiso   1.00
O105   O     0.47318   0.18074   0.12294   0.00000  Uiso   1.00
O106   O     0.43916   0.26159   0.11588   0.00000  Uiso   1.00
O107   O     0.40063   0.03341   0.34987   0.00000  Uiso   1.00
O108   O     0.66454   0.06185   0.39349   0.00000  Uiso   1.00
O109   O     0.39075   0.23704   0.24423   0.00000  Uiso   1.00
O110   O     0.64823   0.17358   0.33380   0.00000  Uiso   1.00
O111   O     0.40796   0.16433   0.32446   0.00000  Uiso   1.00
O112   O     0.60925   0.09629   0.25577   0.00000  Uiso   1.00
O113   O     0.36898   0.08704   0.24642   0.00000  Uiso   1.00
O114   O     0.59204   0.16901   0.17554   0.00000  Uiso   1.00
O115   O     0.35177   0.15976   0.16620   0.00000  Uiso   1.00
O116   O     0.39073   0.09757   0.09409   0.00000  Uiso   1.00
Zn117  Zn    0.60453   0.17284   0.25624   0.00000  Uiso   1.00
Zn118  Zn    0.39547   0.16049   0.24376   0.00000  Uiso   1.00
C119   C     0.67976   0.26444   0.24350   0.00000  Uiso   1.00
C120   C     0.72005   0.17566   0.41687   0.00000  Uiso   1.00
C121   C     0.68506   0.31873   0.23548   0.00000  Uiso   1.00
C122   C     0.70241   0.17001   0.35546   0.00000  Uiso   1.00
C123   C     0.97159   0.01394   0.23196   0.00000  Uiso   1.00
C124   C     0.98359   0.06837   0.24609   0.00000  Uiso   1.00
C125   C     0.96388   0.16207   0.14437   0.00000  Uiso   1.00
C126   C     0.91840   0.07733   0.01284   0.00000  Uiso   1.00
C127   C     0.94244   0.14766   0.08440   0.00000  Uiso   1.00
C128   C     0.70090   0.21812   0.44398   0.00000  Uiso   1.00
C129   C     0.72408   0.23067   0.00053   0.00000  Uiso   1.00
C130   C     0.79468   0.16444   0.49953   0.00000  Uiso   1.00
C131   C     0.77085   0.20441   0.02953   0.00000  Uiso   1.00
C132   C     0.67648   0.07330   0.08339   0.00000  Uiso   1.00
C133   C     0.90963   0.32665   0.21007   0.00000  Uiso   1.00
C134   C     0.83480   0.01872   0.42595   0.00000  Uiso   1.00
C135   C     0.78573   0.21451   0.09201   0.00000  Uiso   1.00
C136   C     0.72260   0.06148   0.38736   0.00000  Uiso   1.00
C137   C     0.76130   0.14405   0.44721   0.00000  Uiso   1.00
C138   C     0.85016   0.14466   0.01764   0.00000  Uiso   1.00
C139   C     0.86422   0.09765   0.49219   0.00000  Uiso   1.00
C140   C     0.82319   0.07076   0.44831   0.00000  Uiso   1.00
C141   C     0.77053   0.09335   0.42656   0.00000  Uiso   1.00
C142   C     0.89332   0.17189   0.05846   0.00000  Uiso   1.00
C143   C     0.95688   0.10069   0.05994   0.00000  Uiso   1.00
H144   H     0.88723   0.21062   0.07425   0.00000  Uiso   1.00
H145   H     0.70545   0.26145   0.02141   0.00000  Uiso   1.00
H146   H     0.99300   0.08263   0.42846   0.00000  Uiso   1.00
H147   H     0.72964   0.00271   0.24252   0.00000  Uiso   1.00
H148   H     0.96557   0.00254   0.08181   0.00000  Uiso   1.00
H149   H     0.92957   0.28207   0.14671   0.00000  Uiso   1.00
H150   H     0.82368   0.12322   0.21054   0.00000  Uiso   1.00
H151   H     0.84310   0.20941   0.29039   0.00000  Uiso   1.00
H152   H     0.81814   0.27371   0.42406   0.00000  Uiso   1.00
H153   H     0.93035   0.04177   0.49405   0.00000  Uiso   1.00
H154   H     0.66806   0.24185   0.42120   0.00000  Uiso   1.00
H155   H     0.78196   0.26274   0.15890   0.00000  Uiso   1.00
N156   N     0.81160   0.15223   0.23543   0.00000  Uiso   1.00
N157   N     0.85507   0.18110   0.26458   0.00000  Uiso   1.00
O158   O     0.96435   0.24629   0.25358   0.00000  Uiso   1.00
O159   O     0.67348   0.01929   0.09098   0.00000  Uiso   1.00
O160   O     0.87075   0.00836   0.23227   0.00000  Uiso   1.00
O161   O     0.89498   0.29085   0.16364   0.00000  Uiso   1.00
O162   O     0.86855   0.01577   0.39338   0.00000  Uiso   1.00
O163   O     0.80678   0.30677   0.44203   0.00000  Uiso   1.00
O164   O     0.80651   0.18074   0.12294   0.00000  Uiso   1.00
O165   O     0.77249   0.26159   0.11588   0.00000  Uiso   1.00
O166   O     0.73396   0.03341   0.34987   0.00000  Uiso   1.00
O167   O     0.99787   0.06185   0.39349   0.00000  Uiso   1.00
O168   O     0.72408   0.23704   0.24423   0.00000  Uiso   1.00
O169   O     0.98157   0.17358   0.33380   0.00000  Uiso   1.00
O170   O     0.74130   0.16433   0.32446   0.00000  Uiso   1.00
O171   O     0.94258   0.09629   0.25577   0.00000  Uiso   1.00
O172   O     0.70231   0.08704   0.24642   0.00000  Uiso   1.00
O173   O     0.92537   0.16901   0.17554   0.00000  Uiso   1.00
O174   O     0.68510   0.15976   0.16620   0.00000  Uiso   1.00
O175   O     0.72406   0.09757   0.09409   0.00000  Uiso   1.00
Zn176  Zn    0.93786   0.17284   0.25624   0.00000  Uiso   1.00
Zn177  Zn    0.72881   0.16049   0.24376   0.00000  Uiso   1.00
C178   C     0.01309   0.59778   0.24350   0.00000  Uiso   1.00
C179   C     0.05338   0.50899   0.41687   0.00000  Uiso   1.00
C180   C     0.01839   0.65207   0.23548   0.00000  Uiso   1.00
C181   C     0.03575   0.50335   0.35546   0.00000  Uiso   1.00
C182   C     0.30492   0.34728   0.23196   0.00000  Uiso   1.00
C183   C     0.31692   0.40171   0.24609   0.00000  Uiso   1.00
C184   C     0.29721   0.49540   0.14437   0.00000  Uiso   1.00
C185   C     0.25174   0.41066   0.01284   0.00000  Uiso   1.00
C186   C     0.27578   0.48099   0.08440   0.00000  Uiso   1.00
C187   C     0.03423   0.55145   0.44398   0.00000  Uiso   1.00
C188   C     0.05741   0.56400   0.00053   0.00000  Uiso   1.00
C189   C     0.12802   0.49778   0.49953   0.00000  Uiso   1.00
C190   C     0.10418   0.53774   0.02953   0.00000  Uiso   1.00
C191   C     0.00982   0.40663   0.08339   0.00000  Uiso   1.00
C192   C     0.24296   0.65999   0.21007   0.00000  Uiso   1.00
C193   C     0.16813   0.35206   0.42595   0.00000  Uiso   1.00
C194   C     0.11907   0.54784   0.09201   0.00000  Uiso   1.00
C195   C     0.05593   0.39482   0.38736   0.00000  Uiso   1.00
C196   C     0.09463   0.47738   0.44721   0.00000  Uiso   1.00
C197   C     0.18350   0.47799   0.01764   0.00000  Uiso   1.00
C198   C     0.19756   0.43098   0.49219   0.00000  Uiso   1.00
C199   C     0.15652   0.40410   0.44831   0.00000  Uiso   1.00
C200   C     0.10386   0.42668   0.42656   0.00000  Uiso   1.00
C201   C     0.22666   0.50523   0.05846   0.00000  Uiso   1.00
C202   C     0.29021   0.43403   0.05994   0.00000  Uiso   1.00
H203   H     0.22056   0.54395   0.07425   0.00000  Uiso   1.00
H204   H     0.03879   0.59479   0.02141   0.00000  Uiso   1.00
H205   H     0.32633   0.41597   0.42846   0.00000  Uiso   1.00
H206   H     0.06297   0.33604   0.24252   0.00000  Uiso   1.00
H207   H     0.29890   0.33587   0.08181   0.00000  Uiso   1.00
H208   H     0.26291   0.61541   0.14671   0.00000  Uiso   1.00
H209   H     0.15701   0.45655   0.21054   0.00000  Uiso   1.00
H210   H     0.17644   0.54275   0.29039   0.00000  Uiso   1.00
H211   H     0.15147   0.60705   0.42406   0.00000  Uiso   1.00
H212   H     0.26368   0.37511   0.49405   0.00000  Uiso   1.00
H213   H     0.00140   0.57518   0.42120   0.00000  Uiso   1.00
H214   H     0.11529   0.59607   0.15890   0.00000  Uiso   1.00
N215   N     0.14493   0.48556   0.23543   0.00000  Uiso   1.00
N216   N     0.18840   0.51444   0.26458   0.00000  Uiso   1.00
O217   O     0.29769   0.57963   0.25358   0.00000  Uiso   1.00
O218   O     0.00681   0.35263   0.09098   0.00000  Uiso   1.00
O219   O     0.20408   0.34169   0.23227   0.00000  Uiso   1.00
O220   O     0.22832   0.62419   0.16364   0.00000  Uiso   1.00
O221   O     0.20188   0.34911   0.39338   0.00000  Uiso   1.00
O222   O     0.14011   0.64011   0.44203   0.00000  Uiso   1.00
O223   O     0.13984   0.51408   0.12294   0.00000  Uiso   1.00
O224   O     0.10583   0.59492   0.11588   0.00000  Uiso   1.00
O225   O     0.06729   0.36674   0.34987   0.00000  Uiso   1.00
O226   O     0.33120   0.39518   0.39349   0.00000  Uiso   1.00
O227   O     0.05742   0.57038   0.24423   0.00000  Uiso   1.00
O228   O     0.31490   0.50691   0.33380   0.00000  Uiso   1.00
O229   O     0.07463   0.49766   0.32446   0.00000  Uiso   1.00
O230   O     0.27592   0.42962   0.25577   0.00000  Uiso   1.00
O231   O     0.03565   0.42037   0.24642   0.00000  Uiso   1.00
O232   O     0.25870   0.50234   0.17554   0.00000  Uiso   1.00
O233   O     0.01843   0.49309   0.16620   0.00000  Uiso   1.00
O234   O     0.05740   0.43091   0.09409   0.00000  Uiso   1.00
Zn235  Zn    0.27119   0.50618   0.25624   0.00000  Uiso   1.00
Zn236  Zn    0.06214   0.49382   0.24376   0.00000  Uiso   1.00
C237   C     0.34642   0.59778   0.24350   0.00000  Uiso   1.00
C238   C     0.38671   0.50899   0.41687   0.00000  Uiso   1.00
C239   C     0.35172   0.65207   0.23548   0.00000  Uiso   1.00
C240   C     0.36908   0.50335   0.35546   0.00000  Uiso   1.00
C241   C     0.63825   0.34728   0.23196   0.00000  Uiso   1.00
C242   C     0.65026   0.40171   0.24609   0.00000  Uiso   1.00
C243   C     0.63055   0.49540   0.14437   0.00000  Uiso   1.00
C244   C     0.58507   0.41066   0.01284   0.00000  Uiso   1.00
C245   C     0.60911   0.48099   0.08440   0.00000  Uiso   1.00
C246   C     0.36756   0.55145   0.44398   0.00000  Uiso   1.00
C247   C     0.39075   0.56400   0.00053   0.00000  Uiso   1.00
C248   C     0.46135   0.49778   0.49953   0.00000  Uiso   1.00
C249   C     0.43751   0.53774   0.02953   0.00000  Uiso   1.00
C250   C     0.34315   0.40663   0.08339   0.00000  Uiso   1.00
C251   C     0.57630   0.65999   0.21007   0.00000  Uiso   1.00
C252   C     0.50146   0.35206   0.42595   0.00000  Uiso   1.00
C253   C     0.45240   0.54784   0.09201   0.00000  Uiso   1.00
C254   C     0.38927   0.39482   0.38736   0.00000  Uiso   1.00
C255   C     0.42797   0.47738   0.44721   0.00000  Uiso   1.00
C256   C     0.51683   0.47799   0.01764   0.00000  Uiso   1.00
C257   C     0.53089   0.43098   0.49219   0.00000  Uiso   1.00
C258   C     0.48985   0.40410   0.44831   0.00000  Uiso   1.00
C259   C     0.43719   0.42668   0.42656   0.00000  Uiso   1.00
C260   C     0.55999   0.50523   0.05846   0.00000  Uiso   1.00
C261   C     0.62354   0.43403   0.05994   0.00000  Uiso   1.00
H262   H     0.55389   0.54395   0.07425   0.00000  Uiso   1.00
H263   H     0.37212   0.59479   0.02141   0.00000  Uiso   1.00
H264   H     0.65966   0.41597   0.42846   0.00000  Uiso   1.00
H265   H     0.39630   0.33604   0.24252   0.00000  Uiso   1.00
H266   H     0.63223   0.33587   0.08181   0.00000  Uiso   1.00
H267   H     0.59624   0.61541   0.14671   0.00000  Uiso   1.00
H268   H     0.49035   0.45655   0.21054   0.00000  Uiso   1.00
H269   H     0.50977   0.54275   0.29039   0.00000  Uiso   1.00
H270   H     0.48480   0.60705   0.42406   0.00000  Uiso   1.00
H271   H     0.59701   0.37511   0.49405   0.00000  Uiso   1.00
H272   H     0.33473   0.57518   0.42120   0.00000  Uiso   1.00
H273   H     0.44862   0.59607   0.15890   0.00000  Uiso   1.00
N274   N     0.47827   0.48556   0.23543   0.00000  Uiso   1.00
N275   N     0.52173   0.51444   0.26458   0.00000  Uiso   1.00
O276   O     0.63102   0.57963   0.25358   0.00000  Uiso   1.00
O277   O     0.34014   0.35263   0.09098   0.00000  Uiso   1.00
O278   O     0.53741   0.34169   0.23227   0.00000  Uiso   1.00
O279   O     0.56165   0.62419   0.16364   0.00000  Uiso   1.00
O280   O     0.53522   0.34911   0.39338   0.00000  Uiso   1.00
O281   O     0.47345   0.64011   0.44203   0.00000  Uiso   1.00
O282   O     0.47318   0.51408   0.12294   0.00000  Uiso   1.00
O283   O     0.43916   0.59492   0.11588   0.00000  Uiso   1.00
O284   O     0.40063   0.36674   0.34987   0.00000  Uiso   1.00
O285   O     0.66454   0.39518   0.39349   0.00000  Uiso   1.00
O286   O     0.39075   0.57038   0.24423   0.00000  Uiso   1.00
O287   O     0.64823   0.50691   0.33380   0.00000  Uiso   1.00
O288   O     0.40796   0.49766   0.32446   0.00000  Uiso   1.00
O289   O     0.60925   0.42962   0.25577   0.00000  Uiso   1.00
O290   O     0.36898   0.42037   0.24642   0.00000  Uiso   1.00
O291   O     0.59204   0.50234   0.17554   0.00000  Uiso   1.00
O292   O     0.35177   0.49309   0.16620   0.00000  Uiso   1.00
O293   O     0.39073   0.43091   0.09409   0.00000  Uiso   1.00
Zn294  Zn    0.60453   0.50618   0.25624   0.00000  Uiso   1.00
Zn295  Zn    0.39547   0.49382   0.24376   0.00000  Uiso   1.00
C296   C     0.67976   0.59778   0.24350   0.00000  Uiso   1.00
C297   C     0.72005   0.50899   0.41687   0.00000  Uiso   1.00
C298   C     0.68506   0.65207   0.23548   0.00000  Uiso   1.00
C299   C     0.70241   0.50335   0.35546   0.00000  Uiso   1.00
C300   C     0.97159   0.34728   0.23196   0.00000  Uiso   1.00
C301   C     0.98359   0.40171   0.24609   0.00000  Uiso   1.00
C302   C     0.96388   0.49540   0.14437   0.00000  Uiso   1.00
C303   C     0.91840   0.41066   0.01284   0.00000  Uiso   1.00
C304   C     0.94244   0.48099   0.08440   0.00000  Uiso   1.00
C305   C     0.70090   0.55145   0.44398   0.00000  Uiso   1.00
C306   C     0.72408   0.56400   0.00053   0.00000  Uiso   1.00
C307   C     0.79468   0.49778   0.49953   0.00000  Uiso   1.00
C308   C     0.77085   0.53774   0.02953   0.00000  Uiso   1.00
C309   C     0.67648   0.40663   0.08339   0.00000  Uiso   1.00
C310   C     0.90963   0.65999   0.21007   0.00000  Uiso   1.00
C311   C     0.83480   0.35206   0.42595   0.00000  Uiso   1.00
C312   C     0.78573   0.54784   0.09201   0.00000  Uiso   1.00
C313   C     0.72260   0.39482   0.38736   0.00000  Uiso   1.00
C314   C     0.76130   0.47738   0.44721   0.00000  Uiso   1.00
C315   C     0.85016   0.47799   0.01764   0.00000  Uiso   1.00
C316   C     0.86422   0.43098   0.49219   0.00000  Uiso   1.00
C317   C     0.82319   0.40410   0.44831   0.00000  Uiso   1.00
C318   C     0.77053   0.42668   0.42656   0.00000  Uiso   1.00
C319   C     0.89332   0.50523   0.05846   0.00000  Uiso   1.00
C320   C     0.95688   0.43403   0.05994   0.00000  Uiso   1.00
H321   H     0.88723   0.54395   0.07425   0.00000  Uiso   1.00
H322   H     0.70545   0.59479   0.02141   0.00000  Uiso   1.00
H323   H     0.99300   0.41597   0.42846   0.00000  Uiso   1.00
H324   H     0.72964   0.33604   0.24252   0.00000  Uiso   1.00
H325   H     0.96557   0.33587   0.08181   0.00000  Uiso   1.00
H326   H     0.92957   0.61541   0.14671   0.00000  Uiso   1.00
H327   H     0.82368   0.45655   0.21054   0.00000  Uiso   1.00
H328   H     0.84310   0.54275   0.29039   0.00000  Uiso   1.00
H329   H     0.81814   0.60705   0.42406   0.00000  Uiso   1.00
H330   H     0.93035   0.37511   0.49405   0.00000  Uiso   1.00
H331   H     0.66806   0.57518   0.42120   0.00000  Uiso   1.00
H332   H     0.78196   0.59607   0.15890   0.00000  Uiso   1.00
N333   N     0.81160   0.48556   0.23543   0.00000  Uiso   1.00
N334   N     0.85507   0.51444   0.26458   0.00000  Uiso   1.00
O335   O     0.96435   0.57963   0.25358   0.00000  Uiso   1.00
O336   O     0.67348   0.35263   0.09098   0.00000  Uiso   1.00
O337   O     0.87075   0.34169   0.23227   0.00000  Uiso   1.00
O338   O     0.89498   0.62419   0.16364   0.00000  Uiso   1.00
O339   O     0.86855   0.34911   0.39338   0.00000  Uiso   1.00
O340   O     0.80678   0.64011   0.44203   0.00000  Uiso   1.00
O341   O     0.80651   0.51408   0.12294   0.00000  Uiso   1.00
O342   O     0.77249   0.59492   0.11588   0.00000  Uiso   1.00
O343   O     0.73396   0.36674   0.34987   0.00000  Uiso   1.00
O344   O     0.99787   0.39518   0.39349   0.00000  Uiso   1.00
O345   O     0.72408   0.57038   0.24423   0.00000  Uiso   1.00
O346   O     0.98157   0.50691   0.33380   0.00000  Uiso   1.00
O347   O     0.74130   0.49766   0.32446   0.00000  Uiso   1.00
O348   O     0.94258   0.42962   0.25577   0.00000  Uiso   1.00
O349   O     0.70231   0.42037   0.24642   0.00000  Uiso   1.00
O350   O     0.92537   0.50234   0.17554   0.00000  Uiso   1.00
O351   O     0.68510   0.49309   0.16620   0.00000  Uiso   1.00
O352   O     0.72406   0.43091   0.09409   0.00000  Uiso   1.00
Zn353  Zn    0.93786   0.50618   0.25624   0.00000  Uiso   1.00
Zn354  Zn    0.72881   0.49382   0.24376   0.00000  Uiso   1.00
C355   C     0.01309   0.93111   0.24350   0.00000  Uiso   1.00
C356   C     0.05338   0.84233   0.41687   0.00000  Uiso   1.00
C357   C     0.01839   0.98540   0.23548   0.00000  Uiso   1.00
C358   C     0.03575   0.83668   0.35546   0.00000  Uiso   1.00
C359   C     0.30492   0.68061   0.23196   0.00000  Uiso   1.00
C360   C     0.31692   0.73504   0.24609   0.00000  Uiso   1.00
C361   C     0.29721   0.82873   0.14437   0.00000  Uiso   1.00
C362   C     0.25174   0.74399   0.01284   0.00000  Uiso   1.00
C363   C     0.27578   0.81433   0.08440   0.00000  Uiso   1.00
C364   C     0.03423   0.88479   0.44398   0.00000  Uiso   1.00
C365   C     0.05741   0.89734   0.00053   0.00000  Uiso   1.00
C366   C     0.12802   0.83111   0.49953   0.00000  Uiso   1.00
C367   C     0.10418   0.87107   0.02953   0.00000  Uiso   1.00
C368   C     0.00982   0.73996   0.08339   0.00000  Uiso   1.00
C369   C     0.24296   0.99332   0.21007   0.00000  Uiso   1.00
C370   C     0.16813   0.68539   0.42595   0.00000  Uiso   1.00
C371   C     0.11907   0.88118   0.09201   0.00000  Uiso   1.00
C372   C     0.05593   0.72815   0.38736   0.00000  Uiso   1.00
C373   C     0.09463   0.81072   0.44721   0.00000  Uiso   1.00
C374   C     0.18350   0.81133   0.01764   0.00000  Uiso   1.00
C375   C     0.19756   0.76432   0.49219   0.00000  Uiso   1.00
C376   C     0.15652   0.73743   0.44831   0.00000  Uiso   1.00
C377   C     0.10386   0.76001   0.42656   0.00000  Uiso   1.00
C378   C     0.22666   0.83856   0.05846   0.00000  Uiso   1.00
C379   C     0.29021   0.76736   0.05994   0.00000  Uiso   1.00
H380   H     0.22056   0.87729   0.07425   0.00000  Uiso   1.00
H381   H     0.03879   0.92812   0.02141   0.00000  Uiso   1.00
H382   H     0.32633   0.74930   0.42846   0.00000  Uiso   1.00
H383   H     0.06297   0.66938   0.24252   0.00000  Uiso   1.00
H384   H     0.29890   0.66921   0.08181   0.00000  Uiso   1.00
H385   H     0.26291   0.94874   0.14671   0.00000  Uiso   1.00
H386   H     0.15701   0.78988   0.21054   0.00000  Uiso   1.00
H387   H     0.17644   0.87608   0.29039   0.00000  Uiso   1.00
H388   H     0.15147   0.94038   0.42406   0.00000  Uiso   1.00
H389   H     0.26368   0.70844   0.49405   0.00000  Uiso   1.00
H390   H     0.00140   0.90851   0.42120   0.00000  Uiso   1.00
H391   H     0.11529   0.92940   0.15890   0.00000  Uiso   1.00
N392   N     0.14493   0.81890   0.23543   0.00000  Uiso   1.00
N393   N     0.18840   0.84777   0.26458   0.00000  Uiso   1.00
O394   O     0.29769   0.91296   0.25358   0.00000  Uiso   1.00
O395   O     0.00681   0.68596   0.09098   0.00000  Uiso   1.00
O396   O     0.20408   0.67503   0.23227   0.00000  Uiso   1.00
O397   O     0.22832   0.95752   0.16364   0.00000  Uiso   1.00
O398   O     0.20188   0.68244   0.39338   0.00000  Uiso   1.00
O399   O     0.14011   0.97344   0.44203   0.00000  Uiso   1.00
O400   O     0.13984   0.84741   0.12294   0.00000  Uiso   1.00
O401   O     0.10583   0.92825   0.11588   0.00000  Uiso   1.00
O402   O     0.06729   0.70007   0.34987   0.00000  Uiso   1.00
O403   O     0.33120   0.72851   0.39349   0.00000  Uiso   1.00
O404   O     0.05742   0.90371   0.24423   0.00000  Uiso   1.00
O405   O     0.31490   0.84024   0.33380   0.00000  Uiso   1.00
O406   O     0.07463   0.83099   0.32446   0.00000  Uiso   1.00
O407   O     0.27592   0.76296   0.25577   0.00000  Uiso   1.00
O408   O     0.03565   0.75371   0.24642   0.00000  Uiso   1.00
O409   O     0.25870   0.83567   0.17554   0.00000  Uiso   1.00
O410   O     0.01843   0.82642   0.16620   0.00000  Uiso   1.00
O411   O     0.05740   0.76424   0.09409   0.00000  Uiso   1.00
Zn412  Zn    0.27119   0.83951   0.25624   0.00000  Uiso   1.00
Zn413  Zn    0.06214   0.82716   0.24376   0.00000  Uiso   1.00
C414   C     0.34642   0.93111   0.24350   0.00000  Uiso   1.00
C415   C     0.38671   0.84233   0.41687   0.00000  Uiso   1.00
C416   C     0.35172   0.98540   0.23548   0.00000  Uiso   1.00
C417   C     0.36908   0.83668   0.35546   0.00000  Uiso   1.00
C418   C     0.63825   0.68061   0.23196   0.00000  Uiso   1.00
C419   C     0.65026   0.73504   0.24609   0.00000  Uiso   1.00
C420   C     0.63055   0.82873   0.14437   0.00000  Uiso   1.00
C421   C     0.58507   0.74399   0.01284   0.00000  Uiso   1.00
C422   C     0.60911   0.81433   0.08440   0.00000  Uiso   1.00
C423   C     0.36756   0.88479   0.44398   0.00000  Uiso   1.00
C424   C     0.39075   0.89734   0.00053   0.00000  Uiso   1.00
C425   C     0.46135   0.83111   0.49953   0.00000  Uiso   1.00
C426   C     0.43751   0.87107   0.02953   0.00000  Uiso   1.00
C427   C     0.34315   0.73996   0.08339   0.00000  Uiso   1.00
C428   C     0.57630   0.99332   0.21007   0.00000  Uiso   1.00
C429   C     0.50146   0.68539   0.42595   0.00000  Uiso   1.00
C430   C     0.45240   0.88118   0.09201   0.00000  Uiso   1.00
C431   C     0.38927   0.72815   0.38736   0.00000  Uiso   1.00
C432   C     0.42797   0.81072   0.44721   0.00000  Uiso   1.00
C433   C     0.51683   0.81133   0.01764   0.00000  Uiso   1.00
C434   C     0.53089   0.76432   0.49219   0.00000  Uiso   1.00
C435   C     0.48985   0.73743   0.44831   0.00000  Uiso   1.00
C436   C     0.43719   0.76001   0.42656   0.00000  Uiso   1.00
C437   C     0.55999   0.83856   0.05846   0.00000  Uiso   1.00
C438   C     0.62354   0.76736   0.05994   0.00000  Uiso   1.00
H439   H     0.55389   0.87729   0.07425   0.00000  Uiso   1.00
H440   H     0.37212   0.92812   0.02141   0.00000  Uiso   1.00
H441   H     0.65966   0.74930   0.42846   0.00000  Uiso   1.00
H442   H     0.39630   0.66938   0.24252   0.00000  Uiso   1.00
H443   H     0.63223   0.66921   0.08181   0.00000  Uiso   1.00
H444   H     0.59624   0.94874   0.14671   0.00000  Uiso   1.00
H445   H     0.49035   0.78988   0.21054   0.00000  Uiso   1.00
H446   H     0.50977   0.87608   0.29039   0.00000  Uiso   1.00
H447   H     0.48480   0.94038   0.42406   0.00000  Uiso   1.00
H448   H     0.59701   0.70844   0.49405   0.00000  Uiso   1.00
H449   H     0.33473   0.90851   0.42120   0.00000  Uiso   1.00
H450   H     0.44862   0.92940   0.15890   0.00000  Uiso   1.00
N451   N     0.47827   0.81890   0.23543   0.00000  Uiso   1.00
N452   N     0.52173   0.84777   0.26458   0.00000  Uiso   1.00
O453   O     0.63102   0.91296   0.25358   0.00000  Uiso   1.00
O454   O     0.34014   0.68596   0.09098   0.00000  Uiso   1.00
O455   O     0.53741   0.67503   0.23227   0.00000  Uiso   1.00
O456   O     0.56165   0.95752   0.16364   0.00000  Uiso   1.00
O457   O     0.53522   0.68244   0.39338   0.00000  Uiso   1.00
O458   O     0.47345   0.97344   0.44203   0.00000  Uiso   1.00
O459   O     0.47318   0.84741   0.12294   0.00000  Uiso   1.00
O460   O     0.43916   0.92825   0.11588   0.00000  Uiso   1.00
O461   O     0.40063   0.70007   0.34987   0.00000  Uiso   1.00
O462   O     0.66454   0.72851   0.39349   0.00000  Uiso   1.00
O463   O     0.39075   0.90371   0.24423   0.00000  Uiso   1.00
O464   O     0.64823   0.84024   0.33380   0.00000  Uiso   1.00
O465   O     0.40796   0.83099   0.32446   0.00000  Uiso   1.00
O466   O     0.60925   0.76296   0.25577   0.00000  Uiso   1.00
O467   O     0.36898   0.75371   0.24642   0.00000  Uiso   1.00
O468   O     0.59204   0.83567   0.17554   0.00000  Uiso   1.00
O469   O     0.35177   0.82642   0.16620   0.00000  Uiso   1.00
O470   O     0.39073   0.76424   0.09409   0.00000  Uiso   1.00
Zn471  Zn    0.60453   0.83951   0.25624   0.00000  Uiso   1.00
Zn472  Zn    0.39547   0.82716   0.24376   0.00000  Uiso   1.00
C473   C     0.67976   0.93111   0.24350   0.00000  Uiso   1.00
C474   C     0.72005   0.84233   0.41687   0.00000  Uiso   1.00
C475   C     0.68506   0.98540   0.23548   0.00000  Uiso   1.00
C476   C     0.70241   0.83668   0.35546   0.00000  Uiso   1.00
C477   C     0.97159   0.68061   0.23196   0.00000  Uiso   1.00
C478   C     0.98359   0.73504   0.24609   0.00000  Uiso   1.00
C479   C     0.96388   0.82873   0.14437   0.00000  Uiso   1.00
C480   C     0.91840   0.74399   0.01284   0.00000  Uiso   1.00
C481   C     0.94244   0.81433   0.08440   0.00000  Uiso   1.00
C482   C     0.70090   0.88479   0.44398   0.00000  Uiso   1.00
C483   C     0.72408   0.89734   0.00053   0.00000  Uiso   1.00
C484   C     0.79468   0.83111   0.49953   0.00000  Uiso   1.00
C485   C     0.77085   0.87107   0.02953   0.00000  Uiso   1.00
C486   C     0.67648   0.73996   0.08339   0.00000  Uiso   1.00
C487   C     0.90963   0.99332   0.21007   0.00000  Uiso   1.00
C488   C     0.83480   0.68539   0.42595   0.00000  Uiso   1.00
C489   C     0.78573   0.88118   0.09201   0.00000  Uiso   1.00
C490   C     0.72260   0.72815   0.38736   0.00000  Uiso   1.00
C491   C     0.76130   0.81072   0.44721   0.00000  Uiso   1.00
C492   C     0.85016   0.81133   0.01764   0.00000  Uiso   1.00
C493   C     0.86422   0.76432   0.49219   0.00000  Uiso   1.00
C494   C     0.82319   0.73743   0.44831   0.00000  Uiso   1.00
C495   C     0.77053   0.76001   0.42656   0.00000  Uiso   1.00
C496   C     0.89332   0.83856   0.05846   0.00000  Uiso   1.00
C497   C     0.95688   0.76736   0.05994   0.00000  Uiso   1.00
H498   H     0.88723   0.87729   0.07425   0.00000  Uiso   1.00
H499   H     0.70545   0.92812   0.02141   0.00000  Uiso   1.00
H500   H     0.99300   0.74930   0.42846   0.00000  Uiso   1.00
H501   H     0.72964   0.66938   0.24252   0.00000  Uiso   1.00
H502   H     0.96557   0.66921   0.08181   0.00000  Uiso   1.00
H503   H     0.92957   0.94874   0.14671   0.00000  Uiso   1.00
H504   H     0.82368   0.78988   0.21054   0.00000  Uiso   1.00
H505   H     0.84310   0.87608   0.29039   0.00000  Uiso   1.00
H506   H     0.81814   0.94038   0.42406   0.00000  Uiso   1.00
H507   H     0.93035   0.70844   0.49405   0.00000  Uiso   1.00
H508   H     0.66806   0.90851   0.42120   0.00000  Uiso   1.00
H509   H     0.78196   0.92940   0.15890   0.00000  Uiso   1.00
N510   N     0.81160   0.81890   0.23543   0.00000  Uiso   1.00
N511   N     0.85507   0.84777   0.26458   0.00000  Uiso   1.00
O512   O     0.96435   0.91296   0.25358   0.00000  Uiso   1.00
O513   O     0.67348   0.68596   0.09098   0.00000  Uiso   1.00
O514   O     0.87075   0.67503   0.23227   0.00000  Uiso   1.00
O515   O     0.89498   0.95752   0.16364   0.00000  Uiso   1.00
O516   O     0.86855   0.68244   0.39338   0.00000  Uiso   1.00
O517   O     0.80678   0.97344   0.44203   0.00000  Uiso   1.00
O518   O     0.80651   0.84741   0.12294   0.00000  Uiso   1.00
O519   O     0.77249   0.92825   0.11588   0.00000  Uiso   1.00
O520   O     0.73396   0.70007   0.34987   0.00000  Uiso   1.00
O521   O     0.99787   0.72851   0.39349   0.00000  Uiso   1.00
O522   O     0.72408   0.90371   0.24423   0.00000  Uiso   1.00
O523   O     0.98157   0.84024   0.33380   0.00000  Uiso   1.00
O524   O     0.74130   0.83099   0.32446   0.00000  Uiso   1.00
O525   O     0.94258   0.76296   0.25577   0.00000  Uiso   1.00
O526   O     0.70231   0.75371   0.24642   0.00000  Uiso   1.00
O527   O     0.92537   0.83567   0.17554   0.00000  Uiso   1.00
O528   O     0.68510   0.82642   0.16620   0.00000  Uiso   1.00
O529   O     0.72406   0.76424   0.09409   0.00000  Uiso   1.00
Zn530  Zn    0.93786   0.83951   0.25624   0.00000  Uiso   1.00
Zn531  Zn    0.72881   0.82716   0.24376   0.00000  Uiso   1.00
C532   C     0.01309   0.26444   0.74350   0.00000  Uiso   1.00
C533   C     0.05338   0.17566   0.91687   0.00000  Uiso   1.00
C534   C     0.01839   0.31873   0.73548   0.00000  Uiso   1.00
C535   C     0.03575   0.17001   0.85546   0.00000  Uiso   1.00
C536   C     0.30492   0.01394   0.73196   0.00000  Uiso   1.00
C537   C     0.31692   0.06837   0.74609   0.00000  Uiso   1.00
C538   C     0.29721   0.16207   0.64437   0.00000  Uiso   1.00
C539   C     0.25174   0.07733   0.51284   0.00000  Uiso   1.00
C540   C     0.27578   0.14766   0.58440   0.00000  Uiso   1.00
C541   C     0.03423   0.21812   0.94398   0.00000  Uiso   1.00
C542   C     0.05741   0.23067   0.50053   0.00000  Uiso   1.00
C543   C     0.12802   0.16444   0.99953   0.00000  Uiso   1.00
C544   C     0.10418   0.20441   0.52953   0.00000  Uiso   1.00
C545   C     0.00982   0.07330   0.58339   0.00000  Uiso   1.00
C546   C     0.24296   0.32665   0.71007   0.00000  Uiso   1.00
C547   C     0.16813   0.01872   0.92595   0.00000  Uiso   1.00
C548   C     0.11907   0.21451   0.59201   0.00000  Uiso   1.00
C549   C     0.05593   0.06148   0.88736   0.00000  Uiso   1.00
C550   C     0.09463   0.14405   0.94721   0.00000  Uiso   1.00
C551   C     0.18350   0.14466   0.51764   0.00000  Uiso   1.00
C552   C     0.19756   0.09765   0.99219   0.00000  Uiso   1.00
C553   C     0.15652   0.07076   0.94831   0.00000  Uiso   1.00
C554   C     0.10386   0.09335   0.92656   0.00000  Uiso   1.00
C555   C     0.22666   0.17189   0.55846   0.00000  Uiso   1.00
C556   C     0.29021   0.10069   0.55994   0.00000  Uiso   1.00
H557   H     0.22056   0.21062   0.57425   0.00000  Uiso   1.00
H558   H     0.03879   0.26145   0.52141   0.00000  Uiso   1.00
H559   H     0.32633   0.08263   0.92846   0.00000  Uiso   1.00
H560   H     0.06297   0.00271   0.74252   0.00000  Uiso   1.00
H561   H     0.29890   0.00254   0.58181   0.00000  Uiso   1.00
H562   H     0.26291   0.28207   0.64671   0.00000  Uiso   1.00
H563   H     0.15701   0.12322   0.71054   0.00000  Uiso   1.00
H564   H     0.17644   0.20941   0.79039   0.00000  Uiso   1.00
H565   H     0.15147   0.27371   0.92406   0.00000  Uiso   1.00
H566   H     0.26368   0.04177   0.99405   0.00000  Uiso   1.00
H567   H     0.00140   0.24185   0.92120   0.00000  Uiso   1.00
H568   H     0.11529   0.26274   0.65890   0.00000  Uiso   1.00
N569   N     0.14493   0.15223   0.73543   0.00000  Uiso   1.00
N570   N     0.18840   0.18110   0.76458   0.00000  Uiso   1.00
O571   O     0.29769   0.24629   0.75358   0.00000  Uiso   1.00
O572   O     0.00681   0.01929   0.59098   0.00000  Uiso   1.00
O573   O     0.20408   0.00836   0.73227   0.00000  Uiso   1.00
O574   O     0.22832   0.29085   0.66364   0.00000  Uiso   1.00
O575   O     0.20188   0.01577   0.89338   0.00000  Uiso   1.00
O576   O     0.14011   0.30677   0.94203   0.00000  Uiso   1.00
O577   O     0.13984   0.18074   0.62294   0.00000  Uiso   1.00
O578   O     0.10583   0.26159   0.61588   0.00000  Uiso   1.00
O579   O     0.06729   0.03341   0.84987   0.00000  Uiso   1.00
O580   O     0.33120   0.06185   0.89349   0.00000  Uiso   1.00
O581   O     0.05742   0.23704   0.74423   0.00000  Uiso   1.00
O582   O     0.31490   0.17358   0.83380   0.00000  Uiso   1.00
O583   O     0.07463   0.16433   0.82446   0.00000  Uiso   1.00
O584   O     0.27592   0.09629   0.75577   0.00000  Uiso   1.00
O585   O     0.03565   0.08704   0.74642   0.00000  Uiso   1.00
O586   O     0.25870   0.16901   0.67554   0.00000  Uiso   1.00
O587   O     0.01843   0.15976   0.66620   0.00000  Uiso   1.00
O588   O     0.05740   0.09757   0.59409   0.00000  Uiso   1.00
Zn589  Zn    0.27119   0.17284   0.75624   0.00000  Uiso   1.00
Zn590  Zn    0.06214   0.16049   0.74376   0.00000  Uiso   1.00
C591   C     0.34642   0.26444   0.74350   0.00000  Uiso   1.00
C592   C     0.38671   0.17566   0.91687   0.00000  Uiso   1.00
C593   C     0.35172   0.31873   0.73548   0.00000  Uiso   1.00
C594   C     0.36908   0.17001   0.85546   0.00000  Uiso   1.00
C595   C     0.63825   0.01394   0.73196   0.00000  Uiso   1.00
C596   C     0.65026   0.06837   0.74609   0.00000  Uiso   1.00
C597   C     0.63055   0.16207   0.64437   0.00000  Uiso   1.00
C598   C     0.58507   0.07733   0.51284   0.00000  Uiso   1.00
C599   C     0.60911   0.14766   0.58440   0.00000  Uiso   1.00
C600   C     0.36756   0.21812   0.94398   0.00000  Uiso   1.00
C601   C     0.39075   0.23067   0.50053   0.00000  Uiso   1.00
C602   C     0.46135   0.16444   0.99953   0.00000  Uiso   1.00
C603   C     0.43751   0.20441   0.52953   0.00000  Uiso   1.00
C604   C     0.34315   0.07330   0.58339   0.00000  Uiso   1.00
C605   C     0.57630   0.32665   0.71007   0.00000  Uiso   1.00
C606   C     0.50146   0.01872   0.92595   0.00000  Uiso   1.00
C607   C     0.45240   0.21451   0.59201   0.00000  Uiso   1.00
C608   C     0.38927   0.06148   0.88736   0.00000  Uiso   1.00
C609   C     0.42797   0.14405   0.94721   0.00000  Uiso   1.00
C610   C     0.51683   0.14466   0.51764   0.00000  Uiso   1.00
C611   C     0.53089   0.09765   0.99219   0.00000  Uiso   1.00
C612   C     0.48985   0.07076   0.94831   0.00000  Uiso   1.00
C613   C     0.43719   0.09335   0.92656   0.00000  Uiso   1.00
C614   C     0.55999   0.17189   0.55846   0.00000  Uiso   1.00
C615   C     0.62354   0.10069   0.55994   0.00000  Uiso   1.00
H616   H     0.55389   0.21062   0.57425   0.00000  Uiso   1.00
H617   H     0.37212   0.26145   0.52141   0.00000  Uiso   1.00
H618   H     0.65966   0.08263   0.92846   0.00000  Uiso   1.00
H619   H     0.39630   0.00271   0.74252   0.00000  Uiso   1.00
H620   H     0.63223   0.00254   0.58181   0.00000  Uiso   1.00
H621   H     0.59624   0.28207   0.64671   0.00000  Uiso   1.00
H622   H     0.49035   0.12322   0.71054   0.00000  Uiso   1.00
H623   H     0.50977   0.20941   0.79039   0.00000  Uiso   1.00
H624   H     0.48480   0.27371   0.92406   0.00000  Uiso   1.00
H625   H     0.59701   0.04177   0.99405   0.00000  Uiso   1.00
H626   H     0.33473   0.24185   0.92120   0.00000  Uiso   1.00
H627   H     0.44862   0.26274   0.65890   0.00000  Uiso   1.00
N628   N     0.47827   0.15223   0.73543   0.00000  Uiso   1.00
N629   N     0.52173   0.18110   0.76458   0.00000  Uiso   1.00
O630   O     0.63102   0.24629   0.75358   0.00000  Uiso   1.00
O631   O     0.34014   0.01929   0.59098   0.00000  Uiso   1.00
O632   O     0.53741   0.00836   0.73227   0.00000  Uiso   1.00
O633   O     0.56165   0.29085   0.66364   0.00000  Uiso   1.00
O634   O     0.53522   0.01577   0.89338   0.00000  Uiso   1.00
O635   O     0.47345   0.30677   0.94203   0.00000  Uiso   1.00
O636   O     0.47318   0.18074   0.62294   0.00000  Uiso   1.00
O637   O     0.43916   0.26159   0.61588   0.00000  Uiso   1.00
O638   O     0.40063   0.03341   0.84987   0.00000  Uiso   1.00
O639   O     0.66454   0.06185   0.89349   0.00000  Uiso   1.00
O640   O     0.39075   0.23704   0.74423   0.00000  Uiso   1.00
O641   O     0.64823   0.17358   0.83380   0.00000  Uiso   1.00
O642   O     0.40796   0.16433   0.82446   0.00000  Uiso   1.00
O643   O     0.60925   0.09629   0.75577   0.00000  Uiso   1.00
O644   O     0.36898   0.08704   0.74642   0.00000  Uiso   1.00
O645   O     0.59204   0.16901   0.67554   0.00000  Uiso   1.00
O646   O     0.35177   0.15976   0.66620   0.00000  Uiso   1.00
O647   O     0.39073   0.09757   0.59409   0.00000  Uiso   1.00
Zn648  Zn    0.60453   0.17284   0.75624   0.00000  Uiso   1.00
Zn649  Zn    0.39547   0.16049   0.74376   0.00000  Uiso   1.00
C650   C     0.67976   0.26444   0.74350   0.00000  Uiso   1.00
C651   C     0.72005   0.17566   0.91687   0.00000  Uiso   1.00
C652   C     0.68506   0.31873   0.73548   0.00000  Uiso   1.00
C653   C     0.70241   0.17001   0.85546   0.00000  Uiso   1.00
C654   C     0.97159   0.01394   0.73196   0.00000  Uiso   1.00
C655   C     0.98359   0.06837   0.74609   0.00000  Uiso   1.00
C656   C     0.96388   0.16207   0.64437   0.00000  Uiso   1.00
C657   C     0.91840   0.07733   0.51284   0.00000  Uiso   1.00
C658   C     0.94244   0.14766   0.58440   0.00000  Uiso   1.00
C659   C     0.70090   0.21812   0.94398   0.00000  Uiso   1.00
C660   C     0.72408   0.23067   0.50053   0.00000  Uiso   1.00
C661   C     0.79468   0.16444   0.99953   0.00000  Uiso   1.00
C662   C     0.77085   0.20441   0.52953   0.00000  Uiso   1.00
C663   C     0.67648   0.07330   0.58339   0.00000  Uiso   1.00
C664   C     0.90963   0.32665   0.71007   0.00000  Uiso   1.00
C665   C     0.83480   0.01872   0.92595   0.00000  Uiso   1.00
C666   C     0.78573   0.21451   0.59201   0.00000  Uiso   1.00
C667   C     0.72260   0.06148   0.88736   0.00000  Uiso   1.00
C668   C     0.76130   0.14405   0.94721   0.00000  Uiso   1.00
C669   C     0.85016   0.14466   0.51764   0.00000  Uiso   1.00
C670   C     0.86422   0.09765   0.99219   0.00000  Uiso   1.00
C671   C     0.82319   0.07076   0.94831   0.00000  Uiso   1.00
C672   C     0.77053   0.09335   0.92656   0.00000  Uiso   1.00
C673   C     0.89332   0.17189   0.55846   0.00000  Uiso   1.00
C674   C     0.95688   0.10069   0.55994   0.00000  Uiso   1.00
H675   H     0.88723   0.21062   0.57425   0.00000  Uiso   1.00
H676   H     0.70545   0.26145   0.52141   0.00000  Uiso   1.00
H677   H     0.99300   0.08263   0.92846   0.00000  Uiso   1.00
H678   H     0.72964   0.00271   0.74252   0.00000  Uiso   1.00
H679   H     0.96557   0.00254   0.58181   0.00000  Uiso   1.00
H680   H     0.92957   0.28207   0.64671   0.00000  Uiso   1.00
H681   H     0.82368   0.12322   0.71054   0.00000  Uiso   1.00
H682   H     0.84310   0.20941   0.79039   0.00000  Uiso   1.00
H683   H     0.81814   0.27371   0.92406   0.00000  Uiso   1.00
H684   H     0.93035   0.04177   0.99405   0.00000  Uiso   1.00
H685   H     0.66806   0.24185   0.92120   0.00000  Uiso   1.00
H686   H     0.78196   0.26274   0.65890   0.00000  Uiso   1.00
N687   N     0.81160   0.15223   0.73543   0.00000  Uiso   1.00
N688   N     0.85507   0.18110   0.76458   0.00000  Uiso   1.00
O689   O     0.96435   0.24629   0.75358   0.00000  Uiso   1.00
O690   O     0.67348   0.01929   0.59098   0.00000  Uiso   1.00
O691   O     0.87075   0.00836   0.73227   0.00000  Uiso   1.00
O692   O     0.89498   0.29085   0.66364   0.00000  Uiso   1.00
O693   O     0.86855   0.01577   0.89338   0.00000  Uiso   1.00
O694   O     0.80678   0.30677   0.94203   0.00000  Uiso   1.00
O695   O     0.80651   0.18074   0.62294   0.00000  Uiso   1.00
O696   O     0.77249   0.26159   0.61588   0.00000  Uiso   1.00
O697   O     0.73396   0.03341   0.84987   0.00000  Uiso   1.00
O698   O     0.99787   0.06185   0.89349   0.00000  Uiso   1.00
O699   O     0.72408   0.23704   0.74423   0.00000  Uiso   1.00
O700   O     0.98157   0.17358   0.83380   0.00000  Uiso   1.00
O701   O     0.74130   0.16433   0.82446   0.00000  Uiso   1.00
O702   O     0.94258   0.09629   0.75577   0.00000  Uiso   1.00
O703   O     0.70231   0.08704   0.74642   0.00000  Uiso   1.00
O704   O     0.92537   0.16901   0.67554   0.00000  Uiso   1.00
O705   O     0.68510   0.15976   0.66620   0.00000  Uiso   1.00
O706   O     0.72406   0.09757   0.59409   0.00000  Uiso   1.00
Zn707  Zn    0.93786   0.17284   0.75624   0.00000  Uiso   1.00
Zn708  Zn    0.72881   0.16049   0.74376   0.00000  Uiso   1.00
C709   C     0.01309   0.59778   0.74350   0.00000  Uiso   1.00
C710   C     0.05338   0.50899   0.91687   0.00000  Uiso   1.00
C711   C     0.01839   0.65207   0.73548   0.00000  Uiso   1.00
C712   C     0.03575   0.50335   0.85546   0.00000  Uiso   1.00
C713   C     0.30492   0.34728   0.73196   0.00000  Uiso   1.00
C714   C     0.31692   0.40171   0.74609   0.00000  Uiso   1.00
C715   C     0.29721   0.49540   0.64437   0.00000  Uiso   1.00
C716   C     0.25174   0.41066   0.51284   0.00000  Uiso   1.00
C717   C     0.27578   0.48099   0.58440   0.00000  Uiso   1.00
C718   C     0.03423   0.55145   0.94398   0.00000  Uiso   1.00
C719   C     0.05741   0.56400   0.50053   0.00000  Uiso   1.00
C720   C     0.12802   0.49778   0.99953   0.00000  Uiso   1.00
C721   C     0.10418   0.53774   0.52953   0.00000  Uiso   1.00
C722   C     0.00982   0.40663   0.58339   0.00000  Uiso   1.00
C723   C     0.24296   0.65999   0.71007   0.00000  Uiso   1.00
C724   C     0.16813   0.35206   0.92595   0.00000  Uiso   1.00
C725   C     0.11907   0.54784   0.59201   0.00000  Uiso   1.00
C726   C     0.05593   0.39482   0.88736   0.00000  Uiso   1.00
C727   C     0.09463   0.47738   0.94721   0.00000  Uiso   1.00
C728   C     0.18350   0.47799   0.51764   0.00000  Uiso   1.00
C729   C     0.19756   0.43098   0.99219   0.00000  Uiso   1.00
C730   C     0.15652   0.40410   0.94831   0.00000  Uiso   1.00
C731   C     0.10386   0.42668   0.92656   0.00000  Uiso   1.00
C732   C     0.22666   0.50523   0.55846   0.00000  Uiso   1.00
C733   C     0.29021   0.43403   0.55994   0.00000  Uiso   1.00
H734   H     0.22056   0.54395   0.57425   0.00000  Uiso   1.00
H735   H     0.03879   0.59479   0.52141   0.00000  Uiso   1.00
H736   H     0.32633   0.41597   0.92846   0.00000  Uiso   1.00
H737   H     0.06297   0.33604   0.74252   0.00000  Uiso   1.00
H738   H     0.29890   0.33587   0.58181   0.00000  Uiso   1.00
H739   H     0.26291   0.61541   0.64671   0.00000  Uiso   1.00
H740   H     0.15701   0.45655   0.71054   0.00000  Uiso   1.00
H741   H     0.17644   0.54275   0.79039   0.00000  Uiso   1.00
H742   H     0.15147   0.60705   0.92406   0.00000  Uiso   1.00
H743   H     0.26368   0.37511   0.99405   0.00000  Uiso   1.00
H744   H     0.00140   0.57518   0.92120   0.00000  Uiso   1.00
H745   H     0.11529   0.59607   0.65890   0.00000  Uiso   1.00
N746   N     0.14493   0.48556   0.73543   0.00000  Uiso   1.00
N747   N     0.18840   0.51444   0.76458   0.00000  Uiso   1.00
O748   O     0.29769   0.57963   0.75358   0.00000  Uiso   1.00
O749   O     0.00681   0.35263   0.59098   0.00000  Uiso   1.00
O750   O     0.20408   0.34169   0.73227   0.00000  Uiso   1.00
O751   O     0.22832   0.62419   0.66364   0.00000  Uiso   1.00
O752   O     0.20188   0.34911   0.89338   0.00000  Uiso   1.00
O753   O     0.14011   0.64011   0.94203   0.00000  Uiso   1.00
O754   O     0.13984   0.51408   0.62294   0.00000  Uiso   1.00
O755   O     0.10583   0.59492   0.61588   0.00000  Uiso   1.00
O756   O     0.06729   0.36674   0.84987   0.00000  Uiso   1.00
O757   O     0.33120   0.39518   0.89349   0.00000  Uiso   1.00
O758   O     0.05742   0.57038   0.74423   0.00000  Uiso   1.00
O759   O     0.31490   0.50691   0.83380   0.00000  Uiso   1.00
O760   O     0.07463   0.49766   0.82446   0.00000  Uiso   1.00
O761   O     0.27592   0.42962   0.75577   0.00000  Uiso   1.00
O762   O     0.03565   0.42037   0.74642   0.00000  Uiso   1.00
O763   O     0.25870   0.50234   0.67554   0.00000  Uiso   1.00
O764   O     0.01843   0.49309   0.66620   0.00000  Uiso   1.00
O765   O     0.05740   0.43091   0.59409   0.00000  Uiso   1.00
Zn766  Zn    0.27119   0.50618   0.75624   0.00000  Uiso   1.00
Zn767  Zn    0.06214   0.49382   0.74376   0.00000  Uiso   1.00
C768   C     0.34642   0.59778   0.74350   0.00000  Uiso   1.00
C769   C     0.38671   0.50899   0.91687   0.00000  Uiso   1.00
C770   C     0.35172   0.65207   0.73548   0.00000  Uiso   1.00
C771   C     0.36908   0.50335   0.85546   0.00000  Uiso   1.00
C772   C     0.63825   0.34728   0.73196   0.00000  Uiso   1.00
C773   C     0.65026   0.40171   0.74609   0.00000  Uiso   1.00
C774   C     0.63055   0.49540   0.64437   0.00000  Uiso   1.00
C775   C     0.58507   0.41066   0.51284   0.00000  Uiso   1.00
C776   C     0.60911   0.48099   0.58440   0.00000  Uiso   1.00
C777   C     0.36756   0.55145   0.94398   0.00000  Uiso   1.00
C778   C     0.39075   0.56400   0.50053   0.00000  Uiso   1.00
C779   C     0.46135   0.49778   0.99953   0.00000  Uiso   1.00
C780   C     0.43751   0.53774   0.52953   0.00000  Uiso   1.00
C781   C     0.34315   0.40663   0.58339   0.00000  Uiso   1.00
C782   C     0.57630   0.65999   0.71007   0.00000  Uiso   1.00
C783   C     0.50146   0.35206   0.92595   0.00000  Uiso   1.00
C784   C     0.45240   0.54784   0.59201   0.00000  Uiso   1.00
C785   C     0.38927   0.39482   0.88736   0.00000  Uiso   1.00
C786   C     0.42797   0.47738   0.94721   0.00000  Uiso   1.00
C787   C     0.51683   0.47799   0.51764   0.00000  Uiso   1.00
C788   C     0.53089   0.43098   0.99219   0.00000  Uiso   1.00
C789   C     0.48985   0.40410   0.94831   0.00000  Uiso   1.00
C790   C     0.43719   0.42668   0.92656   0.00000  Uiso   1.00
C791   C     0.55999   0.50523   0.55846   0.00000  Uiso   1.00
C792   C     0.62354   0.43403   0.55994   0.00000  Uiso   1.00
H793   H     0.55389   0.54395   0.57425   0.00000  Uiso   1.00
H794   H     0.37212   0.59479   0.52141   0.00000  Uiso   1.00
H795   H     0.65966   0.41597   0.92846   0.00000  Uiso   1.00
H796   H     0.39630   0.33604   0.74252   0.00000  Uiso   1.00
H797   H     0.63223   0.33587   0.58181   0.00000  Uiso   1.00
H798   H     0.59624   0.61541   0.64671   0.00000  Uiso   1.00
H799   H     0.49035   0.45655   0.71054   0.00000  Uiso   1.00
H800   H     0.50977   0.54275   0.79039   0.00000  Uiso   1.00
H801   H     0.48480   0.60705   0.92406   0.00000  Uiso   1.00
H802   H     0.59701   0.37511   0.99405   0.00000  Uiso   1.00
H803   H     0.33473   0.57518   0.92120   0.00000  Uiso   1.00
H804   H     0.44862   0.59607   0.65890   0.00000  Uiso   1.00
N805   N     0.47827   0.48556   0.73543   0.00000  Uiso   1.00
N806   N     0.52173   0.51444   0.76458   0.00000  Uiso   1.00
O807   O     0.63102   0.57963   0.75358   0.00000  Uiso   1.00
O808   O     0.34014   0.35263   0.59098   0.00000  Uiso   1.00
O809   O     0.53741   0.34169   0.73227   0.00000  Uiso   1.00
O810   O     0.56165   0.62419   0.66364   0.00000  Uiso   1.00
O811   O     0.53522   0.34911   0.89338   0.00000  Uiso   1.00
O812   O     0.47345   0.64011   0.94203   0.00000  Uiso   1.00
O813   O     0.47318   0.51408   0.62294   0.00000  Uiso   1.00
O814   O     0.43916   0.59492   0.61588   0.00000  Uiso   1.00
O815   O     0.40063   0.36674   0.84987   0.00000  Uiso   1.00
O816   O     0.66454   0.39518   0.89349   0.00000  Uiso   1.00
O817   O     0.39075   0.57038   0.74423   0.00000  Uiso   1.00
O818   O     0.64823   0.50691   0.83380   0.00000  Uiso   1.00
O819   O     0.40796   0.49766   0.82446   0.00000  Uiso   1.00
O820   O     0.60925   0.42962   0.75577   0.00000  Uiso   1.00
O821   O     0.36898   0.42037   0.74642   0.00000  Uiso   1.00
O822   O     0.59204   0.50234   0.67554   0.00000  Uiso   1.00
O823   O     0.35177   0.49309   0.66620   0.00000  Uiso   1.00
O824   O     0.39073   0.43091   0.59409   0.00000  Uiso   1.00
Zn825  Zn    0.60453   0.50618   0.75624   0.00000  Uiso   1.00
Zn826  Zn    0.39547   0.49382   0.74376   0.00000  Uiso   1.00
C827   C     0.67976   0.59778   0.74350   0.00000  Uiso   1.00
C828   C     0.72005   0.50899   0.91687   0.00000  Uiso   1.00
C829   C     0.68506   0.65207   0.73548   0.00000  Uiso   1.00
C830   C     0.70241   0.50335   0.85546   0.00000  Uiso   1.00
C831   C     0.97159   0.34728   0.73196   0.00000  Uiso   1.00
C832   C     0.98359   0.40171   0.74609   0.00000  Uiso   1.00
C833   C     0.96388   0.49540   0.64437   0.00000  Uiso   1.00
C834   C     0.91840   0.41066   0.51284   0.00000  Uiso   1.00
C835   C     0.94244   0.48099   0.58440   0.00000  Uiso   1.00
C836   C     0.70090   0.55145   0.94398   0.00000  Uiso   1.00
C837   C     0.72408   0.56400   0.50053   0.00000  Uiso   1.00
C838   C     0.79468   0.49778   0.99953   0.00000  Uiso   1.00
C839   C     0.77085   0.53774   0.52953   0.00000  Uiso   1.00
C840   C     0.67648   0.40663   0.58339   0.00000  Uiso   1.00
C841   C     0.90963   0.65999   0.71007   0.00000  Uiso   1.00
C842   C     0.83480   0.35206   0.92595   0.00000  Uiso   1.00
C843   C     0.78573   0.54784   0.59201   0.00000  Uiso   1.00
C844   C     0.72260   0.39482   0.88736   0.00000  Uiso   1.00
C845   C     0.76130   0.47738   0.94721   0.00000  Uiso   1.00
C846   C     0.85016   0.47799   0.51764   0.00000  Uiso   1.00
C847   C     0.86422   0.43098   0.99219   0.00000  Uiso   1.00
C848   C     0.82319   0.40410   0.94831   0.00000  Uiso   1.00
C849   C     0.77053   0.42668   0.92656   0.00000  Uiso   1.00
C850   C     0.89332   0.50523   0.55846   0.00000  Uiso   1.00
C851   C     0.95688   0.43403   0.55994   0.00000  Uiso   1.00
H852   H     0.88723   0.54395   0.57425   0.00000  Uiso   1.00
H853   H     0.70545   0.59479   0.52141   0.00000  Uiso   1.00
H854   H     0.99300   0.41597   0.92846   0.00000  Uiso   1.00
H855   H     0.72964   0.33604   0.74252   0.00000  Uiso   1.00
H856   H     0.96557   0.33587   0.58181   0.00000  Uiso   1.00
H857   H     0.92957   0.61541   0.64671   0.00000  Uiso   1.00
H858   H     0.82368   0.45655   0.71054   0.00000  Uiso   1.00
H859   H     0.84310   0.54275   0.79039   0.00000  Uiso   1.00
H860   H     0.81814   0.60705   0.92406   0.00000  Uiso   1.00
H861   H     0.93035   0.37511   0.99405   0.00000  Uiso   1.00
H862   H     0.66806   0.57518   0.92120   0.00000  Uiso   1.00
H863   H     0.78196   0.59607   0.65890   0.00000  Uiso   1.00
N864   N     0.81160   0.48556   0.73543   0.00000  Uiso   1.00
N865   N     0.85507   0.51444   0.76458   0.00000  Uiso   1.00
O866   O     0.96435   0.57963   0.75358   0.00000  Uiso   1.00
O867   O     0.67348   0.35263   0.59098   0.00000  Uiso   1.00
O868   O     0.87075   0.34169   0.73227   0.00000  Uiso   1.00
O869   O     0.89498   0.62419   0.66364   0.00000  Uiso   1.00
O870   O     0.86855   0.34911   0.89338   0.00000  Uiso   1.00
O871   O     0.80678   0.64011   0.94203   0.00000  Uiso   1.00
O872   O     0.80651   0.51408   0.62294   0.00000  Uiso   1.00
O873   O     0.77249   0.59492   0.61588   0.00000  Uiso   1.00
O874   O     0.73396   0.36674   0.84987   0.00000  Uiso   1.00
O875   O     0.99787   0.39518   0.89349   0.00000  Uiso   1.00
O876   O     0.72408   0.57038   0.74423   0.00000  Uiso   1.00
O877   O     0.98157   0.50691   0.83380   0.00000  Uiso   1.00
O878   O     0.74130   0.49766   0.82446   0.00000  Uiso   1.00
O879   O     0.94258   0.42962   0.75577   0.00000  Uiso   1.00
O880   O     0.70231   0.42037   0.74642   0.00000  Uiso   1.00
O881   O     0.92537   0.50234   0.67554   0.00000  Uiso   1.00
O882   O     0.68510   0.49309   0.66620   0.00000  Uiso   1.00
O883   O     0.72406   0.43091   0.59409   0.00000  Uiso   1.00
Zn884  Zn    0.93786   0.50618   0.75624   0.00000  Uiso   1.00
Zn885  Zn    0.72881   0.49382   0.74376   0.00000  Uiso   1.00
C886   C     0.01309   0.93111   0.74350   0.00000  Uiso   1.00
C887   C     0.05338   0.84233   0.91687   0.00000  Uiso   1.00
C888   C     0.01839   0.98540   0.73548   0.00000  Uiso   1.00
C889   C     0.03575   0.83668   0.85546   0.00000  Uiso   1.00
C890   C     0.30492   0.68061   0.73196   0.00000  Uiso   1.00
C891   C     0.31692   0.73504   0.74609   0.00000  Uiso   1.00
C892   C     0.29721   0.82873   0.64437   0.00000  Uiso   1.00
C893   C     0.25174   0.74399   0.51284   0.00000  Uiso   1.00
C894   C     0.27578   0.81433   0.58440   0.00000  Uiso   1.00
C895   C     0.03423   0.88479   0.94398   0.00000  Uiso   1.00
C896   C     0.05741   0.89734   0.50053   0.00000  Uiso   1.00
C897   C     0.12802   0.83111   0.99953   0.00000  Uiso   1.00
C898   C     0.10418   0.87107   0.52953   0.00000  Uiso   1.00
C899   C     0.00982   0.73996   0.58339   0.00000  Uiso   1.00
C900   C     0.24296   0.99332   0.71007   0.00000  Uiso   1.00
C901   C     0.16813   0.68539   0.92595   0.00000  Uiso   1.00
C902   C     0.11907   0.88118   0.59201   0.00000  Uiso   1.00
C903   C     0.05593   0.72815   0.88736   0.00000  Uiso   1.00
C904   C     0.09463   0.81072   0.94721   0.00000  Uiso   1.00
C905   C     0.18350   0.81133   0.51764   0.00000  Uiso   1.00
C906   C     0.19756   0.76432   0.99219   0.00000  Uiso   1.00
C907   C     0.15652   0.73743   0.94831   0.00000  Uiso   1.00
C908   C     0.10386   0.76001   0.92656   0.00000  Uiso   1.00
C909   C     0.22666   0.83856   0.55846   0.00000  Uiso   1.00
C910   C     0.29021   0.76736   0.55994   0.00000  Uiso   1.00
H911   H     0.22056   0.87729   0.57425   0.00000  Uiso   1.00
H912   H     0.03879   0.92812   0.52141   0.00000  Uiso   1.00
H913   H     0.32633   0.74930   0.92846   0.00000  Uiso   1.00
H914   H     0.06297   0.66938   0.74252   0.00000  Uiso   1.00
H915   H     0.29890   0.66921   0.58181   0.00000  Uiso   1.00
H916   H     0.26291   0.94874   0.64671   0.00000  Uiso   1.00
H917   H     0.15701   0.78988   0.71054   0.00000  Uiso   1.00
H918   H     0.17644   0.87608   0.79039   0.00000  Uiso   1.00
H919   H     0.15147   0.94038   0.92406   0.00000  Uiso   1.00
H920   H     0.26368   0.70844   0.99405   0.00000  Uiso   1.00
H921   H     0.00140   0.90851   0.92120   0.00000  Uiso   1.00
H922   H     0.11529   0.92940   0.65890   0.00000  Uiso   1.00
N923   N     0.14493   0.81890   0.73543   0.00000  Uiso   1.00
N924   N     0.18840   0.84777   0.76458   0.00000  Uiso   1.00
O925   O     0.29769   0.91296   0.75358   0.00000  Uiso   1.00
O926   O     0.00681   0.68596   0.59098   0.00000  Uiso   1.00
O927   O     0.20408   0.67503   0.73227   0.00000  Uiso   1.00
O928   O     0.22832   0.95752   0.66364   0.00000  Uiso   1.00
O929   O     0.20188   0.68244   0.89338   0.00000  Uiso   1.00
O930   O     0.14011   0.97344   0.94203   0.00000  Uiso   1.00
O931   O     0.13984   0.84741   0.62294   0.00000  Uiso   1.00
O932   O     0.10583   0.92825   0.61588   0.00000  Uiso   1.00
O933   O     0.06729   0.70007   0.84987   0.00000  Uiso   1.00
O934   O     0.33120   0.72851   0.89349   0.00000  Uiso   1.00
O935   O     0.05742   0.90371   0.74423   0.00000  Uiso   1.00
O936   O     0.31490   0.84024   0.83380   0.00000  Uiso   1.00
O937   O     0.07463   0.83099   0.82446   0.00000  Uiso   1.00
O938   O     0.27592   0.76296   0.75577   0.00000  Uiso   1.00
O939   O     0.03565   0.75371   0.74642   0.00000  Uiso   1.00
O940   O     0.25870   0.83567   0.67554   0.00000  Uiso   1.00
O941   O     0.01843   0.82642   0.66620   0.00000  Uiso   1.00
O942   O     0.05740   0.76424   0.59409   0.00000  Uiso   1.00
Zn943  Zn    0.27119   0.83951   0.75624   0.00000  Uiso   1.00
Zn944  Zn    0.06214   0.82716   0.74376   0.00000  Uiso   1.00
C945   C     0.34642   0.93111   0.74350   0.00000  Uiso   1.00
C946   C     0.38671   0.84233   0.91687   0.00000  Uiso   1.00
C947   C     0.35172   0.98540   0.73548   0.00000  Uiso   1.00
C948   C     0.36908   0.83668   0.85546   0.00000  Uiso   1.00
C949   C     0.63825   0.68061   0.73196   0.00000  Uiso   1.00
C950   C     0.65026   0.73504   0.74609   0.00000  Uiso   1.00
C951   C     0.63055   0.82873   0.64437   0.00000  Uiso   1.00
C952   C     0.58507   0.74399   0.51284   0.00000  Uiso   1.00
C953   C     0.60911   0.81433   0.58440   0.00000  Uiso   1.00
C954   C     0.36756   0.88479   0.94398   0.00000  Uiso   1.00
C955   C     0.39075   0.89734   0.50053   0.00000  Uiso   1.00
C956   C     0.46135   0.83111   0.99953   0.00000  Uiso   1.00
C957   C     0.43751   0.87107   0.52953   0.00000  Uiso   1.00
C958   C     0.34315   0.73996   0.58339   0.00000  Uiso   1.00
C959   C     0.57630   0.99332   0.71007   0.00000  Uiso   1.00
C960   C     0.50146   0.68539   0.92595   0.00000  Uiso   1.00
C961   C     0.45240   0.88118   0.59201   0.00000  Uiso   1.00
C962   C     0.38927   0.72815   0.88736   0.00000  Uiso   1.00
C963   C     0.42797   0.81072   0.94721   0.00000  Uiso   1.00
C964   C     0.51683   0.81133   0.51764   0.00000  Uiso   1.00
C965   C     0.53089   0.76432   0.99219   0.00000  Uiso   1.00
C966   C     0.48985   0.73743   0.94831   0.00000  Uiso   1.00
C967   C     0.43719   0.76001   0.92656   0.00000  Uiso   1.00
C968   C     0.55999   0.83856   0.55846   0.00000  Uiso   1.00
C969   C     0.62354   0.76736   0.55994   0.00000  Uiso   1.00
H970   H     0.55389   0.87729   0.57425   0.00000  Uiso   1.00
H971   H     0.37212   0.92812   0.52141   0.00000  Uiso   1.00
H972   H     0.65966   0.74930   0.92846   0.00000  Uiso   1.00
H973   H     0.39630   0.66938   0.74252   0.00000  Uiso   1.00
H974   H     0.63223   0.66921   0.58181   0.00000  Uiso   1.00
H975   H     0.59624   0.94874   0.64671   0.00000  Uiso   1.00
H976   H     0.49035   0.78988   0.71054   0.00000  Uiso   1.00
H977   H     0.50977   0.87608   0.79039   0.00000  Uiso   1.00
H978   H     0.48480   0.94038   0.92406   0.00000  Uiso   1.00
H979   H     0.59701   0.70844   0.99405   0.00000  Uiso   1.00
H980   H     0.33473   0.90851   0.92120   0.00000  Uiso   1.00
H981   H     0.44862   0.92940   0.65890   0.00000  Uiso   1.00
N982   N     0.47827   0.81890   0.73543   0.00000  Uiso   1.00
N983   N     0.52173   0.84777   0.76458   0.00000  Uiso   1.00
O984   O     0.63102   0.91296   0.75358   0.00000  Uiso   1.00
O985   O     0.34014   0.68596   0.59098   0.00000  Uiso   1.00
O986   O     0.53741   0.67503   0.73227   0.00000  Uiso   1.00
O987   O     0.56165   0.95752   0.66364   0.00000  Uiso   1.00
O988   O     0.53522   0.68244   0.89338   0.00000  Uiso   1.00
O989   O     0.47345   0.97344   0.94203   0.00000  Uiso   1.00
O990   O     0.47318   0.84741   0.62294   0.00000  Uiso   1.00
O991   O     0.43916   0.92825   0.61588   0.00000  Uiso   1.00
O992   O     0.40063   0.70007   0.84987   0.00000  Uiso   1.00
O993   O     0.66454   0.72851   0.89349   0.00000  Uiso   1.00
O994   O     0.39075   0.90371   0.74423   0.00000  Uiso   1.00
O995   O     0.64823   0.84024   0.83380   0.00000  Uiso   1.00
O996   O     0.40796   0.83099   0.82446   0.00000  Uiso   1.00
O997   O     0.60925   0.76296   0.75577   0.00000  Uiso   1.00
O998   O     0.36898   0.75371   0.74642   0.00000  Uiso   1.00
O999   O     0.59204   0.83567   0.67554   0.00000  Uiso   1.00
O1000  O     0.35177   0.82642   0.66620   0.00000  Uiso   1.00
O1001  O     0.39073   0.76424   0.59409   0.00000  Uiso   1.00
Zn1002 Zn    0.60453   0.83951   0.75624   0.00000  Uiso   1.00
Zn1003 Zn    0.39547   0.82716   0.74376   0.00000  Uiso   1.00
C1004  C     0.67976   0.93111   0.74350   0.00000  Uiso   1.00
C1005  C     0.72005   0.84233   0.91687   0.00000  Uiso   1.00
C1006  C     0.68506   0.98540   0.73548   0.00000  Uiso   1.00
C1007  C     0.70241   0.83668   0.85546   0.00000  Uiso   1.00
C1008  C     0.97159   0.68061   0.73196   0.00000  Uiso   1.00
C1009  C     0.98359   0.73504   0.74609   0.00000  Uiso   1.00
C1010  C     0.96388   0.82873   0.64437   0.00000  Uiso   1.00
C1011  C     0.91840   0.74399   0.51284   0.00000  Uiso   1.00
C1012  C     0.94244   0.81433   0.58440   0.00000  Uiso   1.00
C1013  C     0.70090   0.88479   0.94398   0.00000  Uiso   1.00
C1014  C     0.72408   0.89734   0.50053   0.00000  Uiso   1.00
C1015  C     0.79468   0.83111   0.99953   0.00000  Uiso   1.00
C1016  C     0.77085   0.87107   0.52953   0.00000  Uiso   1.00
C1017  C     0.67648   0.73996   0.58339   0.00000  Uiso   1.00
C1018  C     0.90963   0.99332   0.71007   0.00000  Uiso   1.00
C1019  C     0.83480   0.68539   0.92595   0.00000  Uiso   1.00
C1020  C     0.78573   0.88118   0.59201   0.00000  Uiso   1.00
C1021  C     0.72260   0.72815   0.88736   0.00000  Uiso   1.00
C1022  C     0.76130   0.81072   0.94721   0.00000  Uiso   1.00
C1023  C     0.85016   0.81133   0.51764   0.00000  Uiso   1.00
C1024  C     0.86422   0.76432   0.99219   0.00000  Uiso   1.00
C1025  C     0.82319   0.73743   0.94831   0.00000  Uiso   1.00
C1026  C     0.77053   0.76001   0.92656   0.00000  Uiso   1.00
C1027  C     0.89332   0.83856   0.55846   0.00000  Uiso   1.00
C1028  C     0.95688   0.76736   0.55994   0.00000  Uiso   1.00
H1029  H     0.88723   0.87729   0.57425   0.00000  Uiso   1.00
H1030  H     0.70545   0.92812   0.52141   0.00000  Uiso   1.00
H1031  H     0.99300   0.74930   0.92846   0.00000  Uiso   1.00
H1032  H     0.72964   0.66938   0.74252   0.00000  Uiso   1.00
H1033  H     0.96557   0.66921   0.58181   0.00000  Uiso   1.00
H1034  H     0.92957   0.94874   0.64671   0.00000  Uiso   1.00
H1035  H     0.82368   0.78988   0.71054   0.00000  Uiso   1.00
H1036  H     0.84310   0.87608   0.79039   0.00000  Uiso   1.00
H1037  H     0.81814   0.94038   0.92406   0.00000  Uiso   1.00
H1038  H     0.93035   0.70844   0.99405   0.00000  Uiso   1.00
H1039  H     0.66806   0.90851   0.92120   0.00000  Uiso   1.00
H1040  H     0.78196   0.92940   0.65890   0.00000  Uiso   1.00
N1041  N     0.81160   0.81890   0.73543   0.00000  Uiso   1.00
N1042  N     0.85507   0.84777   0.76458   0.00000  Uiso   1.00
O1043  O     0.96435   0.91296   0.75358   0.00000  Uiso   1.00
O1044  O     0.67348   0.68596   0.59098   0.00000  Uiso   1.00
O1045  O     0.87075   0.67503   0.73227   0.00000  Uiso   1.00
O1046  O     0.89498   0.95752   0.66364   0.00000  Uiso   1.00
O1047  O     0.86855   0.68244   0.89338   0.00000  Uiso   1.00
O1048  O     0.80678   0.97344   0.94203   0.00000  Uiso   1.00
O1049  O     0.80651   0.84741   0.62294   0.00000  Uiso   1.00
O1050  O     0.77249   0.92825   0.61588   0.00000  Uiso   1.00
O1051  O     0.73396   0.70007   0.84987   0.00000  Uiso   1.00
O1052  O     0.99787   0.72851   0.89349   0.00000  Uiso   1.00
O1053  O     0.72408   0.90371   0.74423   0.00000  Uiso   1.00
O1054  O     0.98157   0.84024   0.83380   0.00000  Uiso   1.00
O1055  O     0.74130   0.83099   0.82446   0.00000  Uiso   1.00
O1056  O     0.94258   0.76296   0.75577   0.00000  Uiso   1.00
O1057  O     0.70231   0.75371   0.74642   0.00000  Uiso   1.00
O1058  O     0.92537   0.83567   0.67554   0.00000  Uiso   1.00
O1059  O     0.68510   0.82642   0.66620   0.00000  Uiso   1.00
O1060  O     0.72406   0.76424   0.59409   0.00000  Uiso   1.00
Zn1061 Zn    0.93786   0.83951   0.75624   0.00000  Uiso   1.00
Zn1062 Zn    0.72881   0.82716   0.74376   0.00000  Uiso   1.00
loop_
_geom_bond_atom_site_label_1
_geom_bond_atom_site_label_2
_geom_bond_distance
_geom_bond_site_symmetry_2
_ccdc_geom_bond_type
C1     O50     1.289   .     A
C1     C3      1.409   .     S
C1     O158    1.275   1_455 S
C2     C4      1.453   .     S
C2     C19     1.407   .     A
C2     C10     1.396   .     A
C3     C300    1.348   1_455 S
C3     H206    1.088   .     S
C4     O52     1.299   .     A
C4     O169    1.285   1_455 S
C5     C6      1.421   .     S
C5     C416    1.348   1_545 S
C5     C369    1.499   1_545 S
C6     O53     1.288   .     A
C6     O113    1.280   .     S
C7     O55     1.300   .     A
C7     C9      1.459   .     S
C7     O115    1.289   .     S
C8     C25     1.394   .     A
C8     C552    1.408   1_554 S
C8     H566    1.082   1_554 S
C9     C24     1.390   .     A
C9     C25     1.414   .     A
C10    H36     1.084   .     S
C10    C542    1.382   .     S
C11    C13     1.401   .     A
C11    H27     1.083   .     S
C11    C541    1.382   1_554 S
C12    C19     1.410   .     A
C12    C544    1.440   .     S
C12    C551    1.419   .     S
C13    C17     1.485   .     S
C13    C543    1.440   1_554 S
C14    O41     1.398   .     S
C14    O57     1.218   .     D
C14    C143    1.487   1_455 S
C15    O43     1.398   .     S
C15    C182    1.499   .     S
C15    O219    1.221   .     S
C16    O44     1.223   .     D
C16    C22     1.484   .     S
C16    O399    1.396   1_545 S
C17    O47     1.399   .     S
C17    O46     1.219   .     D
C18    C23     1.495   .     S
C18    O48     1.218   .     D
C18    O167    1.399   1_455 S
C19    C23     1.422   .     A
C20    C24     1.397   .     A
C20    C543    1.419   1_554 S
C20    C552    1.422   1_554 S
C21    C22     1.409   .     A
C21    C539    1.408   .     S
C21    C551    1.422   .     S
C22    C23     1.410   .     A
C24    H26     1.080   .     S
C25    C73     1.487   .     S
H28    O49     1.012   .     S
H29    C357    1.088   1_545 S
H30    O100    1.012   .     S
H31    O43     1.012   .     S
H32    N38     1.029   .     S
H33    N39     1.029   .     S
H34    O45     1.014   .     S
H35    C539    1.082   .     S
H37    O47     1.013   .     S
N38    N39     1.291   .     D
N38    Zn59    2.015   .     S
N39    Zn58    2.015   .     S
O40    Zn58    1.948   .     S
O40    C60     1.275   .     S
O41    H148    1.012   1_455 S
O42    C369    1.221   1_545 S
O45    C193    1.396   .     S
O49    C77     1.399   .     S
O50    Zn59    1.970   .     S
O51    Zn58    1.942   .     S
O51    C63     1.285   .     S
O52    Zn59    1.903   .     S
O53    Zn58    1.970   .     S
O54    Zn59    1.948   .     S
O54    C124    1.280   1_455 S
O55    Zn58    1.903   .     S
O56    Zn59    1.942   .     S
O56    C125    1.289   1_455 S
C60    O109    1.289   .     A
C60    C62     1.409   .     S
C61    C63     1.453   .     S
C61    C78     1.407   .     A
C61    C69     1.396   .     A
C62    C182    1.348   .     S
C62    H265    1.088   .     S
C63    O111    1.299   .     A
C64    C65     1.421   .     S
C64    C475    1.348   1_545 S
C64    C428    1.499   1_545 S
C65    O112    1.288   .     A
C65    O172    1.280   .     S
C66    O114    1.300   .     A
C66    C68     1.459   .     S
C66    O174    1.289   .     S
C67    C84     1.394   .     A
C67    C611    1.408   1_554 S
C67    H625    1.082   1_554 S
C68    C83     1.390   .     A
C68    C84     1.414   .     A
C69    H95     1.084   .     S
C69    C601    1.382   .     S
C70    C72     1.401   .     A
C70    H86     1.083   .     S
C70    C600    1.382   1_554 S
C71    C78     1.410   .     A
C71    C603    1.440   .     S
C71    C610    1.419   .     S
C72    C76     1.485   .     S
C72    C602    1.440   1_554 S
C73    O100    1.398   .     S
C73    O116    1.218   .     D
C74    O102    1.398   .     S
C74    C241    1.499   .     S
C74    O278    1.221   .     S
C75    O103    1.223   .     D
C75    C81     1.484   .     S
C75    O458    1.396   1_545 S
C76    O106    1.399   .     S
C76    O105    1.219   .     D
C77    C82     1.495   .     S
C77    O107    1.218   .     D
C78    C82     1.422   .     A
C79    C83     1.397   .     A
C79    C602    1.419   1_554 S
C79    C611    1.422   1_554 S
C80    C81     1.409   .     A
C80    C598    1.408   .     S
C80    C610    1.422   .     S
C81    C82     1.410   .     A
C83    H85     1.080   .     S
C84    C132    1.487   .     S
H87    O108    1.012   .     S
H88    C416    1.088   1_545 S
H89    O159    1.012   .     S
H90    O102    1.012   .     S
H91    N97     1.029   .     S
H92    N98     1.029   .     S
H93    O104    1.014   .     S
H94    C598    1.082   .     S
H96    O106    1.013   .     S
N97    N98     1.291   .     D
N97    Zn118   2.015   .     S
N98    Zn117   2.015   .     S
O99    Zn117   1.948   .     S
O99    C119    1.275   .     S
O101   C428    1.221   1_545 S
O104   C252    1.396   .     S
O108   C136    1.399   .     S
O109   Zn118   1.970   .     S
O110   Zn117   1.942   .     S
O110   C122    1.285   .     S
O111   Zn118   1.903   .     S
O112   Zn117   1.970   .     S
O113   Zn118   1.948   .     S
O114   Zn117   1.903   .     S
O115   Zn118   1.942   .     S
C119   O168    1.289   .     A
C119   C121    1.409   .     S
C120   C122    1.453   .     S
C120   C137    1.407   .     A
C120   C128    1.396   .     A
C121   C241    1.348   .     S
C121   H324    1.088   .     S
C122   O170    1.299   .     A
C123   C124    1.421   .     S
C123   C357    1.348   1_645 S
C123   C487    1.499   1_545 S
C124   O171    1.288   .     A
C124   O54     1.280   1_655 S
C125   O173    1.300   .     A
C125   C127    1.459   .     S
C125   O56     1.289   1_655 S
C126   C143    1.394   .     A
C126   C670    1.408   1_554 S
C126   H684    1.082   1_554 S
C127   C142    1.390   .     A
C127   C143    1.414   .     A
C128   H154    1.084   .     S
C128   C660    1.382   .     S
C129   C131    1.401   .     A
C129   H145    1.083   .     S
C129   C659    1.382   1_554 S
C130   C137    1.410   .     A
C130   C662    1.440   .     S
C130   C669    1.419   .     S
C131   C135    1.485   .     S
C131   C661    1.440   1_554 S
C132   O159    1.398   .     S
C132   O175    1.218   .     D
C133   O161    1.398   .     S
C133   C300    1.499   .     S
C133   O337    1.221   .     S
C134   O162    1.223   .     D
C134   C140    1.484   .     S
C134   O517    1.396   1_545 S
C135   O165    1.399   .     S
C135   O164    1.219   .     D
C136   C141    1.495   .     S
C136   O166    1.218   .     D
C137   C141    1.422   .     A
C138   C142    1.397   .     A
C138   C661    1.419   1_554 S
C138   C670    1.422   1_554 S
C139   C140    1.409   .     A
C139   C657    1.408   .     S
C139   C669    1.422   .     S
C140   C141    1.410   .     A
C142   H144    1.080   .     S
C143   C14     1.487   1_655 S
H146   O167    1.012   .     S
H147   C475    1.088   1_545 S
H148   O41     1.012   1_655 S
H149   O161    1.012   .     S
H150   N156    1.029   .     S
H151   N157    1.029   .     S
H152   O163    1.014   .     S
H153   C657    1.082   .     S
H155   O165    1.013   .     S
N156   N157    1.291   .     D
N156   Zn177   2.015   .     S
N157   Zn176   2.015   .     S
O158   Zn176   1.948   .     S
O158   C1      1.275   1_655 S
O160   C487    1.221   1_545 S
O163   C311    1.396   .     S
O167   C18     1.399   1_655 S
O168   Zn177   1.970   .     S
O169   Zn176   1.942   .     S
O169   C4      1.285   1_655 S
O170   Zn177   1.903   .     S
O171   Zn176   1.970   .     S
O172   Zn177   1.948   .     S
O173   Zn176   1.903   .     S
O174   Zn177   1.942   .     S
C178   O227    1.289   .     A
C178   C180    1.409   .     S
C178   O335    1.275   1_455 S
C179   C181    1.453   .     S
C179   C196    1.407   .     A
C179   C187    1.396   .     A
C180   C477    1.348   1_455 S
C180   H383    1.088   .     S
C181   O229    1.299   .     A
C181   O346    1.285   1_455 S
C182   C183    1.421   .     S
C183   O230    1.288   .     A
C183   O290    1.280   .     S
C184   O232    1.300   .     A
C184   C186    1.459   .     S
C184   O292    1.289   .     S
C185   C202    1.394   .     A
C185   C729    1.408   1_554 S
C185   H743    1.082   1_554 S
C186   C201    1.390   .     A
C186   C202    1.414   .     A
C187   H213    1.084   .     S
C187   C719    1.382   .     S
C188   C190    1.401   .     A
C188   H204    1.083   .     S
C188   C718    1.382   1_554 S
C189   C196    1.410   .     A
C189   C721    1.440   .     S
C189   C728    1.419   .     S
C190   C194    1.485   .     S
C190   C720    1.440   1_554 S
C191   O218    1.398   .     S
C191   O234    1.218   .     D
C191   C320    1.487   1_455 S
C192   O220    1.398   .     S
C192   C359    1.499   .     S
C192   O396    1.221   .     S
C193   O221    1.223   .     D
C193   C199    1.484   .     S
C194   O224    1.399   .     S
C194   O223    1.219   .     D
C195   C200    1.495   .     S
C195   O225    1.218   .     D
C195   O344    1.399   1_455 S
C196   C200    1.422   .     A
C197   C201    1.397   .     A
C197   C720    1.419   1_554 S
C197   C729    1.422   1_554 S
C198   C199    1.409   .     A
C198   C716    1.408   .     S
C198   C728    1.422   .     S
C199   C200    1.410   .     A
C201   H203    1.080   .     S
C202   C250    1.487   .     S
H205   O226    1.012   .     S
H207   O277    1.012   .     S
H208   O220    1.012   .     S
H209   N215    1.029   .     S
H210   N216    1.029   .     S
H211   O222    1.014   .     S
H212   C716    1.082   .     S
H214   O224    1.013   .     S
N215   N216    1.291   .     D
N215   Zn236   2.015   .     S
N216   Zn235   2.015   .     S
O217   Zn235   1.948   .     S
O217   C237    1.275   .     S
O218   H325    1.012   1_455 S
O222   C370    1.396   .     S
O226   C254    1.399   .     S
O227   Zn236   1.970   .     S
O228   Zn235   1.942   .     S
O228   C240    1.285   .     S
O229   Zn236   1.903   .     S
O230   Zn235   1.970   .     S
O231   Zn236   1.948   .     S
O231   C301    1.280   1_455 S
O232   Zn235   1.903   .     S
O233   Zn236   1.942   .     S
O233   C302    1.289   1_455 S
C237   O286    1.289   .     A
C237   C239    1.409   .     S
C238   C240    1.453   .     S
C238   C255    1.407   .     A
C238   C246    1.396   .     A
C239   C359    1.348   .     S
C239   H442    1.088   .     S
C240   O288    1.299   .     A
C241   C242    1.421   .     S
C242   O289    1.288   .     A
C242   O349    1.280   .     S
C243   O291    1.300   .     A
C243   C245    1.459   .     S
C243   O351    1.289   .     S
C244   C261    1.394   .     A
C244   C788    1.408   1_554 S
C244   H802    1.082   1_554 S
C245   C260    1.390   .     A
C245   C261    1.414   .     A
C246   H272    1.084   .     S
C246   C778    1.382   .     S
C247   C249    1.401   .     A
C247   H263    1.083   .     S
C247   C777    1.382   1_554 S
C248   C255    1.410   .     A
C248   C780    1.440   .     S
C248   C787    1.419   .     S
C249   C253    1.485   .     S
C249   C779    1.440   1_554 S
C250   O277    1.398   .     S
C250   O293    1.218   .     D
C251   O279    1.398   .     S
C251   C418    1.499   .     S
C251   O455    1.221   .     S
C252   O280    1.223   .     D
C252   C258    1.484   .     S
C253   O283    1.399   .     S
C253   O282    1.219   .     D
C254   C259    1.495   .     S
C254   O284    1.218   .     D
C255   C259    1.422   .     A
C256   C260    1.397   .     A
C256   C779    1.419   1_554 S
C256   C788    1.422   1_554 S
C257   C258    1.409   .     A
C257   C775    1.408   .     S
C257   C787    1.422   .     S
C258   C259    1.410   .     A
C260   H262    1.080   .     S
C261   C309    1.487   .     S
H264   O285    1.012   .     S
H266   O336    1.012   .     S
H267   O279    1.012   .     S
H268   N274    1.029   .     S
H269   N275    1.029   .     S
H270   O281    1.014   .     S
H271   C775    1.082   .     S
H273   O283    1.013   .     S
N274   N275    1.291   .     D
N274   Zn295   2.015   .     S
N275   Zn294   2.015   .     S
O276   Zn294   1.948   .     S
O276   C296    1.275   .     S
O281   C429    1.396   .     S
O285   C313    1.399   .     S
O286   Zn295   1.970   .     S
O287   Zn294   1.942   .     S
O287   C299    1.285   .     S
O288   Zn295   1.903   .     S
O289   Zn294   1.970   .     S
O290   Zn295   1.948   .     S
O291   Zn294   1.903   .     S
O292   Zn295   1.942   .     S
C296   O345    1.289   .     A
C296   C298    1.409   .     S
C297   C299    1.453   .     S
C297   C314    1.407   .     A
C297   C305    1.396   .     A
C298   C418    1.348   .     S
C298   H501    1.088   .     S
C299   O347    1.299   .     A
C300   C301    1.421   .     S
C300   C3      1.348   1_655 S
C301   O348    1.288   .     A
C301   O231    1.280   1_655 S
C302   O350    1.300   .     A
C302   C304    1.459   .     S
C302   O233    1.289   1_655 S
C303   C320    1.394   .     A
C303   C847    1.408   1_554 S
C303   H861    1.082   1_554 S
C304   C319    1.390   .     A
C304   C320    1.414   .     A
C305   H331    1.084   .     S
C305   C837    1.382   .     S
C306   C308    1.401   .     A
C306   H322    1.083   .     S
C306   C836    1.382   1_554 S
C307   C314    1.410   .     A
C307   C839    1.440   .     S
C307   C846    1.419   .     S
C308   C312    1.485   .     S
C308   C838    1.440   1_554 S
C309   O336    1.398   .     S
C309   O352    1.218   .     D
C310   O338    1.398   .     S
C310   C477    1.499   .     S
C310   O514    1.221   .     S
C311   O339    1.223   .     D
C311   C317    1.484   .     S
C312   O342    1.399   .     S
C312   O341    1.219   .     D
C313   C318    1.495   .     S
C313   O343    1.218   .     D
C314   C318    1.422   .     A
C315   C319    1.397   .     A
C315   C838    1.419   1_554 S
C315   C847    1.422   1_554 S
C316   C317    1.409   .     A
C316   C834    1.408   .     S
C316   C846    1.422   .     S
C317   C318    1.410   .     A
C319   H321    1.080   .     S
C320   C191    1.487   1_655 S
H323   O344    1.012   .     S
H325   O218    1.012   1_655 S
H326   O338    1.012   .     S
H327   N333    1.029   .     S
H328   N334    1.029   .     S
H329   O340    1.014   .     S
H330   C834    1.082   .     S
H332   O342    1.013   .     S
N333   N334    1.291   .     D
N333   Zn354   2.015   .     S
N334   Zn353   2.015   .     S
O335   Zn353   1.948   .     S
O335   C178    1.275   1_655 S
O340   C488    1.396   .     S
O344   C195    1.399   1_655 S
O345   Zn354   1.970   .     S
O346   Zn353   1.942   .     S
O346   C181    1.285   1_655 S
O347   Zn354   1.903   .     S
O348   Zn353   1.970   .     S
O349   Zn354   1.948   .     S
O350   Zn353   1.903   .     S
O351   Zn354   1.942   .     S
C355   O404    1.289   .     A
C355   C357    1.409   .     S
C355   O512    1.275   1_455 S
C356   C358    1.453   .     S
C356   C373    1.407   .     A
C356   C364    1.396   .     A
C357   C123    1.348   1_465 S
C357   H29     1.088   1_565 S
C358   O406    1.299   .     A
C358   O523    1.285   1_455 S
C359   C360    1.421   .     S
C360   O407    1.288   .     A
C360   O467    1.280   .     S
C361   O409    1.300   .     A
C361   C363    1.459   .     S
C361   O469    1.289   .     S
C362   C379    1.394   .     A
C362   C906    1.408   1_554 S
C362   H920    1.082   1_554 S
C363   C378    1.390   .     A
C363   C379    1.414   .     A
C364   H390    1.084   .     S
C364   C896    1.382   .     S
C365   C367    1.401   .     A
C365   H381    1.083   .     S
C365   C895    1.382   1_554 S
C366   C373    1.410   .     A
C366   C898    1.440   .     S
C366   C905    1.419   .     S
C367   C371    1.485   .     S
C367   C897    1.440   1_554 S
C368   O395    1.398   .     S
C368   O411    1.218   .     D
C368   C497    1.487   1_455 S
C369   O397    1.398   .     S
C369   C5      1.499   1_565 S
C369   O42     1.221   1_565 S
C370   O398    1.223   .     D
C370   C376    1.484   .     S
C371   O401    1.399   .     S
C371   O400    1.219   .     D
C372   C377    1.495   .     S
C372   O402    1.218   .     D
C372   O521    1.399   1_455 S
C373   C377    1.422   .     A
C374   C378    1.397   .     A
C374   C897    1.419   1_554 S
C374   C906    1.422   1_554 S
C375   C376    1.409   .     A
C375   C893    1.408   .     S
C375   C905    1.422   .     S
C376   C377    1.410   .     A
C378   H380    1.080   .     S
C379   C427    1.487   .     S
H382   O403    1.012   .     S
H384   O454    1.012   .     S
H385   O397    1.012   .     S
H386   N392    1.029   .     S
H387   N393    1.029   .     S
H388   O399    1.014   .     S
H389   C893    1.082   .     S
H391   O401    1.013   .     S
N392   N393    1.291   .     D
N392   Zn413   2.015   .     S
N393   Zn412   2.015   .     S
O394   Zn412   1.948   .     S
O394   C414    1.275   .     S
O395   H502    1.012   1_455 S
O399   C16     1.396   1_565 S
O403   C431    1.399   .     S
O404   Zn413   1.970   .     S
O405   Zn412   1.942   .     S
O405   C417    1.285   .     S
O406   Zn413   1.903   .     S
O407   Zn412   1.970   .     S
O408   Zn413   1.948   .     S
O408   C478    1.280   1_455 S
O409   Zn412   1.903   .     S
O410   Zn413   1.942   .     S
O410   C479    1.289   1_455 S
C414   O463    1.289   .     A
C414   C416    1.409   .     S
C415   C417    1.453   .     S
C415   C432    1.407   .     A
C415   C423    1.396   .     A
C416   C5      1.348   1_565 S
C416   H88     1.088   1_565 S
C417   O465    1.299   .     A
C418   C419    1.421   .     S
C419   O466    1.288   .     A
C419   O526    1.280   .     S
C420   O468    1.300   .     A
C420   C422    1.459   .     S
C420   O528    1.289   .     S
C421   C438    1.394   .     A
C421   C965    1.408   1_554 S
C421   H979    1.082   1_554 S
C422   C437    1.390   .     A
C422   C438    1.414   .     A
C423   H449    1.084   .     S
C423   C955    1.382   .     S
C424   C426    1.401   .     A
C424   H440    1.083   .     S
C424   C954    1.382   1_554 S
C425   C432    1.410   .     A
C425   C957    1.440   .     S
C425   C964    1.419   .     S
C426   C430    1.485   .     S
C426   C956    1.440   1_554 S
C427   O454    1.398   .     S
C427   O470    1.218   .     D
C428   O456    1.398   .     S
C428   C64     1.499   1_565 S
C428   O101    1.221   1_565 S
C429   O457    1.223   .     D
C429   C435    1.484   .     S
C430   O460    1.399   .     S
C430   O459    1.219   .     D
C431   C436    1.495   .     S
C431   O461    1.218   .     D
C432   C436    1.422   .     A
C433   C437    1.397   .     A
C433   C956    1.419   1_554 S
C433   C965    1.422   1_554 S
C434   C435    1.409   .     A
C434   C952    1.408   .     S
C434   C964    1.422   .     S
C435   C436    1.410   .     A
C437   H439    1.080   .     S
C438   C486    1.487   .     S
H441   O462    1.012   .     S
H443   O513    1.012   .     S
H444   O456    1.012   .     S
H445   N451    1.029   .     S
H446   N452    1.029   .     S
H447   O458    1.014   .     S
H448   C952    1.082   .     S
H450   O460    1.013   .     S
N451   N452    1.291   .     D
N451   Zn472   2.015   .     S
N452   Zn471   2.015   .     S
O453   Zn471   1.948   .     S
O453   C473    1.275   .     S
O458   C75     1.396   1_565 S
O462   C490    1.399   .     S
O463   Zn472   1.970   .     S
O464   Zn471   1.942   .     S
O464   C476    1.285   .     S
O465   Zn472   1.903   .     S
O466   Zn471   1.970   .     S
O467   Zn472   1.948   .     S
O468   Zn471   1.903   .     S
O469   Zn472   1.942   .     S
C473   O522    1.289   .     A
C473   C475    1.409   .     S
C474   C476    1.453   .     S
C474   C491    1.407   .     A
C474   C482    1.396   .     A
C475   C64     1.348   1_565 S
C475   H147    1.088   1_565 S
C476   O524    1.299   .     A
C477   C478    1.421   .     S
C477   C180    1.348   1_655 S
C478   O525    1.288   .     A
C478   O408    1.280   1_655 S
C479   O527    1.300   .     A
C479   C481    1.459   .     S
C479   O410    1.289   1_655 S
C480   C497    1.394   .     A
C480   C1024   1.408   1_554 S
C480   H1038   1.082   1_554 S
C481   C496    1.390   .     A
C481   C497    1.414   .     A
C482   H508    1.084   .     S
C482   C1014   1.382   .     S
C483   C485    1.401   .     A
C483   H499    1.083   .     S
C483   C1013   1.382   1_554 S
C484   C491    1.410   .     A
C484   C1016   1.440   .     S
C484   C1023   1.419   .     S
C485   C489    1.485   .     S
C485   C1015   1.440   1_554 S
C486   O513    1.398   .     S
C486   O529    1.218   .     D
C487   O515    1.398   .     S
C487   C123    1.499   1_565 S
C487   O160    1.221   1_565 S
C488   O516    1.223   .     D
C488   C494    1.484   .     S
C489   O519    1.399   .     S
C489   O518    1.219   .     D
C490   C495    1.495   .     S
C490   O520    1.218   .     D
C491   C495    1.422   .     A
C492   C496    1.397   .     A
C492   C1015   1.419   1_554 S
C492   C1024   1.422   1_554 S
C493   C494    1.409   .     A
C493   C1011   1.408   .     S
C493   C1023   1.422   .     S
C494   C495    1.410   .     A
C496   H498    1.080   .     S
C497   C368    1.487   1_655 S
H500   O521    1.012   .     S
H502   O395    1.012   1_655 S
H503   O515    1.012   .     S
H504   N510    1.029   .     S
H505   N511    1.029   .     S
H506   O517    1.014   .     S
H507   C1011   1.082   .     S
H509   O519    1.013   .     S
N510   N511    1.291   .     D
N510   Zn531   2.015   .     S
N511   Zn530   2.015   .     S
O512   Zn530   1.948   .     S
O512   C355    1.275   1_655 S
O517   C134    1.396   1_565 S
O521   C372    1.399   1_655 S
O522   Zn531   1.970   .     S
O523   Zn530   1.942   .     S
O523   C358    1.285   1_655 S
O524   Zn531   1.903   .     S
O525   Zn530   1.970   .     S
O526   Zn531   1.948   .     S
O527   Zn530   1.903   .     S
O528   Zn531   1.942   .     S
C532   O581    1.289   .     A
C532   C534    1.409   .     S
C532   O689    1.275   1_455 S
C533   C535    1.453   .     S
C533   C550    1.407   .     A
C533   C541    1.396   .     A
C534   C831    1.348   1_455 S
C534   H737    1.088   .     S
C535   O583    1.299   .     A
C535   O700    1.285   1_455 S
C536   C537    1.421   .     S
C536   C947    1.348   1_545 S
C536   C900    1.499   1_545 S
C537   O584    1.288   .     A
C537   O644    1.280   .     S
C538   O586    1.300   .     A
C538   C540    1.459   .     S
C538   O646    1.289   .     S
C539   C556    1.394   .     A
C540   C555    1.390   .     A
C540   C556    1.414   .     A
C541   H567    1.084   .     S
C541   C11     1.382   1_556 S
C542   C544    1.401   .     A
C542   H558    1.083   .     S
C543   C550    1.410   .     A
C543   C13     1.440   1_556 S
C543   C20     1.419   1_556 S
C544   C548    1.485   .     S
C545   O572    1.398   .     S
C545   O588    1.218   .     D
C545   C674    1.487   1_455 S
C546   O574    1.398   .     S
C546   C713    1.499   .     S
C546   O750    1.221   .     S
C547   O575    1.223   .     D
C547   C553    1.484   .     S
C547   O930    1.396   1_545 S
C548   O578    1.399   .     S
C548   O577    1.219   .     D
C549   C554    1.495   .     S
C549   O579    1.218   .     D
C549   O698    1.399   1_455 S
C550   C554    1.422   .     A
C551   C555    1.397   .     A
C552   C553    1.409   .     A
C552   C8      1.408   1_556 S
C552   C20     1.422   1_556 S
C553   C554    1.410   .     A
C555   H557    1.080   .     S
C556   C604    1.487   .     S
H559   O580    1.012   .     S
H560   C888    1.088   1_545 S
H561   O631    1.012   .     S
H562   O574    1.012   .     S
H563   N569    1.029   .     S
H564   N570    1.029   .     S
H565   O576    1.014   .     S
H566   C8      1.082   1_556 S
H568   O578    1.013   .     S
N569   N570    1.291   .     D
N569   Zn590   2.015   .     S
N570   Zn589   2.015   .     S
O571   Zn589   1.948   .     S
O571   C591    1.275   .     S
O572   H679    1.012   1_455 S
O573   C900    1.221   1_545 S
O576   C724    1.396   .     S
O580   C608    1.399   .     S
O581   Zn590   1.970   .     S
O582   Zn589   1.942   .     S
O582   C594    1.285   .     S
O583   Zn590   1.903   .     S
O584   Zn589   1.970   .     S
O585   Zn590   1.948   .     S
O585   C655    1.280   1_455 S
O586   Zn589   1.903   .     S
O587   Zn590   1.942   .     S
O587   C656    1.289   1_455 S
C591   O640    1.289   .     A
C591   C593    1.409   .     S
C592   C594    1.453   .     S
C592   C609    1.407   .     A
C592   C600    1.396   .     A
C593   C713    1.348   .     S
C593   H796    1.088   .     S
C594   O642    1.299   .     A
C595   C596    1.421   .     S
C595   C1006   1.348   1_545 S
C595   C959    1.499   1_545 S
C596   O643    1.288   .     A
C596   O703    1.280   .     S
C597   O645    1.300   .     A
C597   C599    1.459   .     S
C597   O705    1.289   .     S
C598   C615    1.394   .     A
C599   C614    1.390   .     A
C599   C615    1.414   .     A
C600   H626    1.084   .     S
C600   C70     1.382   1_556 S
C601   C603    1.401   .     A
C601   H617    1.083   .     S
C602   C609    1.410   .     A
C602   C72     1.440   1_556 S
C602   C79     1.419   1_556 S
C603   C607    1.485   .     S
C604   O631    1.398   .     S
C604   O647    1.218   .     D
C605   O633    1.398   .     S
C605   C772    1.499   .     S
C605   O809    1.221   .     S
C606   O634    1.223   .     D
C606   C612    1.484   .     S
C606   O989    1.396   1_545 S
C607   O637    1.399   .     S
C607   O636    1.219   .     D
C608   C613    1.495   .     S
C608   O638    1.218   .     D
C609   C613    1.422   .     A
C610   C614    1.397   .     A
C611   C612    1.409   .     A
C611   C67     1.408   1_556 S
C611   C79     1.422   1_556 S
C612   C613    1.410   .     A
C614   H616    1.080   .     S
C615   C663    1.487   .     S
H618   O639    1.012   .     S
H619   C947    1.088   1_545 S
H620   O690    1.012   .     S
H621   O633    1.012   .     S
H622   N628    1.029   .     S
H623   N629    1.029   .     S
H624   O635    1.014   .     S
H625   C67     1.082   1_556 S
H627   O637    1.013   .     S
N628   N629    1.291   .     D
N628   Zn649   2.015   .     S
N629   Zn648   2.015   .     S
O630   Zn648   1.948   .     S
O630   C650    1.275   .     S
O632   C959    1.221   1_545 S
O635   C783    1.396   .     S
O639   C667    1.399   .     S
O640   Zn649   1.970   .     S
O641   Zn648   1.942   .     S
O641   C653    1.285   .     S
O642   Zn649   1.903   .     S
O643   Zn648   1.970   .     S
O644   Zn649   1.948   .     S
O645   Zn648   1.903   .     S
O646   Zn649   1.942   .     S
C650   O699    1.289   .     A
C650   C652    1.409   .     S
C651   C653    1.453   .     S
C651   C668    1.407   .     A
C651   C659    1.396   .     A
C652   C772    1.348   .     S
C652   H855    1.088   .     S
C653   O701    1.299   .     A
C654   C655    1.421   .     S
C654   C888    1.348   1_645 S
C654   C1018   1.499   1_545 S
C655   O702    1.288   .     A
C655   O585    1.280   1_655 S
C656   O704    1.300   .     A
C656   C658    1.459   .     S
C656   O587    1.289   1_655 S
C657   C674    1.394   .     A
C658   C673    1.390   .     A
C658   C674    1.414   .     A
C659   H685    1.084   .     S
C659   C129    1.382   1_556 S
C660   C662    1.401   .     A
C660   H676    1.083   .     S
C661   C668    1.410   .     A
C661   C131    1.440   1_556 S
C661   C138    1.419   1_556 S
C662   C666    1.485   .     S
C663   O690    1.398   .     S
C663   O706    1.218   .     D
C664   O692    1.398   .     S
C664   C831    1.499   .     S
C664   O868    1.221   .     S
C665   O693    1.223   .     D
C665   C671    1.484   .     S
C665   O1048   1.396   1_545 S
C666   O696    1.399   .     S
C666   O695    1.219   .     D
C667   C672    1.495   .     S
C667   O697    1.218   .     D
C668   C672    1.422   .     A
C669   C673    1.397   .     A
C670   C671    1.409   .     A
C670   C126    1.408   1_556 S
C670   C138    1.422   1_556 S
C671   C672    1.410   .     A
C673   H675    1.080   .     S
C674   C545    1.487   1_655 S
H677   O698    1.012   .     S
H678   C1006   1.088   1_545 S
H679   O572    1.012   1_655 S
H680   O692    1.012   .     S
H681   N687    1.029   .     S
H682   N688    1.029   .     S
H683   O694    1.014   .     S
H684   C126    1.082   1_556 S
H686   O696    1.013   .     S
N687   N688    1.291   .     D
N687   Zn708   2.015   .     S
N688   Zn707   2.015   .     S
O689   Zn707   1.948   .     S
O689   C532    1.275   1_655 S
O691   C1018   1.221   1_545 S
O694   C842    1.396   .     S
O698   C549    1.399   1_655 S
O699   Zn708   1.970   .     S
O700   Zn707   1.942   .     S
O700   C535    1.285   1_655 S
O701   Zn708   1.903   .     S
O702   Zn707   1.970   .     S
O703   Zn708   1.948   .     S
O704   Zn707   1.903   .     S
O705   Zn708   1.942   .     S
C709   O758    1.289   .     A
C709   C711    1.409   .     S
C709   O866    1.275   1_455 S
C710   C712    1.453   .     S
C710   C727    1.407   .     A
C710   C718    1.396   .     A
C711   C1008   1.348   1_455 S
C711   H914    1.088   .     S
C712   O760    1.299   .     A
C712   O877    1.285   1_455 S
C713   C714    1.421   .     S
C714   O761    1.288   .     A
C714   O821    1.280   .     S
C715   O763    1.300   .     A
C715   C717    1.459   .     S
C715   O823    1.289   .     S
C716   C733    1.394   .     A
C717   C732    1.390   .     A
C717   C733    1.414   .     A
C718   H744    1.084   .     S
C718   C188    1.382   1_556 S
C719   C721    1.401   .     A
C719   H735    1.083   .     S
C720   C727    1.410   .     A
C720   C190    1.440   1_556 S
C720   C197    1.419   1_556 S
C721   C725    1.485   .     S
C722   O749    1.398   .     S
C722   O765    1.218   .     D
C722   C851    1.487   1_455 S
C723   O751    1.398   .     S
C723   C890    1.499   .     S
C723   O927    1.221   .     S
C724   O752    1.223   .     D
C724   C730    1.484   .     S
C725   O755    1.399   .     S
C725   O754    1.219   .     D
C726   C731    1.495   .     S
C726   O756    1.218   .     D
C726   O875    1.399   1_455 S
C727   C731    1.422   .     A
C728   C732    1.397   .     A
C729   C730    1.409   .     A
C729   C185    1.408   1_556 S
C729   C197    1.422   1_556 S
C730   C731    1.410   .     A
C732   H734    1.080   .     S
C733   C781    1.487   .     S
H736   O757    1.012   .     S
H738   O808    1.012   .     S
H739   O751    1.012   .     S
H740   N746    1.029   .     S
H741   N747    1.029   .     S
H742   O753    1.014   .     S
H743   C185    1.082   1_556 S
H745   O755    1.013   .     S
N746   N747    1.291   .     D
N746   Zn767   2.015   .     S
N747   Zn766   2.015   .     S
O748   Zn766   1.948   .     S
O748   C768    1.275   .     S
O749   H856    1.012   1_455 S
O753   C901    1.396   .     S
O757   C785    1.399   .     S
O758   Zn767   1.970   .     S
O759   Zn766   1.942   .     S
O759   C771    1.285   .     S
O760   Zn767   1.903   .     S
O761   Zn766   1.970   .     S
O762   Zn767   1.948   .     S
O762   C832    1.280   1_455 S
O763   Zn766   1.903   .     S
O764   Zn767   1.942   .     S
O764   C833    1.289   1_455 S
C768   O817    1.289   .     A
C768   C770    1.409   .     S
C769   C771    1.453   .     S
C769   C786    1.407   .     A
C769   C777    1.396   .     A
C770   C890    1.348   .     S
C770   H973    1.088   .     S
C771   O819    1.299   .     A
C772   C773    1.421   .     S
C773   O820    1.288   .     A
C773   O880    1.280   .     S
C774   O822    1.300   .     A
C774   C776    1.459   .     S
C774   O882    1.289   .     S
C775   C792    1.394   .     A
C776   C791    1.390   .     A
C776   C792    1.414   .     A
C777   H803    1.084   .     S
C777   C247    1.382   1_556 S
C778   C780    1.401   .     A
C778   H794    1.083   .     S
C779   C786    1.410   .     A
C779   C249    1.440   1_556 S
C779   C256    1.419   1_556 S
C780   C784    1.485   .     S
C781   O808    1.398   .     S
C781   O824    1.218   .     D
C782   O810    1.398   .     S
C782   C949    1.499   .     S
C782   O986    1.221   .     S
C783   O811    1.223   .     D
C783   C789    1.484   .     S
C784   O814    1.399   .     S
C784   O813    1.219   .     D
C785   C790    1.495   .     S
C785   O815    1.218   .     D
C786   C790    1.422   .     A
C787   C791    1.397   .     A
C788   C789    1.409   .     A
C788   C244    1.408   1_556 S
C788   C256    1.422   1_556 S
C789   C790    1.410   .     A
C791   H793    1.080   .     S
C792   C840    1.487   .     S
H795   O816    1.012   .     S
H797   O867    1.012   .     S
H798   O810    1.012   .     S
H799   N805    1.029   .     S
H800   N806    1.029   .     S
H801   O812    1.014   .     S
H802   C244    1.082   1_556 S
H804   O814    1.013   .     S
N805   N806    1.291   .     D
N805   Zn826   2.015   .     S
N806   Zn825   2.015   .     S
O807   Zn825   1.948   .     S
O807   C827    1.275   .     S
O812   C960    1.396   .     S
O816   C844    1.399   .     S
O817   Zn826   1.970   .     S
O818   Zn825   1.942   .     S
O818   C830    1.285   .     S
O819   Zn826   1.903   .     S
O820   Zn825   1.970   .     S
O821   Zn826   1.948   .     S
O822   Zn825   1.903   .     S
O823   Zn826   1.942   .     S
C827   O876    1.289   .     A
C827   C829    1.409   .     S
C828   C830    1.453   .     S
C828   C845    1.407   .     A
C828   C836    1.396   .     A
C829   C949    1.348   .     S
C829   H1032   1.088   .     S
C830   O878    1.299   .     A
C831   C832    1.421   .     S
C831   C534    1.348   1_655 S
C832   O879    1.288   .     A
C832   O762    1.280   1_655 S
C833   O881    1.300   .     A
C833   C835    1.459   .     S
C833   O764    1.289   1_655 S
C834   C851    1.394   .     A
C835   C850    1.390   .     A
C835   C851    1.414   .     A
C836   H862    1.084   .     S
C836   C306    1.382   1_556 S
C837   C839    1.401   .     A
C837   H853    1.083   .     S
C838   C845    1.410   .     A
C838   C308    1.440   1_556 S
C838   C315    1.419   1_556 S
C839   C843    1.485   .     S
C840   O867    1.398   .     S
C840   O883    1.218   .     D
C841   O869    1.398   .     S
C841   C1008   1.499   .     S
C841   O1045   1.221   .     S
C842   O870    1.223   .     D
C842   C848    1.484   .     S
C843   O873    1.399   .     S
C843   O872    1.219   .     D
C844   C849    1.495   .     S
C844   O874    1.218   .     D
C845   C849    1.422   .     A
C846   C850    1.397   .     A
C847   C848    1.409   .     A
C847   C303    1.408   1_556 S
C847   C315    1.422   1_556 S
C848   C849    1.410   .     A
C850   H852    1.080   .     S
C851   C722    1.487   1_655 S
H854   O875    1.012   .     S
H856   O749    1.012   1_655 S
H857   O869    1.012   .     S
H858   N864    1.029   .     S
H859   N865    1.029   .     S
H860   O871    1.014   .     S
H861   C303    1.082   1_556 S
H863   O873    1.013   .     S
N864   N865    1.291   .     D
N864   Zn885   2.015   .     S
N865   Zn884   2.015   .     S
O866   Zn884   1.948   .     S
O866   C709    1.275   1_655 S
O871   C1019   1.396   .     S
O875   C726    1.399   1_655 S
O876   Zn885   1.970   .     S
O877   Zn884   1.942   .     S
O877   C712    1.285   1_655 S
O878   Zn885   1.903   .     S
O879   Zn884   1.970   .     S
O880   Zn885   1.948   .     S
O881   Zn884   1.903   .     S
O882   Zn885   1.942   .     S
C886   O935    1.289   .     A
C886   C888    1.409   .     S
C886   O1043   1.275   1_455 S
C887   C889    1.453   .     S
C887   C904    1.407   .     A
C887   C895    1.396   .     A
C888   C654    1.348   1_465 S
C888   H560    1.088   1_565 S
C889   O937    1.299   .     A
C889   O1054   1.285   1_455 S
C890   C891    1.421   .     S
C891   O938    1.288   .     A
C891   O998    1.280   .     S
C892   O940    1.300   .     A
C892   C894    1.459   .     S
C892   O1000   1.289   .     S
C893   C910    1.394   .     A
C894   C909    1.390   .     A
C894   C910    1.414   .     A
C895   H921    1.084   .     S
C895   C365    1.382   1_556 S
C896   C898    1.401   .     A
C896   H912    1.083   .     S
C897   C904    1.410   .     A
C897   C367    1.440   1_556 S
C897   C374    1.419   1_556 S
C898   C902    1.485   .     S
C899   O926    1.398   .     S
C899   O942    1.218   .     D
C899   C1028   1.487   1_455 S
C900   O928    1.398   .     S
C900   C536    1.499   1_565 S
C900   O573    1.221   1_565 S
C901   O929    1.223   .     D
C901   C907    1.484   .     S
C902   O932    1.399   .     S
C902   O931    1.219   .     D
C903   C908    1.495   .     S
C903   O933    1.218   .     D
C903   O1052   1.399   1_455 S
C904   C908    1.422   .     A
C905   C909    1.397   .     A
C906   C907    1.409   .     A
C906   C362    1.408   1_556 S
C906   C374    1.422   1_556 S
C907   C908    1.410   .     A
C909   H911    1.080   .     S
C910   C958    1.487   .     S
H913   O934    1.012   .     S
H915   O985    1.012   .     S
H916   O928    1.012   .     S
H917   N923    1.029   .     S
H918   N924    1.029   .     S
H919   O930    1.014   .     S
H920   C362    1.082   1_556 S
H922   O932    1.013   .     S
N923   N924    1.291   .     D
N923   Zn944   2.015   .     S
N924   Zn943   2.015   .     S
O925   Zn943   1.948   .     S
O925   C945    1.275   .     S
O926   H1033   1.012   1_455 S
O930   C547    1.396   1_565 S
O934   C962    1.399   .     S
O935   Zn944   1.970   .     S
O936   Zn943   1.942   .     S
O936   C948    1.285   .     S
O937   Zn944   1.903   .     S
O938   Zn943   1.970   .     S
O939   Zn944   1.948   .     S
O939   C1009   1.280   1_455 S
O940   Zn943   1.903   .     S
O941   Zn944   1.942   .     S
O941   C1010   1.289   1_455 S
C945   O994    1.289   .     A
C945   C947    1.409   .     S
C946   C948    1.453   .     S
C946   C963    1.407   .     A
C946   C954    1.396   .     A
C947   C536    1.348   1_565 S
C947   H619    1.088   1_565 S
C948   O996    1.299   .     A
C949   C950    1.421   .     S
C950   O997    1.288   .     A
C950   O1057   1.280   .     S
C951   O999    1.300   .     A
C951   C953    1.459   .     S
C951   O1059   1.289   .     S
C952   C969    1.394   .     A
C953   C968    1.390   .     A
C953   C969    1.414   .     A
C954   H980    1.084   .     S
C954   C424    1.382   1_556 S
C955   C957    1.401   .     A
C955   H971    1.083   .     S
C956   C963    1.410   .     A
C956   C426    1.440   1_556 S
C956   C433    1.419   1_556 S
C957   C961    1.485   .     S
C958   O985    1.398   .     S
C958   O1001   1.218   .     D
C959   O987    1.398   .     S
C959   C595    1.499   1_565 S
C959   O632    1.221   1_565 S
C960   O988    1.223   .     D
C960   C966    1.484   .     S
C961   O991    1.399   .     S
C961   O990    1.219   .     D
C962   C967    1.495   .     S
C962   O992    1.218   .     D
C963   C967    1.422   .     A
C964   C968    1.397   .     A
C965   C966    1.409   .     A
C965   C421    1.408   1_556 S
C965   C433    1.422   1_556 S
C966   C967    1.410   .     A
C968   H970    1.080   .     S
C969   C1017   1.487   .     S
H972   O993    1.012   .     S
H974   O1044   1.012   .     S
H975   O987    1.012   .     S
H976   N982    1.029   .     S
H977   N983    1.029   .     S
H978   O989    1.014   .     S
H979   C421    1.082   1_556 S
H981   O991    1.013   .     S
N982   N983    1.291   .     D
N982   Zn1003  2.015   .     S
N983   Zn1002  2.015   .     S
O984   Zn1002  1.948   .     S
O984   C1004   1.275   .     S
O989   C606    1.396   1_565 S
O993   C1021   1.399   .     S
O994   Zn1003  1.970   .     S
O995   Zn1002  1.942   .     S
O995   C1007   1.285   .     S
O996   Zn1003  1.903   .     S
O997   Zn1002  1.970   .     S
O998   Zn1003  1.948   .     S
O999   Zn1002  1.903   .     S
O1000  Zn1003  1.942   .     S
C1004  O1053   1.289   .     A
C1004  C1006   1.409   .     S
C1005  C1007   1.453   .     S
C1005  C1022   1.407   .     A
C1005  C1013   1.396   .     A
C1006  C595    1.348   1_565 S
C1006  H678    1.088   1_565 S
C1007  O1055   1.299   .     A
C1008  C1009   1.421   .     S
C1008  C711    1.348   1_655 S
C1009  O1056   1.288   .     A
C1009  O939    1.280   1_655 S
C1010  O1058   1.300   .     A
C1010  C1012   1.459   .     S
C1010  O941    1.289   1_655 S
C1011  C1028   1.394   .     A
C1012  C1027   1.390   .     A
C1012  C1028   1.414   .     A
C1013  H1039   1.084   .     S
C1013  C483    1.382   1_556 S
C1014  C1016   1.401   .     A
C1014  H1030   1.083   .     S
C1015  C1022   1.410   .     A
C1015  C485    1.440   1_556 S
C1015  C492    1.419   1_556 S
C1016  C1020   1.485   .     S
C1017  O1044   1.398   .     S
C1017  O1060   1.218   .     D
C1018  O1046   1.398   .     S
C1018  C654    1.499   1_565 S
C1018  O691    1.221   1_565 S
C1019  O1047   1.223   .     D
C1019  C1025   1.484   .     S
C1020  O1050   1.399   .     S
C1020  O1049   1.219   .     D
C1021  C1026   1.495   .     S
C1021  O1051   1.218   .     D
C1022  C1026   1.422   .     A
C1023  C1027   1.397   .     A
C1024  C1025   1.409   .     A
C1024  C480    1.408   1_556 S
C1024  C492    1.422   1_556 S
C1025  C1026   1.410   .     A
C1027  H1029   1.080   .     S
C1028  C899    1.487   1_655 S
H1031  O1052   1.012   .     S
H1033  O926    1.012   1_655 S
H1034  O1046   1.012   .     S
H1035  N1041   1.029   .     S
H1036  N1042   1.029   .     S
H1037  O1048   1.014   .     S
H1038  C480    1.082   1_556 S
H1040  O1050   1.013   .     S
N1041  N1042   1.291   .     D
N1041  Zn1062  2.015   .     S
N1042  Zn1061  2.015   .     S
O1043  Zn1061  1.948   .     S
O1043  C886    1.275   1_655 S
O1048  C665    1.396   1_565 S
O1052  C903    1.399   1_655 S
O1053  Zn1062  1.970   .     S
O1054  Zn1061  1.942   .     S
O1054  C889    1.285   1_655 S
O1055  Zn1062  1.903   .     S
O1056  Zn1061  1.970   .     S
O1057  Zn1062  1.948   .     S
O1058  Zn1061  1.903   .     S
O1059  Zn1062  1.942   .     S
