data_str_m3_o1_o10_pcu_sym.75
_audit_creation_date              2020-01-03
_audit_creation_method            'Materials Studio'
_symmetry_space_group_name_H-M    'P1'
_symmetry_Int_Tables_number       1
_symmetry_cell_setting            triclinic
loop_
_symmetry_equiv_pos_as_xyz
  x,y,z
_cell_length_a                    25.7747
_cell_length_b                    31.9648
_cell_length_c                    29.5710
_cell_angle_alpha                 89.8682
_cell_angle_beta                  98.6296
_cell_angle_gamma                 90.1741
loop_
_atom_site_label
_atom_site_type_symbol
_atom_site_fract_x
_atom_site_fract_y
_atom_site_fract_z
_atom_site_U_iso_or_equiv
_atom_site_adp_type
_atom_site_occupancy
C1     C     0.16776   0.08674   0.16687   0.00000  Uiso   1.00
C2     C     0.20173   0.02070   0.20048   0.00000  Uiso   1.00
C3     C     0.16523   0.29072   0.16632   0.00000  Uiso   1.00
C4     C     0.16810   0.04261   0.16701   0.00000  Uiso   1.00
C5     C     0.19910   0.19285   0.02813   0.00000  Uiso   1.00
C6     C     0.13424   0.14048   0.30521   0.00000  Uiso   1.00
C7     C     0.19908   0.19284   0.31353   0.00000  Uiso   1.00
C8     C     0.13425   0.14049   0.01980   0.00000  Uiso   1.00
C9     C     0.16557   0.24660   0.16647   0.00000  Uiso   1.00
C10    C     0.06704   0.16667   0.15470   0.00000  Uiso   1.00
C11    C     0.26629   0.16667   0.17864   0.00000  Uiso   1.00
C12    C     0.01200   0.16674   0.14826   0.00000  Uiso   1.00
C13    C     0.32133   0.16659   0.18507   0.00000  Uiso   1.00
C14    C     0.13346   0.02224   0.13335   0.00000  Uiso   1.00
C15    C     0.19987   0.31110   0.19999   0.00000  Uiso   1.00
C16    C     0.13161   0.31263   0.13286   0.00000  Uiso   1.00
Cl17   Cl    0.08512   0.28778   0.09160   0.00000  Uiso   1.00
Cl18   Cl    0.24822   0.04555   0.24174   0.00000  Uiso   1.00
H19    H     0.32472   0.16694   0.11335   0.00000  Uiso   1.00
H20    H     0.00862   0.16640   0.21999   0.00000  Uiso   1.00
H21    H     0.10725   0.03978   0.10811   0.00000  Uiso   1.00
H22    H     0.22609   0.29356   0.22522   0.00000  Uiso   1.00
H23    H     0.22505   0.21380   0.04959   0.00000  Uiso   1.00
H24    H     0.10828   0.11953   0.28375   0.00000  Uiso   1.00
H25    H     0.22501   0.21379   0.29873   0.00000  Uiso   1.00
H26    H     0.10832   0.11954   0.03460   0.00000  Uiso   1.00
N27    N     0.16665   0.16666   0.28573   0.00000  Uiso   1.00
N28    N     0.16668   0.16668   0.04760   0.00000  Uiso   1.00
O29    O     0.16666   0.10558   0.20487   0.00000  Uiso   1.00
O30    O     0.16667   0.22775   0.12846   0.00000  Uiso   1.00
O31    O     0.16666   0.10559   0.12843   0.00000  Uiso   1.00
O32    O     0.16667   0.22774   0.20490   0.00000  Uiso   1.00
O33    O     0.09058   0.16666   0.19595   0.00000  Uiso   1.00
O34    O     0.24275   0.16667   0.13739   0.00000  Uiso   1.00
O35    O     0.09058   0.16667   0.11950   0.00000  Uiso   1.00
O36    O     0.24275   0.16666   0.21383   0.00000  Uiso   1.00
Zn37   Zn    0.16667   0.16666   0.21771   0.00000  Uiso   1.00
Zn38   Zn    0.16667   0.16667   0.11563   0.00000  Uiso   1.00
C39    C     0.50109   0.08674   0.16687   0.00000  Uiso   1.00
C40    C     0.53506   0.02070   0.20048   0.00000  Uiso   1.00
C41    C     0.49857   0.29072   0.16632   0.00000  Uiso   1.00
C42    C     0.50143   0.04261   0.16701   0.00000  Uiso   1.00
C43    C     0.53243   0.19285   0.02813   0.00000  Uiso   1.00
C44    C     0.46757   0.14048   0.30521   0.00000  Uiso   1.00
C45    C     0.53242   0.19284   0.31353   0.00000  Uiso   1.00
C46    C     0.46758   0.14049   0.01980   0.00000  Uiso   1.00
C47    C     0.49891   0.24660   0.16647   0.00000  Uiso   1.00
C48    C     0.40038   0.16667   0.15470   0.00000  Uiso   1.00
C49    C     0.59962   0.16667   0.17864   0.00000  Uiso   1.00
C50    C     0.34534   0.16674   0.14826   0.00000  Uiso   1.00
C51    C     0.65466   0.16659   0.18507   0.00000  Uiso   1.00
C52    C     0.46680   0.02224   0.13335   0.00000  Uiso   1.00
C53    C     0.53320   0.31110   0.19999   0.00000  Uiso   1.00
C54    C     0.46494   0.31263   0.13286   0.00000  Uiso   1.00
Cl55   Cl    0.41845   0.28778   0.09160   0.00000  Uiso   1.00
Cl56   Cl    0.58155   0.04555   0.24174   0.00000  Uiso   1.00
H57    H     0.65805   0.16694   0.11335   0.00000  Uiso   1.00
H58    H     0.34195   0.16640   0.21999   0.00000  Uiso   1.00
H59    H     0.44058   0.03978   0.10811   0.00000  Uiso   1.00
H60    H     0.55942   0.29356   0.22522   0.00000  Uiso   1.00
H61    H     0.55838   0.21380   0.04959   0.00000  Uiso   1.00
H62    H     0.44162   0.11953   0.28375   0.00000  Uiso   1.00
H63    H     0.55835   0.21379   0.29873   0.00000  Uiso   1.00
H64    H     0.44165   0.11954   0.03460   0.00000  Uiso   1.00
N65    N     0.49999   0.16666   0.28573   0.00000  Uiso   1.00
N66    N     0.50001   0.16668   0.04760   0.00000  Uiso   1.00
O67    O     0.50000   0.10558   0.20487   0.00000  Uiso   1.00
O68    O     0.50000   0.22775   0.12846   0.00000  Uiso   1.00
O69    O     0.50000   0.10559   0.12843   0.00000  Uiso   1.00
O70    O     0.50000   0.22774   0.20490   0.00000  Uiso   1.00
O71    O     0.42392   0.16666   0.19595   0.00000  Uiso   1.00
O72    O     0.57608   0.16667   0.13739   0.00000  Uiso   1.00
O73    O     0.42392   0.16667   0.11950   0.00000  Uiso   1.00
O74    O     0.57608   0.16666   0.21383   0.00000  Uiso   1.00
Zn75   Zn    0.50000   0.16666   0.21771   0.00000  Uiso   1.00
Zn76   Zn    0.50000   0.16667   0.11563   0.00000  Uiso   1.00
C77    C     0.83443   0.08674   0.16687   0.00000  Uiso   1.00
C78    C     0.86839   0.02070   0.20048   0.00000  Uiso   1.00
C79    C     0.83190   0.29072   0.16632   0.00000  Uiso   1.00
C80    C     0.83477   0.04261   0.16701   0.00000  Uiso   1.00
C81    C     0.86576   0.19285   0.02813   0.00000  Uiso   1.00
C82    C     0.80090   0.14048   0.30521   0.00000  Uiso   1.00
C83    C     0.86575   0.19284   0.31353   0.00000  Uiso   1.00
C84    C     0.80092   0.14049   0.01980   0.00000  Uiso   1.00
C85    C     0.83224   0.24660   0.16647   0.00000  Uiso   1.00
C86    C     0.73371   0.16667   0.15470   0.00000  Uiso   1.00
C87    C     0.93296   0.16667   0.17864   0.00000  Uiso   1.00
C88    C     0.67867   0.16674   0.14826   0.00000  Uiso   1.00
C89    C     0.98800   0.16659   0.18507   0.00000  Uiso   1.00
C90    C     0.80013   0.02224   0.13335   0.00000  Uiso   1.00
C91    C     0.86654   0.31110   0.19999   0.00000  Uiso   1.00
C92    C     0.79827   0.31263   0.13286   0.00000  Uiso   1.00
Cl93   Cl    0.75178   0.28778   0.09160   0.00000  Uiso   1.00
Cl94   Cl    0.91488   0.04555   0.24174   0.00000  Uiso   1.00
H95    H     0.99138   0.16694   0.11335   0.00000  Uiso   1.00
H96    H     0.67528   0.16640   0.21999   0.00000  Uiso   1.00
H97    H     0.77391   0.03978   0.10811   0.00000  Uiso   1.00
H98    H     0.89275   0.29356   0.22522   0.00000  Uiso   1.00
H99    H     0.89172   0.21380   0.04959   0.00000  Uiso   1.00
H100   H     0.77495   0.11953   0.28375   0.00000  Uiso   1.00
H101   H     0.89168   0.21379   0.29873   0.00000  Uiso   1.00
H102   H     0.77499   0.11954   0.03460   0.00000  Uiso   1.00
N103   N     0.83332   0.16666   0.28573   0.00000  Uiso   1.00
N104   N     0.83335   0.16668   0.04760   0.00000  Uiso   1.00
O105   O     0.83333   0.10558   0.20487   0.00000  Uiso   1.00
O106   O     0.83334   0.22775   0.12846   0.00000  Uiso   1.00
O107   O     0.83333   0.10559   0.12843   0.00000  Uiso   1.00
O108   O     0.83334   0.22774   0.20490   0.00000  Uiso   1.00
O109   O     0.75725   0.16666   0.19595   0.00000  Uiso   1.00
O110   O     0.90942   0.16667   0.13739   0.00000  Uiso   1.00
O111   O     0.75725   0.16667   0.11950   0.00000  Uiso   1.00
O112   O     0.90942   0.16666   0.21383   0.00000  Uiso   1.00
Zn113  Zn    0.83333   0.16666   0.21771   0.00000  Uiso   1.00
Zn114  Zn    0.83333   0.16667   0.11563   0.00000  Uiso   1.00
C115   C     0.16776   0.42007   0.16687   0.00000  Uiso   1.00
C116   C     0.20173   0.35404   0.20048   0.00000  Uiso   1.00
C117   C     0.16523   0.62405   0.16632   0.00000  Uiso   1.00
C118   C     0.16810   0.37595   0.16701   0.00000  Uiso   1.00
C119   C     0.19910   0.52619   0.02813   0.00000  Uiso   1.00
C120   C     0.13424   0.47381   0.30521   0.00000  Uiso   1.00
C121   C     0.19908   0.52618   0.31353   0.00000  Uiso   1.00
C122   C     0.13425   0.47382   0.01980   0.00000  Uiso   1.00
C123   C     0.16557   0.57993   0.16647   0.00000  Uiso   1.00
C124   C     0.06704   0.50000   0.15470   0.00000  Uiso   1.00
C125   C     0.26629   0.50000   0.17864   0.00000  Uiso   1.00
C126   C     0.01200   0.50007   0.14826   0.00000  Uiso   1.00
C127   C     0.32133   0.49993   0.18507   0.00000  Uiso   1.00
C128   C     0.13346   0.35557   0.13335   0.00000  Uiso   1.00
C129   C     0.19987   0.64443   0.19999   0.00000  Uiso   1.00
C130   C     0.13161   0.64596   0.13286   0.00000  Uiso   1.00
Cl131  Cl    0.08512   0.62112   0.09160   0.00000  Uiso   1.00
Cl132  Cl    0.24822   0.37888   0.24174   0.00000  Uiso   1.00
H133   H     0.32472   0.50027   0.11335   0.00000  Uiso   1.00
H134   H     0.00862   0.49973   0.21999   0.00000  Uiso   1.00
H135   H     0.10725   0.37311   0.10811   0.00000  Uiso   1.00
H136   H     0.22609   0.62689   0.22522   0.00000  Uiso   1.00
H137   H     0.22505   0.54714   0.04959   0.00000  Uiso   1.00
H138   H     0.10828   0.45286   0.28375   0.00000  Uiso   1.00
H139   H     0.22501   0.54713   0.29873   0.00000  Uiso   1.00
H140   H     0.10832   0.45287   0.03460   0.00000  Uiso   1.00
N141   N     0.16665   0.49999   0.28573   0.00000  Uiso   1.00
N142   N     0.16668   0.50001   0.04760   0.00000  Uiso   1.00
O143   O     0.16666   0.43892   0.20487   0.00000  Uiso   1.00
O144   O     0.16667   0.56108   0.12846   0.00000  Uiso   1.00
O145   O     0.16666   0.43893   0.12843   0.00000  Uiso   1.00
O146   O     0.16667   0.56107   0.20490   0.00000  Uiso   1.00
O147   O     0.09058   0.50000   0.19595   0.00000  Uiso   1.00
O148   O     0.24275   0.50000   0.13739   0.00000  Uiso   1.00
O149   O     0.09058   0.50000   0.11950   0.00000  Uiso   1.00
O150   O     0.24275   0.50000   0.21383   0.00000  Uiso   1.00
Zn151  Zn    0.16667   0.49999   0.21771   0.00000  Uiso   1.00
Zn152  Zn    0.16667   0.50001   0.11563   0.00000  Uiso   1.00
C153   C     0.50109   0.42007   0.16687   0.00000  Uiso   1.00
C154   C     0.53506   0.35404   0.20048   0.00000  Uiso   1.00
C155   C     0.49857   0.62405   0.16632   0.00000  Uiso   1.00
C156   C     0.50143   0.37595   0.16701   0.00000  Uiso   1.00
C157   C     0.53243   0.52619   0.02813   0.00000  Uiso   1.00
C158   C     0.46757   0.47381   0.30521   0.00000  Uiso   1.00
C159   C     0.53242   0.52618   0.31353   0.00000  Uiso   1.00
C160   C     0.46758   0.47382   0.01980   0.00000  Uiso   1.00
C161   C     0.49891   0.57993   0.16647   0.00000  Uiso   1.00
C162   C     0.40038   0.50000   0.15470   0.00000  Uiso   1.00
C163   C     0.59962   0.50000   0.17864   0.00000  Uiso   1.00
C164   C     0.34534   0.50007   0.14826   0.00000  Uiso   1.00
C165   C     0.65466   0.49993   0.18507   0.00000  Uiso   1.00
C166   C     0.46680   0.35557   0.13335   0.00000  Uiso   1.00
C167   C     0.53320   0.64443   0.19999   0.00000  Uiso   1.00
C168   C     0.46494   0.64596   0.13286   0.00000  Uiso   1.00
Cl169  Cl    0.41845   0.62112   0.09160   0.00000  Uiso   1.00
Cl170  Cl    0.58155   0.37888   0.24174   0.00000  Uiso   1.00
H171   H     0.65805   0.50027   0.11335   0.00000  Uiso   1.00
H172   H     0.34195   0.49973   0.21999   0.00000  Uiso   1.00
H173   H     0.44058   0.37311   0.10811   0.00000  Uiso   1.00
H174   H     0.55942   0.62689   0.22522   0.00000  Uiso   1.00
H175   H     0.55838   0.54714   0.04959   0.00000  Uiso   1.00
H176   H     0.44162   0.45286   0.28375   0.00000  Uiso   1.00
H177   H     0.55835   0.54713   0.29873   0.00000  Uiso   1.00
H178   H     0.44165   0.45287   0.03460   0.00000  Uiso   1.00
N179   N     0.49999   0.49999   0.28573   0.00000  Uiso   1.00
N180   N     0.50001   0.50001   0.04760   0.00000  Uiso   1.00
O181   O     0.50000   0.43892   0.20487   0.00000  Uiso   1.00
O182   O     0.50000   0.56108   0.12846   0.00000  Uiso   1.00
O183   O     0.50000   0.43893   0.12843   0.00000  Uiso   1.00
O184   O     0.50000   0.56107   0.20490   0.00000  Uiso   1.00
O185   O     0.42392   0.50000   0.19595   0.00000  Uiso   1.00
O186   O     0.57608   0.50000   0.13739   0.00000  Uiso   1.00
O187   O     0.42392   0.50000   0.11950   0.00000  Uiso   1.00
O188   O     0.57608   0.50000   0.21383   0.00000  Uiso   1.00
Zn189  Zn    0.50000   0.49999   0.21771   0.00000  Uiso   1.00
Zn190  Zn    0.50000   0.50001   0.11563   0.00000  Uiso   1.00
C191   C     0.83443   0.42007   0.16687   0.00000  Uiso   1.00
C192   C     0.86839   0.35404   0.20048   0.00000  Uiso   1.00
C193   C     0.83190   0.62405   0.16632   0.00000  Uiso   1.00
C194   C     0.83477   0.37595   0.16701   0.00000  Uiso   1.00
C195   C     0.86576   0.52619   0.02813   0.00000  Uiso   1.00
C196   C     0.80090   0.47381   0.30521   0.00000  Uiso   1.00
C197   C     0.86575   0.52618   0.31353   0.00000  Uiso   1.00
C198   C     0.80092   0.47382   0.01980   0.00000  Uiso   1.00
C199   C     0.83224   0.57993   0.16647   0.00000  Uiso   1.00
C200   C     0.73371   0.50000   0.15470   0.00000  Uiso   1.00
C201   C     0.93296   0.50000   0.17864   0.00000  Uiso   1.00
C202   C     0.67867   0.50007   0.14826   0.00000  Uiso   1.00
C203   C     0.98800   0.49993   0.18507   0.00000  Uiso   1.00
C204   C     0.80013   0.35557   0.13335   0.00000  Uiso   1.00
C205   C     0.86654   0.64443   0.19999   0.00000  Uiso   1.00
C206   C     0.79827   0.64596   0.13286   0.00000  Uiso   1.00
Cl207  Cl    0.75178   0.62112   0.09160   0.00000  Uiso   1.00
Cl208  Cl    0.91488   0.37888   0.24174   0.00000  Uiso   1.00
H209   H     0.99138   0.50027   0.11335   0.00000  Uiso   1.00
H210   H     0.67528   0.49973   0.21999   0.00000  Uiso   1.00
H211   H     0.77391   0.37311   0.10811   0.00000  Uiso   1.00
H212   H     0.89275   0.62689   0.22522   0.00000  Uiso   1.00
H213   H     0.89172   0.54714   0.04959   0.00000  Uiso   1.00
H214   H     0.77495   0.45286   0.28375   0.00000  Uiso   1.00
H215   H     0.89168   0.54713   0.29873   0.00000  Uiso   1.00
H216   H     0.77499   0.45287   0.03460   0.00000  Uiso   1.00
N217   N     0.83332   0.49999   0.28573   0.00000  Uiso   1.00
N218   N     0.83335   0.50001   0.04760   0.00000  Uiso   1.00
O219   O     0.83333   0.43892   0.20487   0.00000  Uiso   1.00
O220   O     0.83334   0.56108   0.12846   0.00000  Uiso   1.00
O221   O     0.83333   0.43893   0.12843   0.00000  Uiso   1.00
O222   O     0.83334   0.56107   0.20490   0.00000  Uiso   1.00
O223   O     0.75725   0.50000   0.19595   0.00000  Uiso   1.00
O224   O     0.90942   0.50000   0.13739   0.00000  Uiso   1.00
O225   O     0.75725   0.50000   0.11950   0.00000  Uiso   1.00
O226   O     0.90942   0.50000   0.21383   0.00000  Uiso   1.00
Zn227  Zn    0.83333   0.49999   0.21771   0.00000  Uiso   1.00
Zn228  Zn    0.83333   0.50001   0.11563   0.00000  Uiso   1.00
C229   C     0.16776   0.75340   0.16687   0.00000  Uiso   1.00
C230   C     0.20173   0.68737   0.20048   0.00000  Uiso   1.00
C231   C     0.16523   0.95739   0.16632   0.00000  Uiso   1.00
C232   C     0.16810   0.70928   0.16701   0.00000  Uiso   1.00
C233   C     0.19910   0.85952   0.02813   0.00000  Uiso   1.00
C234   C     0.13424   0.80714   0.30521   0.00000  Uiso   1.00
C235   C     0.19908   0.85951   0.31353   0.00000  Uiso   1.00
C236   C     0.13425   0.80716   0.01980   0.00000  Uiso   1.00
C237   C     0.16557   0.91326   0.16647   0.00000  Uiso   1.00
C238   C     0.06704   0.83333   0.15470   0.00000  Uiso   1.00
C239   C     0.26629   0.83333   0.17864   0.00000  Uiso   1.00
C240   C     0.01200   0.83341   0.14826   0.00000  Uiso   1.00
C241   C     0.32133   0.83326   0.18507   0.00000  Uiso   1.00
C242   C     0.13346   0.68890   0.13335   0.00000  Uiso   1.00
C243   C     0.19987   0.97776   0.19999   0.00000  Uiso   1.00
C244   C     0.13161   0.97930   0.13286   0.00000  Uiso   1.00
Cl245  Cl    0.08512   0.95445   0.09160   0.00000  Uiso   1.00
Cl246  Cl    0.24822   0.71222   0.24174   0.00000  Uiso   1.00
H247   H     0.32472   0.83360   0.11335   0.00000  Uiso   1.00
H248   H     0.00862   0.83306   0.21999   0.00000  Uiso   1.00
H249   H     0.10725   0.70644   0.10811   0.00000  Uiso   1.00
H250   H     0.22609   0.96022   0.22522   0.00000  Uiso   1.00
H251   H     0.22505   0.88047   0.04959   0.00000  Uiso   1.00
H252   H     0.10828   0.78620   0.28375   0.00000  Uiso   1.00
H253   H     0.22501   0.88046   0.29873   0.00000  Uiso   1.00
H254   H     0.10832   0.78621   0.03460   0.00000  Uiso   1.00
N255   N     0.16665   0.83332   0.28573   0.00000  Uiso   1.00
N256   N     0.16668   0.83334   0.04760   0.00000  Uiso   1.00
O257   O     0.16666   0.77225   0.20487   0.00000  Uiso   1.00
O258   O     0.16667   0.89442   0.12846   0.00000  Uiso   1.00
O259   O     0.16666   0.77226   0.12843   0.00000  Uiso   1.00
O260   O     0.16667   0.89441   0.20490   0.00000  Uiso   1.00
O261   O     0.09058   0.83333   0.19595   0.00000  Uiso   1.00
O262   O     0.24275   0.83334   0.13739   0.00000  Uiso   1.00
O263   O     0.09058   0.83334   0.11950   0.00000  Uiso   1.00
O264   O     0.24275   0.83333   0.21383   0.00000  Uiso   1.00
Zn265  Zn    0.16667   0.83333   0.21771   0.00000  Uiso   1.00
Zn266  Zn    0.16667   0.83334   0.11563   0.00000  Uiso   1.00
C267   C     0.50109   0.75340   0.16687   0.00000  Uiso   1.00
C268   C     0.53506   0.68737   0.20048   0.00000  Uiso   1.00
C269   C     0.49857   0.95739   0.16632   0.00000  Uiso   1.00
C270   C     0.50143   0.70928   0.16701   0.00000  Uiso   1.00
C271   C     0.53243   0.85952   0.02813   0.00000  Uiso   1.00
C272   C     0.46757   0.80714   0.30521   0.00000  Uiso   1.00
C273   C     0.53242   0.85951   0.31353   0.00000  Uiso   1.00
C274   C     0.46758   0.80716   0.01980   0.00000  Uiso   1.00
C275   C     0.49891   0.91326   0.16647   0.00000  Uiso   1.00
C276   C     0.40038   0.83333   0.15470   0.00000  Uiso   1.00
C277   C     0.59962   0.83333   0.17864   0.00000  Uiso   1.00
C278   C     0.34534   0.83341   0.14826   0.00000  Uiso   1.00
C279   C     0.65466   0.83326   0.18507   0.00000  Uiso   1.00
C280   C     0.46680   0.68890   0.13335   0.00000  Uiso   1.00
C281   C     0.53320   0.97776   0.19999   0.00000  Uiso   1.00
C282   C     0.46494   0.97930   0.13286   0.00000  Uiso   1.00
Cl283  Cl    0.41845   0.95445   0.09160   0.00000  Uiso   1.00
Cl284  Cl    0.58155   0.71222   0.24174   0.00000  Uiso   1.00
H285   H     0.65805   0.83360   0.11335   0.00000  Uiso   1.00
H286   H     0.34195   0.83306   0.21999   0.00000  Uiso   1.00
H287   H     0.44058   0.70644   0.10811   0.00000  Uiso   1.00
H288   H     0.55942   0.96022   0.22522   0.00000  Uiso   1.00
H289   H     0.55838   0.88047   0.04959   0.00000  Uiso   1.00
H290   H     0.44162   0.78620   0.28375   0.00000  Uiso   1.00
H291   H     0.55835   0.88046   0.29873   0.00000  Uiso   1.00
H292   H     0.44165   0.78621   0.03460   0.00000  Uiso   1.00
N293   N     0.49999   0.83332   0.28573   0.00000  Uiso   1.00
N294   N     0.50001   0.83334   0.04760   0.00000  Uiso   1.00
O295   O     0.50000   0.77225   0.20487   0.00000  Uiso   1.00
O296   O     0.50000   0.89442   0.12846   0.00000  Uiso   1.00
O297   O     0.50000   0.77226   0.12843   0.00000  Uiso   1.00
O298   O     0.50000   0.89441   0.20490   0.00000  Uiso   1.00
O299   O     0.42392   0.83333   0.19595   0.00000  Uiso   1.00
O300   O     0.57608   0.83334   0.13739   0.00000  Uiso   1.00
O301   O     0.42392   0.83334   0.11950   0.00000  Uiso   1.00
O302   O     0.57608   0.83333   0.21383   0.00000  Uiso   1.00
Zn303  Zn    0.50000   0.83333   0.21771   0.00000  Uiso   1.00
Zn304  Zn    0.50000   0.83334   0.11563   0.00000  Uiso   1.00
C305   C     0.83443   0.75340   0.16687   0.00000  Uiso   1.00
C306   C     0.86839   0.68737   0.20048   0.00000  Uiso   1.00
C307   C     0.83190   0.95739   0.16632   0.00000  Uiso   1.00
C308   C     0.83477   0.70928   0.16701   0.00000  Uiso   1.00
C309   C     0.86576   0.85952   0.02813   0.00000  Uiso   1.00
C310   C     0.80090   0.80714   0.30521   0.00000  Uiso   1.00
C311   C     0.86575   0.85951   0.31353   0.00000  Uiso   1.00
C312   C     0.80092   0.80716   0.01980   0.00000  Uiso   1.00
C313   C     0.83224   0.91326   0.16647   0.00000  Uiso   1.00
C314   C     0.73371   0.83333   0.15470   0.00000  Uiso   1.00
C315   C     0.93296   0.83333   0.17864   0.00000  Uiso   1.00
C316   C     0.67867   0.83341   0.14826   0.00000  Uiso   1.00
C317   C     0.98800   0.83326   0.18507   0.00000  Uiso   1.00
C318   C     0.80013   0.68890   0.13335   0.00000  Uiso   1.00
C319   C     0.86654   0.97776   0.19999   0.00000  Uiso   1.00
C320   C     0.79827   0.97930   0.13286   0.00000  Uiso   1.00
Cl321  Cl    0.75178   0.95445   0.09160   0.00000  Uiso   1.00
Cl322  Cl    0.91488   0.71222   0.24174   0.00000  Uiso   1.00
H323   H     0.99138   0.83360   0.11335   0.00000  Uiso   1.00
H324   H     0.67528   0.83306   0.21999   0.00000  Uiso   1.00
H325   H     0.77391   0.70644   0.10811   0.00000  Uiso   1.00
H326   H     0.89275   0.96022   0.22522   0.00000  Uiso   1.00
H327   H     0.89172   0.88047   0.04959   0.00000  Uiso   1.00
H328   H     0.77495   0.78620   0.28375   0.00000  Uiso   1.00
H329   H     0.89168   0.88046   0.29873   0.00000  Uiso   1.00
H330   H     0.77499   0.78621   0.03460   0.00000  Uiso   1.00
N331   N     0.83332   0.83332   0.28573   0.00000  Uiso   1.00
N332   N     0.83335   0.83334   0.04760   0.00000  Uiso   1.00
O333   O     0.83333   0.77225   0.20487   0.00000  Uiso   1.00
O334   O     0.83334   0.89442   0.12846   0.00000  Uiso   1.00
O335   O     0.83333   0.77226   0.12843   0.00000  Uiso   1.00
O336   O     0.83334   0.89441   0.20490   0.00000  Uiso   1.00
O337   O     0.75725   0.83333   0.19595   0.00000  Uiso   1.00
O338   O     0.90942   0.83334   0.13739   0.00000  Uiso   1.00
O339   O     0.75725   0.83334   0.11950   0.00000  Uiso   1.00
O340   O     0.90942   0.83333   0.21383   0.00000  Uiso   1.00
Zn341  Zn    0.83333   0.83333   0.21771   0.00000  Uiso   1.00
Zn342  Zn    0.83333   0.83334   0.11563   0.00000  Uiso   1.00
C343   C     0.16776   0.08674   0.50020   0.00000  Uiso   1.00
C344   C     0.20173   0.02070   0.53381   0.00000  Uiso   1.00
C345   C     0.16523   0.29072   0.49965   0.00000  Uiso   1.00
C346   C     0.16810   0.04261   0.50035   0.00000  Uiso   1.00
C347   C     0.19910   0.19285   0.36146   0.00000  Uiso   1.00
C348   C     0.13424   0.14048   0.63854   0.00000  Uiso   1.00
C349   C     0.19908   0.19284   0.64686   0.00000  Uiso   1.00
C350   C     0.13425   0.14049   0.35314   0.00000  Uiso   1.00
C351   C     0.16557   0.24660   0.49980   0.00000  Uiso   1.00
C352   C     0.06704   0.16667   0.48803   0.00000  Uiso   1.00
C353   C     0.26629   0.16667   0.51197   0.00000  Uiso   1.00
C354   C     0.01200   0.16674   0.48160   0.00000  Uiso   1.00
C355   C     0.32133   0.16659   0.51840   0.00000  Uiso   1.00
C356   C     0.13346   0.02224   0.46668   0.00000  Uiso   1.00
C357   C     0.19987   0.31110   0.53332   0.00000  Uiso   1.00
C358   C     0.13161   0.31263   0.46619   0.00000  Uiso   1.00
Cl359  Cl    0.08512   0.28778   0.42493   0.00000  Uiso   1.00
Cl360  Cl    0.24822   0.04555   0.57507   0.00000  Uiso   1.00
H361   H     0.32472   0.16694   0.44668   0.00000  Uiso   1.00
H362   H     0.00862   0.16640   0.55332   0.00000  Uiso   1.00
H363   H     0.10725   0.03978   0.44145   0.00000  Uiso   1.00
H364   H     0.22609   0.29356   0.55855   0.00000  Uiso   1.00
H365   H     0.22505   0.21380   0.38292   0.00000  Uiso   1.00
H366   H     0.10828   0.11953   0.61708   0.00000  Uiso   1.00
H367   H     0.22501   0.21379   0.63206   0.00000  Uiso   1.00
H368   H     0.10832   0.11954   0.36794   0.00000  Uiso   1.00
N369   N     0.16665   0.16666   0.61907   0.00000  Uiso   1.00
N370   N     0.16668   0.16668   0.38093   0.00000  Uiso   1.00
O371   O     0.16666   0.10558   0.53821   0.00000  Uiso   1.00
O372   O     0.16667   0.22775   0.46179   0.00000  Uiso   1.00
O373   O     0.16666   0.10559   0.46176   0.00000  Uiso   1.00
O374   O     0.16667   0.22774   0.53824   0.00000  Uiso   1.00
O375   O     0.09058   0.16666   0.52928   0.00000  Uiso   1.00
O376   O     0.24275   0.16667   0.47072   0.00000  Uiso   1.00
O377   O     0.09058   0.16667   0.45284   0.00000  Uiso   1.00
O378   O     0.24275   0.16666   0.54716   0.00000  Uiso   1.00
Zn379  Zn    0.16667   0.16666   0.55104   0.00000  Uiso   1.00
Zn380  Zn    0.16667   0.16667   0.44896   0.00000  Uiso   1.00
C381   C     0.50109   0.08674   0.50020   0.00000  Uiso   1.00
C382   C     0.53506   0.02070   0.53381   0.00000  Uiso   1.00
C383   C     0.49857   0.29072   0.49965   0.00000  Uiso   1.00
C384   C     0.50143   0.04261   0.50035   0.00000  Uiso   1.00
C385   C     0.53243   0.19285   0.36146   0.00000  Uiso   1.00
C386   C     0.46757   0.14048   0.63854   0.00000  Uiso   1.00
C387   C     0.53242   0.19284   0.64686   0.00000  Uiso   1.00
C388   C     0.46758   0.14049   0.35314   0.00000  Uiso   1.00
C389   C     0.49891   0.24660   0.49980   0.00000  Uiso   1.00
C390   C     0.40038   0.16667   0.48803   0.00000  Uiso   1.00
C391   C     0.59962   0.16667   0.51197   0.00000  Uiso   1.00
C392   C     0.34534   0.16674   0.48160   0.00000  Uiso   1.00
C393   C     0.65466   0.16659   0.51840   0.00000  Uiso   1.00
C394   C     0.46680   0.02224   0.46668   0.00000  Uiso   1.00
C395   C     0.53320   0.31110   0.53332   0.00000  Uiso   1.00
C396   C     0.46494   0.31263   0.46619   0.00000  Uiso   1.00
Cl397  Cl    0.41845   0.28778   0.42493   0.00000  Uiso   1.00
Cl398  Cl    0.58155   0.04555   0.57507   0.00000  Uiso   1.00
H399   H     0.65805   0.16694   0.44668   0.00000  Uiso   1.00
H400   H     0.34195   0.16640   0.55332   0.00000  Uiso   1.00
H401   H     0.44058   0.03978   0.44145   0.00000  Uiso   1.00
H402   H     0.55942   0.29356   0.55855   0.00000  Uiso   1.00
H403   H     0.55838   0.21380   0.38292   0.00000  Uiso   1.00
H404   H     0.44162   0.11953   0.61708   0.00000  Uiso   1.00
H405   H     0.55835   0.21379   0.63206   0.00000  Uiso   1.00
H406   H     0.44165   0.11954   0.36794   0.00000  Uiso   1.00
N407   N     0.49999   0.16666   0.61907   0.00000  Uiso   1.00
N408   N     0.50001   0.16668   0.38093   0.00000  Uiso   1.00
O409   O     0.50000   0.10558   0.53821   0.00000  Uiso   1.00
O410   O     0.50000   0.22775   0.46179   0.00000  Uiso   1.00
O411   O     0.50000   0.10559   0.46176   0.00000  Uiso   1.00
O412   O     0.50000   0.22774   0.53824   0.00000  Uiso   1.00
O413   O     0.42392   0.16666   0.52928   0.00000  Uiso   1.00
O414   O     0.57608   0.16667   0.47072   0.00000  Uiso   1.00
O415   O     0.42392   0.16667   0.45284   0.00000  Uiso   1.00
O416   O     0.57608   0.16666   0.54716   0.00000  Uiso   1.00
Zn417  Zn    0.50000   0.16666   0.55104   0.00000  Uiso   1.00
Zn418  Zn    0.50000   0.16667   0.44896   0.00000  Uiso   1.00
C419   C     0.83443   0.08674   0.50020   0.00000  Uiso   1.00
C420   C     0.86839   0.02070   0.53381   0.00000  Uiso   1.00
C421   C     0.83190   0.29072   0.49965   0.00000  Uiso   1.00
C422   C     0.83477   0.04261   0.50035   0.00000  Uiso   1.00
C423   C     0.86576   0.19285   0.36146   0.00000  Uiso   1.00
C424   C     0.80090   0.14048   0.63854   0.00000  Uiso   1.00
C425   C     0.86575   0.19284   0.64686   0.00000  Uiso   1.00
C426   C     0.80092   0.14049   0.35314   0.00000  Uiso   1.00
C427   C     0.83224   0.24660   0.49980   0.00000  Uiso   1.00
C428   C     0.73371   0.16667   0.48803   0.00000  Uiso   1.00
C429   C     0.93296   0.16667   0.51197   0.00000  Uiso   1.00
C430   C     0.67867   0.16674   0.48160   0.00000  Uiso   1.00
C431   C     0.98800   0.16659   0.51840   0.00000  Uiso   1.00
C432   C     0.80013   0.02224   0.46668   0.00000  Uiso   1.00
C433   C     0.86654   0.31110   0.53332   0.00000  Uiso   1.00
C434   C     0.79827   0.31263   0.46619   0.00000  Uiso   1.00
Cl435  Cl    0.75178   0.28778   0.42493   0.00000  Uiso   1.00
Cl436  Cl    0.91488   0.04555   0.57507   0.00000  Uiso   1.00
H437   H     0.99138   0.16694   0.44668   0.00000  Uiso   1.00
H438   H     0.67528   0.16640   0.55332   0.00000  Uiso   1.00
H439   H     0.77391   0.03978   0.44145   0.00000  Uiso   1.00
H440   H     0.89275   0.29356   0.55855   0.00000  Uiso   1.00
H441   H     0.89172   0.21380   0.38292   0.00000  Uiso   1.00
H442   H     0.77495   0.11953   0.61708   0.00000  Uiso   1.00
H443   H     0.89168   0.21379   0.63206   0.00000  Uiso   1.00
H444   H     0.77499   0.11954   0.36794   0.00000  Uiso   1.00
N445   N     0.83332   0.16666   0.61907   0.00000  Uiso   1.00
N446   N     0.83335   0.16668   0.38093   0.00000  Uiso   1.00
O447   O     0.83333   0.10558   0.53821   0.00000  Uiso   1.00
O448   O     0.83334   0.22775   0.46179   0.00000  Uiso   1.00
O449   O     0.83333   0.10559   0.46176   0.00000  Uiso   1.00
O450   O     0.83334   0.22774   0.53824   0.00000  Uiso   1.00
O451   O     0.75725   0.16666   0.52928   0.00000  Uiso   1.00
O452   O     0.90942   0.16667   0.47072   0.00000  Uiso   1.00
O453   O     0.75725   0.16667   0.45284   0.00000  Uiso   1.00
O454   O     0.90942   0.16666   0.54716   0.00000  Uiso   1.00
Zn455  Zn    0.83333   0.16666   0.55104   0.00000  Uiso   1.00
Zn456  Zn    0.83333   0.16667   0.44896   0.00000  Uiso   1.00
C457   C     0.16776   0.42007   0.50020   0.00000  Uiso   1.00
C458   C     0.20173   0.35404   0.53381   0.00000  Uiso   1.00
C459   C     0.16523   0.62405   0.49965   0.00000  Uiso   1.00
C460   C     0.16810   0.37595   0.50035   0.00000  Uiso   1.00
C461   C     0.19910   0.52619   0.36146   0.00000  Uiso   1.00
C462   C     0.13424   0.47381   0.63854   0.00000  Uiso   1.00
C463   C     0.19908   0.52618   0.64686   0.00000  Uiso   1.00
C464   C     0.13425   0.47382   0.35314   0.00000  Uiso   1.00
C465   C     0.16557   0.57993   0.49980   0.00000  Uiso   1.00
C466   C     0.06704   0.50000   0.48803   0.00000  Uiso   1.00
C467   C     0.26629   0.50000   0.51197   0.00000  Uiso   1.00
C468   C     0.01200   0.50007   0.48160   0.00000  Uiso   1.00
C469   C     0.32133   0.49993   0.51840   0.00000  Uiso   1.00
C470   C     0.13346   0.35557   0.46668   0.00000  Uiso   1.00
C471   C     0.19987   0.64443   0.53332   0.00000  Uiso   1.00
C472   C     0.13161   0.64596   0.46619   0.00000  Uiso   1.00
Cl473  Cl    0.08512   0.62112   0.42493   0.00000  Uiso   1.00
Cl474  Cl    0.24822   0.37888   0.57507   0.00000  Uiso   1.00
H475   H     0.32472   0.50027   0.44668   0.00000  Uiso   1.00
H476   H     0.00862   0.49973   0.55332   0.00000  Uiso   1.00
H477   H     0.10725   0.37311   0.44145   0.00000  Uiso   1.00
H478   H     0.22609   0.62689   0.55855   0.00000  Uiso   1.00
H479   H     0.22505   0.54714   0.38292   0.00000  Uiso   1.00
H480   H     0.10828   0.45286   0.61708   0.00000  Uiso   1.00
H481   H     0.22501   0.54713   0.63206   0.00000  Uiso   1.00
H482   H     0.10832   0.45287   0.36794   0.00000  Uiso   1.00
N483   N     0.16665   0.49999   0.61907   0.00000  Uiso   1.00
N484   N     0.16668   0.50001   0.38093   0.00000  Uiso   1.00
O485   O     0.16666   0.43892   0.53821   0.00000  Uiso   1.00
O486   O     0.16667   0.56108   0.46179   0.00000  Uiso   1.00
O487   O     0.16666   0.43893   0.46176   0.00000  Uiso   1.00
O488   O     0.16667   0.56107   0.53824   0.00000  Uiso   1.00
O489   O     0.09058   0.50000   0.52928   0.00000  Uiso   1.00
O490   O     0.24275   0.50000   0.47072   0.00000  Uiso   1.00
O491   O     0.09058   0.50000   0.45284   0.00000  Uiso   1.00
O492   O     0.24275   0.50000   0.54716   0.00000  Uiso   1.00
Zn493  Zn    0.16667   0.49999   0.55104   0.00000  Uiso   1.00
Zn494  Zn    0.16667   0.50001   0.44896   0.00000  Uiso   1.00
C495   C     0.50109   0.42007   0.50020   0.00000  Uiso   1.00
C496   C     0.53506   0.35404   0.53381   0.00000  Uiso   1.00
C497   C     0.49857   0.62405   0.49965   0.00000  Uiso   1.00
C498   C     0.50143   0.37595   0.50035   0.00000  Uiso   1.00
C499   C     0.53243   0.52619   0.36146   0.00000  Uiso   1.00
C500   C     0.46757   0.47381   0.63854   0.00000  Uiso   1.00
C501   C     0.53242   0.52618   0.64686   0.00000  Uiso   1.00
C502   C     0.46758   0.47382   0.35314   0.00000  Uiso   1.00
C503   C     0.49891   0.57993   0.49980   0.00000  Uiso   1.00
C504   C     0.40038   0.50000   0.48803   0.00000  Uiso   1.00
C505   C     0.59962   0.50000   0.51197   0.00000  Uiso   1.00
C506   C     0.34534   0.50007   0.48160   0.00000  Uiso   1.00
C507   C     0.65466   0.49993   0.51840   0.00000  Uiso   1.00
C508   C     0.46680   0.35557   0.46668   0.00000  Uiso   1.00
C509   C     0.53320   0.64443   0.53332   0.00000  Uiso   1.00
C510   C     0.46494   0.64596   0.46619   0.00000  Uiso   1.00
Cl511  Cl    0.41845   0.62112   0.42493   0.00000  Uiso   1.00
Cl512  Cl    0.58155   0.37888   0.57507   0.00000  Uiso   1.00
H513   H     0.65805   0.50027   0.44668   0.00000  Uiso   1.00
H514   H     0.34195   0.49973   0.55332   0.00000  Uiso   1.00
H515   H     0.44058   0.37311   0.44145   0.00000  Uiso   1.00
H516   H     0.55942   0.62689   0.55855   0.00000  Uiso   1.00
H517   H     0.55838   0.54714   0.38292   0.00000  Uiso   1.00
H518   H     0.44162   0.45286   0.61708   0.00000  Uiso   1.00
H519   H     0.55835   0.54713   0.63206   0.00000  Uiso   1.00
H520   H     0.44165   0.45287   0.36794   0.00000  Uiso   1.00
N521   N     0.49999   0.49999   0.61907   0.00000  Uiso   1.00
N522   N     0.50001   0.50001   0.38093   0.00000  Uiso   1.00
O523   O     0.50000   0.43892   0.53821   0.00000  Uiso   1.00
O524   O     0.50000   0.56108   0.46179   0.00000  Uiso   1.00
O525   O     0.50000   0.43893   0.46176   0.00000  Uiso   1.00
O526   O     0.50000   0.56107   0.53824   0.00000  Uiso   1.00
O527   O     0.42392   0.50000   0.52928   0.00000  Uiso   1.00
O528   O     0.57608   0.50000   0.47072   0.00000  Uiso   1.00
O529   O     0.42392   0.50000   0.45284   0.00000  Uiso   1.00
O530   O     0.57608   0.50000   0.54716   0.00000  Uiso   1.00
Zn531  Zn    0.50000   0.49999   0.55104   0.00000  Uiso   1.00
Zn532  Zn    0.50000   0.50001   0.44896   0.00000  Uiso   1.00
C533   C     0.83443   0.42007   0.50020   0.00000  Uiso   1.00
C534   C     0.86839   0.35404   0.53381   0.00000  Uiso   1.00
C535   C     0.83190   0.62405   0.49965   0.00000  Uiso   1.00
C536   C     0.83477   0.37595   0.50035   0.00000  Uiso   1.00
C537   C     0.86576   0.52619   0.36146   0.00000  Uiso   1.00
C538   C     0.80090   0.47381   0.63854   0.00000  Uiso   1.00
C539   C     0.86575   0.52618   0.64686   0.00000  Uiso   1.00
C540   C     0.80092   0.47382   0.35314   0.00000  Uiso   1.00
C541   C     0.83224   0.57993   0.49980   0.00000  Uiso   1.00
C542   C     0.73371   0.50000   0.48803   0.00000  Uiso   1.00
C543   C     0.93296   0.50000   0.51197   0.00000  Uiso   1.00
C544   C     0.67867   0.50007   0.48160   0.00000  Uiso   1.00
C545   C     0.98800   0.49993   0.51840   0.00000  Uiso   1.00
C546   C     0.80013   0.35557   0.46668   0.00000  Uiso   1.00
C547   C     0.86654   0.64443   0.53332   0.00000  Uiso   1.00
C548   C     0.79827   0.64596   0.46619   0.00000  Uiso   1.00
Cl549  Cl    0.75178   0.62112   0.42493   0.00000  Uiso   1.00
Cl550  Cl    0.91488   0.37888   0.57507   0.00000  Uiso   1.00
H551   H     0.99138   0.50027   0.44668   0.00000  Uiso   1.00
H552   H     0.67528   0.49973   0.55332   0.00000  Uiso   1.00
H553   H     0.77391   0.37311   0.44145   0.00000  Uiso   1.00
H554   H     0.89275   0.62689   0.55855   0.00000  Uiso   1.00
H555   H     0.89172   0.54714   0.38292   0.00000  Uiso   1.00
H556   H     0.77495   0.45286   0.61708   0.00000  Uiso   1.00
H557   H     0.89168   0.54713   0.63206   0.00000  Uiso   1.00
H558   H     0.77499   0.45287   0.36794   0.00000  Uiso   1.00
N559   N     0.83332   0.49999   0.61907   0.00000  Uiso   1.00
N560   N     0.83335   0.50001   0.38093   0.00000  Uiso   1.00
O561   O     0.83333   0.43892   0.53821   0.00000  Uiso   1.00
O562   O     0.83334   0.56108   0.46179   0.00000  Uiso   1.00
O563   O     0.83333   0.43893   0.46176   0.00000  Uiso   1.00
O564   O     0.83334   0.56107   0.53824   0.00000  Uiso   1.00
O565   O     0.75725   0.50000   0.52928   0.00000  Uiso   1.00
O566   O     0.90942   0.50000   0.47072   0.00000  Uiso   1.00
O567   O     0.75725   0.50000   0.45284   0.00000  Uiso   1.00
O568   O     0.90942   0.50000   0.54716   0.00000  Uiso   1.00
Zn569  Zn    0.83333   0.49999   0.55104   0.00000  Uiso   1.00
Zn570  Zn    0.83333   0.50001   0.44896   0.00000  Uiso   1.00
C571   C     0.16776   0.75340   0.50020   0.00000  Uiso   1.00
C572   C     0.20173   0.68737   0.53381   0.00000  Uiso   1.00
C573   C     0.16523   0.95739   0.49965   0.00000  Uiso   1.00
C574   C     0.16810   0.70928   0.50035   0.00000  Uiso   1.00
C575   C     0.19910   0.85952   0.36146   0.00000  Uiso   1.00
C576   C     0.13424   0.80714   0.63854   0.00000  Uiso   1.00
C577   C     0.19908   0.85951   0.64686   0.00000  Uiso   1.00
C578   C     0.13425   0.80716   0.35314   0.00000  Uiso   1.00
C579   C     0.16557   0.91326   0.49980   0.00000  Uiso   1.00
C580   C     0.06704   0.83333   0.48803   0.00000  Uiso   1.00
C581   C     0.26629   0.83333   0.51197   0.00000  Uiso   1.00
C582   C     0.01200   0.83341   0.48160   0.00000  Uiso   1.00
C583   C     0.32133   0.83326   0.51840   0.00000  Uiso   1.00
C584   C     0.13346   0.68890   0.46668   0.00000  Uiso   1.00
C585   C     0.19987   0.97776   0.53332   0.00000  Uiso   1.00
C586   C     0.13161   0.97930   0.46619   0.00000  Uiso   1.00
Cl587  Cl    0.08512   0.95445   0.42493   0.00000  Uiso   1.00
Cl588  Cl    0.24822   0.71222   0.57507   0.00000  Uiso   1.00
H589   H     0.32472   0.83360   0.44668   0.00000  Uiso   1.00
H590   H     0.00862   0.83306   0.55332   0.00000  Uiso   1.00
H591   H     0.10725   0.70644   0.44145   0.00000  Uiso   1.00
H592   H     0.22609   0.96022   0.55855   0.00000  Uiso   1.00
H593   H     0.22505   0.88047   0.38292   0.00000  Uiso   1.00
H594   H     0.10828   0.78620   0.61708   0.00000  Uiso   1.00
H595   H     0.22501   0.88046   0.63206   0.00000  Uiso   1.00
H596   H     0.10832   0.78621   0.36794   0.00000  Uiso   1.00
N597   N     0.16665   0.83332   0.61907   0.00000  Uiso   1.00
N598   N     0.16668   0.83334   0.38093   0.00000  Uiso   1.00
O599   O     0.16666   0.77225   0.53821   0.00000  Uiso   1.00
O600   O     0.16667   0.89442   0.46179   0.00000  Uiso   1.00
O601   O     0.16666   0.77226   0.46176   0.00000  Uiso   1.00
O602   O     0.16667   0.89441   0.53824   0.00000  Uiso   1.00
O603   O     0.09058   0.83333   0.52928   0.00000  Uiso   1.00
O604   O     0.24275   0.83334   0.47072   0.00000  Uiso   1.00
O605   O     0.09058   0.83334   0.45284   0.00000  Uiso   1.00
O606   O     0.24275   0.83333   0.54716   0.00000  Uiso   1.00
Zn607  Zn    0.16667   0.83333   0.55104   0.00000  Uiso   1.00
Zn608  Zn    0.16667   0.83334   0.44896   0.00000  Uiso   1.00
C609   C     0.50109   0.75340   0.50020   0.00000  Uiso   1.00
C610   C     0.53506   0.68737   0.53381   0.00000  Uiso   1.00
C611   C     0.49857   0.95739   0.49965   0.00000  Uiso   1.00
C612   C     0.50143   0.70928   0.50035   0.00000  Uiso   1.00
C613   C     0.53243   0.85952   0.36146   0.00000  Uiso   1.00
C614   C     0.46757   0.80714   0.63854   0.00000  Uiso   1.00
C615   C     0.53242   0.85951   0.64686   0.00000  Uiso   1.00
C616   C     0.46758   0.80716   0.35314   0.00000  Uiso   1.00
C617   C     0.49891   0.91326   0.49980   0.00000  Uiso   1.00
C618   C     0.40038   0.83333   0.48803   0.00000  Uiso   1.00
C619   C     0.59962   0.83333   0.51197   0.00000  Uiso   1.00
C620   C     0.34534   0.83341   0.48160   0.00000  Uiso   1.00
C621   C     0.65466   0.83326   0.51840   0.00000  Uiso   1.00
C622   C     0.46680   0.68890   0.46668   0.00000  Uiso   1.00
C623   C     0.53320   0.97776   0.53332   0.00000  Uiso   1.00
C624   C     0.46494   0.97930   0.46619   0.00000  Uiso   1.00
Cl625  Cl    0.41845   0.95445   0.42493   0.00000  Uiso   1.00
Cl626  Cl    0.58155   0.71222   0.57507   0.00000  Uiso   1.00
H627   H     0.65805   0.83360   0.44668   0.00000  Uiso   1.00
H628   H     0.34195   0.83306   0.55332   0.00000  Uiso   1.00
H629   H     0.44058   0.70644   0.44145   0.00000  Uiso   1.00
H630   H     0.55942   0.96022   0.55855   0.00000  Uiso   1.00
H631   H     0.55838   0.88047   0.38292   0.00000  Uiso   1.00
H632   H     0.44162   0.78620   0.61708   0.00000  Uiso   1.00
H633   H     0.55835   0.88046   0.63206   0.00000  Uiso   1.00
H634   H     0.44165   0.78621   0.36794   0.00000  Uiso   1.00
N635   N     0.49999   0.83332   0.61907   0.00000  Uiso   1.00
N636   N     0.50001   0.83334   0.38093   0.00000  Uiso   1.00
O637   O     0.50000   0.77225   0.53821   0.00000  Uiso   1.00
O638   O     0.50000   0.89442   0.46179   0.00000  Uiso   1.00
O639   O     0.50000   0.77226   0.46176   0.00000  Uiso   1.00
O640   O     0.50000   0.89441   0.53824   0.00000  Uiso   1.00
O641   O     0.42392   0.83333   0.52928   0.00000  Uiso   1.00
O642   O     0.57608   0.83334   0.47072   0.00000  Uiso   1.00
O643   O     0.42392   0.83334   0.45284   0.00000  Uiso   1.00
O644   O     0.57608   0.83333   0.54716   0.00000  Uiso   1.00
Zn645  Zn    0.50000   0.83333   0.55104   0.00000  Uiso   1.00
Zn646  Zn    0.50000   0.83334   0.44896   0.00000  Uiso   1.00
C647   C     0.83443   0.75340   0.50020   0.00000  Uiso   1.00
C648   C     0.86839   0.68737   0.53381   0.00000  Uiso   1.00
C649   C     0.83190   0.95739   0.49965   0.00000  Uiso   1.00
C650   C     0.83477   0.70928   0.50035   0.00000  Uiso   1.00
C651   C     0.86576   0.85952   0.36146   0.00000  Uiso   1.00
C652   C     0.80090   0.80714   0.63854   0.00000  Uiso   1.00
C653   C     0.86575   0.85951   0.64686   0.00000  Uiso   1.00
C654   C     0.80092   0.80716   0.35314   0.00000  Uiso   1.00
C655   C     0.83224   0.91326   0.49980   0.00000  Uiso   1.00
C656   C     0.73371   0.83333   0.48803   0.00000  Uiso   1.00
C657   C     0.93296   0.83333   0.51197   0.00000  Uiso   1.00
C658   C     0.67867   0.83341   0.48160   0.00000  Uiso   1.00
C659   C     0.98800   0.83326   0.51840   0.00000  Uiso   1.00
C660   C     0.80013   0.68890   0.46668   0.00000  Uiso   1.00
C661   C     0.86654   0.97776   0.53332   0.00000  Uiso   1.00
C662   C     0.79827   0.97930   0.46619   0.00000  Uiso   1.00
Cl663  Cl    0.75178   0.95445   0.42493   0.00000  Uiso   1.00
Cl664  Cl    0.91488   0.71222   0.57507   0.00000  Uiso   1.00
H665   H     0.99138   0.83360   0.44668   0.00000  Uiso   1.00
H666   H     0.67528   0.83306   0.55332   0.00000  Uiso   1.00
H667   H     0.77391   0.70644   0.44145   0.00000  Uiso   1.00
H668   H     0.89275   0.96022   0.55855   0.00000  Uiso   1.00
H669   H     0.89172   0.88047   0.38292   0.00000  Uiso   1.00
H670   H     0.77495   0.78620   0.61708   0.00000  Uiso   1.00
H671   H     0.89168   0.88046   0.63206   0.00000  Uiso   1.00
H672   H     0.77499   0.78621   0.36794   0.00000  Uiso   1.00
N673   N     0.83332   0.83332   0.61907   0.00000  Uiso   1.00
N674   N     0.83335   0.83334   0.38093   0.00000  Uiso   1.00
O675   O     0.83333   0.77225   0.53821   0.00000  Uiso   1.00
O676   O     0.83334   0.89442   0.46179   0.00000  Uiso   1.00
O677   O     0.83333   0.77226   0.46176   0.00000  Uiso   1.00
O678   O     0.83334   0.89441   0.53824   0.00000  Uiso   1.00
O679   O     0.75725   0.83333   0.52928   0.00000  Uiso   1.00
O680   O     0.90942   0.83334   0.47072   0.00000  Uiso   1.00
O681   O     0.75725   0.83334   0.45284   0.00000  Uiso   1.00
O682   O     0.90942   0.83333   0.54716   0.00000  Uiso   1.00
Zn683  Zn    0.83333   0.83333   0.55104   0.00000  Uiso   1.00
Zn684  Zn    0.83333   0.83334   0.44896   0.00000  Uiso   1.00
C685   C     0.16776   0.08674   0.83353   0.00000  Uiso   1.00
C686   C     0.20173   0.02070   0.86714   0.00000  Uiso   1.00
C687   C     0.16523   0.29072   0.83299   0.00000  Uiso   1.00
C688   C     0.16810   0.04261   0.83368   0.00000  Uiso   1.00
C689   C     0.19910   0.19285   0.69479   0.00000  Uiso   1.00
C690   C     0.13424   0.14048   0.97187   0.00000  Uiso   1.00
C691   C     0.19908   0.19284   0.98020   0.00000  Uiso   1.00
C692   C     0.13425   0.14049   0.68647   0.00000  Uiso   1.00
C693   C     0.16557   0.24660   0.83313   0.00000  Uiso   1.00
C694   C     0.06704   0.16667   0.82137   0.00000  Uiso   1.00
C695   C     0.26629   0.16667   0.84530   0.00000  Uiso   1.00
C696   C     0.01200   0.16674   0.81493   0.00000  Uiso   1.00
C697   C     0.32133   0.16659   0.85174   0.00000  Uiso   1.00
C698   C     0.13346   0.02224   0.80001   0.00000  Uiso   1.00
C699   C     0.19987   0.31110   0.86665   0.00000  Uiso   1.00
C700   C     0.13161   0.31263   0.79952   0.00000  Uiso   1.00
Cl701  Cl    0.08512   0.28778   0.75826   0.00000  Uiso   1.00
Cl702  Cl    0.24822   0.04555   0.90840   0.00000  Uiso   1.00
H703   H     0.32472   0.16694   0.78001   0.00000  Uiso   1.00
H704   H     0.00862   0.16640   0.88665   0.00000  Uiso   1.00
H705   H     0.10725   0.03978   0.77478   0.00000  Uiso   1.00
H706   H     0.22609   0.29356   0.89189   0.00000  Uiso   1.00
H707   H     0.22505   0.21380   0.71625   0.00000  Uiso   1.00
H708   H     0.10828   0.11953   0.95041   0.00000  Uiso   1.00
H709   H     0.22501   0.21379   0.96540   0.00000  Uiso   1.00
H710   H     0.10832   0.11954   0.70127   0.00000  Uiso   1.00
N711   N     0.16665   0.16666   0.95240   0.00000  Uiso   1.00
N712   N     0.16668   0.16668   0.71427   0.00000  Uiso   1.00
O713   O     0.16666   0.10558   0.87154   0.00000  Uiso   1.00
O714   O     0.16667   0.22775   0.79513   0.00000  Uiso   1.00
O715   O     0.16666   0.10559   0.79510   0.00000  Uiso   1.00
O716   O     0.16667   0.22774   0.87157   0.00000  Uiso   1.00
O717   O     0.09058   0.16666   0.86261   0.00000  Uiso   1.00
O718   O     0.24275   0.16667   0.80405   0.00000  Uiso   1.00
O719   O     0.09058   0.16667   0.78617   0.00000  Uiso   1.00
O720   O     0.24275   0.16666   0.88050   0.00000  Uiso   1.00
Zn721  Zn    0.16667   0.16666   0.88437   0.00000  Uiso   1.00
Zn722  Zn    0.16667   0.16667   0.78229   0.00000  Uiso   1.00
C723   C     0.50109   0.08674   0.83353   0.00000  Uiso   1.00
C724   C     0.53506   0.02070   0.86714   0.00000  Uiso   1.00
C725   C     0.49857   0.29072   0.83299   0.00000  Uiso   1.00
C726   C     0.50143   0.04261   0.83368   0.00000  Uiso   1.00
C727   C     0.53243   0.19285   0.69479   0.00000  Uiso   1.00
C728   C     0.46757   0.14048   0.97187   0.00000  Uiso   1.00
C729   C     0.53242   0.19284   0.98020   0.00000  Uiso   1.00
C730   C     0.46758   0.14049   0.68647   0.00000  Uiso   1.00
C731   C     0.49891   0.24660   0.83313   0.00000  Uiso   1.00
C732   C     0.40038   0.16667   0.82137   0.00000  Uiso   1.00
C733   C     0.59962   0.16667   0.84530   0.00000  Uiso   1.00
C734   C     0.34534   0.16674   0.81493   0.00000  Uiso   1.00
C735   C     0.65466   0.16659   0.85174   0.00000  Uiso   1.00
C736   C     0.46680   0.02224   0.80001   0.00000  Uiso   1.00
C737   C     0.53320   0.31110   0.86665   0.00000  Uiso   1.00
C738   C     0.46494   0.31263   0.79952   0.00000  Uiso   1.00
Cl739  Cl    0.41845   0.28778   0.75826   0.00000  Uiso   1.00
Cl740  Cl    0.58155   0.04555   0.90840   0.00000  Uiso   1.00
H741   H     0.65805   0.16694   0.78001   0.00000  Uiso   1.00
H742   H     0.34195   0.16640   0.88665   0.00000  Uiso   1.00
H743   H     0.44058   0.03978   0.77478   0.00000  Uiso   1.00
H744   H     0.55942   0.29356   0.89189   0.00000  Uiso   1.00
H745   H     0.55838   0.21380   0.71625   0.00000  Uiso   1.00
H746   H     0.44162   0.11953   0.95041   0.00000  Uiso   1.00
H747   H     0.55835   0.21379   0.96540   0.00000  Uiso   1.00
H748   H     0.44165   0.11954   0.70127   0.00000  Uiso   1.00
N749   N     0.49999   0.16666   0.95240   0.00000  Uiso   1.00
N750   N     0.50001   0.16668   0.71427   0.00000  Uiso   1.00
O751   O     0.50000   0.10558   0.87154   0.00000  Uiso   1.00
O752   O     0.50000   0.22775   0.79513   0.00000  Uiso   1.00
O753   O     0.50000   0.10559   0.79510   0.00000  Uiso   1.00
O754   O     0.50000   0.22774   0.87157   0.00000  Uiso   1.00
O755   O     0.42392   0.16666   0.86261   0.00000  Uiso   1.00
O756   O     0.57608   0.16667   0.80405   0.00000  Uiso   1.00
O757   O     0.42392   0.16667   0.78617   0.00000  Uiso   1.00
O758   O     0.57608   0.16666   0.88050   0.00000  Uiso   1.00
Zn759  Zn    0.50000   0.16666   0.88437   0.00000  Uiso   1.00
Zn760  Zn    0.50000   0.16667   0.78229   0.00000  Uiso   1.00
C761   C     0.83443   0.08674   0.83353   0.00000  Uiso   1.00
C762   C     0.86839   0.02070   0.86714   0.00000  Uiso   1.00
C763   C     0.83190   0.29072   0.83299   0.00000  Uiso   1.00
C764   C     0.83477   0.04261   0.83368   0.00000  Uiso   1.00
C765   C     0.86576   0.19285   0.69479   0.00000  Uiso   1.00
C766   C     0.80090   0.14048   0.97187   0.00000  Uiso   1.00
C767   C     0.86575   0.19284   0.98020   0.00000  Uiso   1.00
C768   C     0.80092   0.14049   0.68647   0.00000  Uiso   1.00
C769   C     0.83224   0.24660   0.83313   0.00000  Uiso   1.00
C770   C     0.73371   0.16667   0.82137   0.00000  Uiso   1.00
C771   C     0.93296   0.16667   0.84530   0.00000  Uiso   1.00
C772   C     0.67867   0.16674   0.81493   0.00000  Uiso   1.00
C773   C     0.98800   0.16659   0.85174   0.00000  Uiso   1.00
C774   C     0.80013   0.02224   0.80001   0.00000  Uiso   1.00
C775   C     0.86654   0.31110   0.86665   0.00000  Uiso   1.00
C776   C     0.79827   0.31263   0.79952   0.00000  Uiso   1.00
Cl777  Cl    0.75178   0.28778   0.75826   0.00000  Uiso   1.00
Cl778  Cl    0.91488   0.04555   0.90840   0.00000  Uiso   1.00
H779   H     0.99138   0.16694   0.78001   0.00000  Uiso   1.00
H780   H     0.67528   0.16640   0.88665   0.00000  Uiso   1.00
H781   H     0.77391   0.03978   0.77478   0.00000  Uiso   1.00
H782   H     0.89275   0.29356   0.89189   0.00000  Uiso   1.00
H783   H     0.89172   0.21380   0.71625   0.00000  Uiso   1.00
H784   H     0.77495   0.11953   0.95041   0.00000  Uiso   1.00
H785   H     0.89168   0.21379   0.96540   0.00000  Uiso   1.00
H786   H     0.77499   0.11954   0.70127   0.00000  Uiso   1.00
N787   N     0.83332   0.16666   0.95240   0.00000  Uiso   1.00
N788   N     0.83335   0.16668   0.71427   0.00000  Uiso   1.00
O789   O     0.83333   0.10558   0.87154   0.00000  Uiso   1.00
O790   O     0.83334   0.22775   0.79513   0.00000  Uiso   1.00
O791   O     0.83333   0.10559   0.79510   0.00000  Uiso   1.00
O792   O     0.83334   0.22774   0.87157   0.00000  Uiso   1.00
O793   O     0.75725   0.16666   0.86261   0.00000  Uiso   1.00
O794   O     0.90942   0.16667   0.80405   0.00000  Uiso   1.00
O795   O     0.75725   0.16667   0.78617   0.00000  Uiso   1.00
O796   O     0.90942   0.16666   0.88050   0.00000  Uiso   1.00
Zn797  Zn    0.83333   0.16666   0.88437   0.00000  Uiso   1.00
Zn798  Zn    0.83333   0.16667   0.78229   0.00000  Uiso   1.00
C799   C     0.16776   0.42007   0.83353   0.00000  Uiso   1.00
C800   C     0.20173   0.35404   0.86714   0.00000  Uiso   1.00
C801   C     0.16523   0.62405   0.83299   0.00000  Uiso   1.00
C802   C     0.16810   0.37595   0.83368   0.00000  Uiso   1.00
C803   C     0.19910   0.52619   0.69479   0.00000  Uiso   1.00
C804   C     0.13424   0.47381   0.97187   0.00000  Uiso   1.00
C805   C     0.19908   0.52618   0.98020   0.00000  Uiso   1.00
C806   C     0.13425   0.47382   0.68647   0.00000  Uiso   1.00
C807   C     0.16557   0.57993   0.83313   0.00000  Uiso   1.00
C808   C     0.06704   0.50000   0.82137   0.00000  Uiso   1.00
C809   C     0.26629   0.50000   0.84530   0.00000  Uiso   1.00
C810   C     0.01200   0.50007   0.81493   0.00000  Uiso   1.00
C811   C     0.32133   0.49993   0.85174   0.00000  Uiso   1.00
C812   C     0.13346   0.35557   0.80001   0.00000  Uiso   1.00
C813   C     0.19987   0.64443   0.86665   0.00000  Uiso   1.00
C814   C     0.13161   0.64596   0.79952   0.00000  Uiso   1.00
Cl815  Cl    0.08512   0.62112   0.75826   0.00000  Uiso   1.00
Cl816  Cl    0.24822   0.37888   0.90840   0.00000  Uiso   1.00
H817   H     0.32472   0.50027   0.78001   0.00000  Uiso   1.00
H818   H     0.00862   0.49973   0.88665   0.00000  Uiso   1.00
H819   H     0.10725   0.37311   0.77478   0.00000  Uiso   1.00
H820   H     0.22609   0.62689   0.89189   0.00000  Uiso   1.00
H821   H     0.22505   0.54714   0.71625   0.00000  Uiso   1.00
H822   H     0.10828   0.45286   0.95041   0.00000  Uiso   1.00
H823   H     0.22501   0.54713   0.96540   0.00000  Uiso   1.00
H824   H     0.10832   0.45287   0.70127   0.00000  Uiso   1.00
N825   N     0.16665   0.49999   0.95240   0.00000  Uiso   1.00
N826   N     0.16668   0.50001   0.71427   0.00000  Uiso   1.00
O827   O     0.16666   0.43892   0.87154   0.00000  Uiso   1.00
O828   O     0.16667   0.56108   0.79513   0.00000  Uiso   1.00
O829   O     0.16666   0.43893   0.79510   0.00000  Uiso   1.00
O830   O     0.16667   0.56107   0.87157   0.00000  Uiso   1.00
O831   O     0.09058   0.50000   0.86261   0.00000  Uiso   1.00
O832   O     0.24275   0.50000   0.80405   0.00000  Uiso   1.00
O833   O     0.09058   0.50000   0.78617   0.00000  Uiso   1.00
O834   O     0.24275   0.50000   0.88050   0.00000  Uiso   1.00
Zn835  Zn    0.16667   0.49999   0.88437   0.00000  Uiso   1.00
Zn836  Zn    0.16667   0.50001   0.78229   0.00000  Uiso   1.00
C837   C     0.50109   0.42007   0.83353   0.00000  Uiso   1.00
C838   C     0.53506   0.35404   0.86714   0.00000  Uiso   1.00
C839   C     0.49857   0.62405   0.83299   0.00000  Uiso   1.00
C840   C     0.50143   0.37595   0.83368   0.00000  Uiso   1.00
C841   C     0.53243   0.52619   0.69479   0.00000  Uiso   1.00
C842   C     0.46757   0.47381   0.97187   0.00000  Uiso   1.00
C843   C     0.53242   0.52618   0.98020   0.00000  Uiso   1.00
C844   C     0.46758   0.47382   0.68647   0.00000  Uiso   1.00
C845   C     0.49891   0.57993   0.83313   0.00000  Uiso   1.00
C846   C     0.40038   0.50000   0.82137   0.00000  Uiso   1.00
C847   C     0.59962   0.50000   0.84530   0.00000  Uiso   1.00
C848   C     0.34534   0.50007   0.81493   0.00000  Uiso   1.00
C849   C     0.65466   0.49993   0.85174   0.00000  Uiso   1.00
C850   C     0.46680   0.35557   0.80001   0.00000  Uiso   1.00
C851   C     0.53320   0.64443   0.86665   0.00000  Uiso   1.00
C852   C     0.46494   0.64596   0.79952   0.00000  Uiso   1.00
Cl853  Cl    0.41845   0.62112   0.75826   0.00000  Uiso   1.00
Cl854  Cl    0.58155   0.37888   0.90840   0.00000  Uiso   1.00
H855   H     0.65805   0.50027   0.78001   0.00000  Uiso   1.00
H856   H     0.34195   0.49973   0.88665   0.00000  Uiso   1.00
H857   H     0.44058   0.37311   0.77478   0.00000  Uiso   1.00
H858   H     0.55942   0.62689   0.89189   0.00000  Uiso   1.00
H859   H     0.55838   0.54714   0.71625   0.00000  Uiso   1.00
H860   H     0.44162   0.45286   0.95041   0.00000  Uiso   1.00
H861   H     0.55835   0.54713   0.96540   0.00000  Uiso   1.00
H862   H     0.44165   0.45287   0.70127   0.00000  Uiso   1.00
N863   N     0.49999   0.49999   0.95240   0.00000  Uiso   1.00
N864   N     0.50001   0.50001   0.71427   0.00000  Uiso   1.00
O865   O     0.50000   0.43892   0.87154   0.00000  Uiso   1.00
O866   O     0.50000   0.56108   0.79513   0.00000  Uiso   1.00
O867   O     0.50000   0.43893   0.79510   0.00000  Uiso   1.00
O868   O     0.50000   0.56107   0.87157   0.00000  Uiso   1.00
O869   O     0.42392   0.50000   0.86261   0.00000  Uiso   1.00
O870   O     0.57608   0.50000   0.80405   0.00000  Uiso   1.00
O871   O     0.42392   0.50000   0.78617   0.00000  Uiso   1.00
O872   O     0.57608   0.50000   0.88050   0.00000  Uiso   1.00
Zn873  Zn    0.50000   0.49999   0.88437   0.00000  Uiso   1.00
Zn874  Zn    0.50000   0.50001   0.78229   0.00000  Uiso   1.00
C875   C     0.83443   0.42007   0.83353   0.00000  Uiso   1.00
C876   C     0.86839   0.35404   0.86714   0.00000  Uiso   1.00
C877   C     0.83190   0.62405   0.83299   0.00000  Uiso   1.00
C878   C     0.83477   0.37595   0.83368   0.00000  Uiso   1.00
C879   C     0.86576   0.52619   0.69479   0.00000  Uiso   1.00
C880   C     0.80090   0.47381   0.97187   0.00000  Uiso   1.00
C881   C     0.86575   0.52618   0.98020   0.00000  Uiso   1.00
C882   C     0.80092   0.47382   0.68647   0.00000  Uiso   1.00
C883   C     0.83224   0.57993   0.83313   0.00000  Uiso   1.00
C884   C     0.73371   0.50000   0.82137   0.00000  Uiso   1.00
C885   C     0.93296   0.50000   0.84530   0.00000  Uiso   1.00
C886   C     0.67867   0.50007   0.81493   0.00000  Uiso   1.00
C887   C     0.98800   0.49993   0.85174   0.00000  Uiso   1.00
C888   C     0.80013   0.35557   0.80001   0.00000  Uiso   1.00
C889   C     0.86654   0.64443   0.86665   0.00000  Uiso   1.00
C890   C     0.79827   0.64596   0.79952   0.00000  Uiso   1.00
Cl891  Cl    0.75178   0.62112   0.75826   0.00000  Uiso   1.00
Cl892  Cl    0.91488   0.37888   0.90840   0.00000  Uiso   1.00
H893   H     0.99138   0.50027   0.78001   0.00000  Uiso   1.00
H894   H     0.67528   0.49973   0.88665   0.00000  Uiso   1.00
H895   H     0.77391   0.37311   0.77478   0.00000  Uiso   1.00
H896   H     0.89275   0.62689   0.89189   0.00000  Uiso   1.00
H897   H     0.89172   0.54714   0.71625   0.00000  Uiso   1.00
H898   H     0.77495   0.45286   0.95041   0.00000  Uiso   1.00
H899   H     0.89168   0.54713   0.96540   0.00000  Uiso   1.00
H900   H     0.77499   0.45287   0.70127   0.00000  Uiso   1.00
N901   N     0.83332   0.49999   0.95240   0.00000  Uiso   1.00
N902   N     0.83335   0.50001   0.71427   0.00000  Uiso   1.00
O903   O     0.83333   0.43892   0.87154   0.00000  Uiso   1.00
O904   O     0.83334   0.56108   0.79513   0.00000  Uiso   1.00
O905   O     0.83333   0.43893   0.79510   0.00000  Uiso   1.00
O906   O     0.83334   0.56107   0.87157   0.00000  Uiso   1.00
O907   O     0.75725   0.50000   0.86261   0.00000  Uiso   1.00
O908   O     0.90942   0.50000   0.80405   0.00000  Uiso   1.00
O909   O     0.75725   0.50000   0.78617   0.00000  Uiso   1.00
O910   O     0.90942   0.50000   0.88050   0.00000  Uiso   1.00
Zn911  Zn    0.83333   0.49999   0.88437   0.00000  Uiso   1.00
Zn912  Zn    0.83333   0.50001   0.78229   0.00000  Uiso   1.00
C913   C     0.16776   0.75340   0.83353   0.00000  Uiso   1.00
C914   C     0.20173   0.68737   0.86714   0.00000  Uiso   1.00
C915   C     0.16523   0.95739   0.83299   0.00000  Uiso   1.00
C916   C     0.16810   0.70928   0.83368   0.00000  Uiso   1.00
C917   C     0.19910   0.85952   0.69479   0.00000  Uiso   1.00
C918   C     0.13424   0.80714   0.97187   0.00000  Uiso   1.00
C919   C     0.19908   0.85951   0.98020   0.00000  Uiso   1.00
C920   C     0.13425   0.80716   0.68647   0.00000  Uiso   1.00
C921   C     0.16557   0.91326   0.83313   0.00000  Uiso   1.00
C922   C     0.06704   0.83333   0.82137   0.00000  Uiso   1.00
C923   C     0.26629   0.83333   0.84530   0.00000  Uiso   1.00
C924   C     0.01200   0.83341   0.81493   0.00000  Uiso   1.00
C925   C     0.32133   0.83326   0.85174   0.00000  Uiso   1.00
C926   C     0.13346   0.68890   0.80001   0.00000  Uiso   1.00
C927   C     0.19987   0.97776   0.86665   0.00000  Uiso   1.00
C928   C     0.13161   0.97930   0.79952   0.00000  Uiso   1.00
Cl929  Cl    0.08512   0.95445   0.75826   0.00000  Uiso   1.00
Cl930  Cl    0.24822   0.71222   0.90840   0.00000  Uiso   1.00
H931   H     0.32472   0.83360   0.78001   0.00000  Uiso   1.00
H932   H     0.00862   0.83306   0.88665   0.00000  Uiso   1.00
H933   H     0.10725   0.70644   0.77478   0.00000  Uiso   1.00
H934   H     0.22609   0.96022   0.89189   0.00000  Uiso   1.00
H935   H     0.22505   0.88047   0.71625   0.00000  Uiso   1.00
H936   H     0.10828   0.78620   0.95041   0.00000  Uiso   1.00
H937   H     0.22501   0.88046   0.96540   0.00000  Uiso   1.00
H938   H     0.10832   0.78621   0.70127   0.00000  Uiso   1.00
N939   N     0.16665   0.83332   0.95240   0.00000  Uiso   1.00
N940   N     0.16668   0.83334   0.71427   0.00000  Uiso   1.00
O941   O     0.16666   0.77225   0.87154   0.00000  Uiso   1.00
O942   O     0.16667   0.89442   0.79513   0.00000  Uiso   1.00
O943   O     0.16666   0.77226   0.79510   0.00000  Uiso   1.00
O944   O     0.16667   0.89441   0.87157   0.00000  Uiso   1.00
O945   O     0.09058   0.83333   0.86261   0.00000  Uiso   1.00
O946   O     0.24275   0.83334   0.80405   0.00000  Uiso   1.00
O947   O     0.09058   0.83334   0.78617   0.00000  Uiso   1.00
O948   O     0.24275   0.83333   0.88050   0.00000  Uiso   1.00
Zn949  Zn    0.16667   0.83333   0.88437   0.00000  Uiso   1.00
Zn950  Zn    0.16667   0.83334   0.78229   0.00000  Uiso   1.00
C951   C     0.50109   0.75340   0.83353   0.00000  Uiso   1.00
C952   C     0.53506   0.68737   0.86714   0.00000  Uiso   1.00
C953   C     0.49857   0.95739   0.83299   0.00000  Uiso   1.00
C954   C     0.50143   0.70928   0.83368   0.00000  Uiso   1.00
C955   C     0.53243   0.85952   0.69479   0.00000  Uiso   1.00
C956   C     0.46757   0.80714   0.97187   0.00000  Uiso   1.00
C957   C     0.53242   0.85951   0.98020   0.00000  Uiso   1.00
C958   C     0.46758   0.80716   0.68647   0.00000  Uiso   1.00
C959   C     0.49891   0.91326   0.83313   0.00000  Uiso   1.00
C960   C     0.40038   0.83333   0.82137   0.00000  Uiso   1.00
C961   C     0.59962   0.83333   0.84530   0.00000  Uiso   1.00
C962   C     0.34534   0.83341   0.81493   0.00000  Uiso   1.00
C963   C     0.65466   0.83326   0.85174   0.00000  Uiso   1.00
C964   C     0.46680   0.68890   0.80001   0.00000  Uiso   1.00
C965   C     0.53320   0.97776   0.86665   0.00000  Uiso   1.00
C966   C     0.46494   0.97930   0.79952   0.00000  Uiso   1.00
Cl967  Cl    0.41845   0.95445   0.75826   0.00000  Uiso   1.00
Cl968  Cl    0.58155   0.71222   0.90840   0.00000  Uiso   1.00
H969   H     0.65805   0.83360   0.78001   0.00000  Uiso   1.00
H970   H     0.34195   0.83306   0.88665   0.00000  Uiso   1.00
H971   H     0.44058   0.70644   0.77478   0.00000  Uiso   1.00
H972   H     0.55942   0.96022   0.89189   0.00000  Uiso   1.00
H973   H     0.55838   0.88047   0.71625   0.00000  Uiso   1.00
H974   H     0.44162   0.78620   0.95041   0.00000  Uiso   1.00
H975   H     0.55835   0.88046   0.96540   0.00000  Uiso   1.00
H976   H     0.44165   0.78621   0.70127   0.00000  Uiso   1.00
N977   N     0.49999   0.83332   0.95240   0.00000  Uiso   1.00
N978   N     0.50001   0.83334   0.71427   0.00000  Uiso   1.00
O979   O     0.50000   0.77225   0.87154   0.00000  Uiso   1.00
O980   O     0.50000   0.89442   0.79513   0.00000  Uiso   1.00
O981   O     0.50000   0.77226   0.79510   0.00000  Uiso   1.00
O982   O     0.50000   0.89441   0.87157   0.00000  Uiso   1.00
O983   O     0.42392   0.83333   0.86261   0.00000  Uiso   1.00
O984   O     0.57608   0.83334   0.80405   0.00000  Uiso   1.00
O985   O     0.42392   0.83334   0.78617   0.00000  Uiso   1.00
O986   O     0.57608   0.83333   0.88050   0.00000  Uiso   1.00
Zn987  Zn    0.50000   0.83333   0.88437   0.00000  Uiso   1.00
Zn988  Zn    0.50000   0.83334   0.78229   0.00000  Uiso   1.00
C989   C     0.83443   0.75340   0.83353   0.00000  Uiso   1.00
C990   C     0.86839   0.68737   0.86714   0.00000  Uiso   1.00
C991   C     0.83190   0.95739   0.83299   0.00000  Uiso   1.00
C992   C     0.83477   0.70928   0.83368   0.00000  Uiso   1.00
C993   C     0.86576   0.85952   0.69479   0.00000  Uiso   1.00
C994   C     0.80090   0.80714   0.97187   0.00000  Uiso   1.00
C995   C     0.86575   0.85951   0.98020   0.00000  Uiso   1.00
C996   C     0.80092   0.80716   0.68647   0.00000  Uiso   1.00
C997   C     0.83224   0.91326   0.83313   0.00000  Uiso   1.00
C998   C     0.73371   0.83333   0.82137   0.00000  Uiso   1.00
C999   C     0.93296   0.83333   0.84530   0.00000  Uiso   1.00
C1000  C     0.67867   0.83341   0.81493   0.00000  Uiso   1.00
C1001  C     0.98800   0.83326   0.85174   0.00000  Uiso   1.00
C1002  C     0.80013   0.68890   0.80001   0.00000  Uiso   1.00
C1003  C     0.86654   0.97776   0.86665   0.00000  Uiso   1.00
C1004  C     0.79827   0.97930   0.79952   0.00000  Uiso   1.00
Cl1005 Cl    0.75178   0.95445   0.75826   0.00000  Uiso   1.00
Cl1006 Cl    0.91488   0.71222   0.90840   0.00000  Uiso   1.00
H1007  H     0.99138   0.83360   0.78001   0.00000  Uiso   1.00
H1008  H     0.67528   0.83306   0.88665   0.00000  Uiso   1.00
H1009  H     0.77391   0.70644   0.77478   0.00000  Uiso   1.00
H1010  H     0.89275   0.96022   0.89189   0.00000  Uiso   1.00
H1011  H     0.89172   0.88047   0.71625   0.00000  Uiso   1.00
H1012  H     0.77495   0.78620   0.95041   0.00000  Uiso   1.00
H1013  H     0.89168   0.88046   0.96540   0.00000  Uiso   1.00
H1014  H     0.77499   0.78621   0.70127   0.00000  Uiso   1.00
N1015  N     0.83332   0.83332   0.95240   0.00000  Uiso   1.00
N1016  N     0.83335   0.83334   0.71427   0.00000  Uiso   1.00
O1017  O     0.83333   0.77225   0.87154   0.00000  Uiso   1.00
O1018  O     0.83334   0.89442   0.79513   0.00000  Uiso   1.00
O1019  O     0.83333   0.77226   0.79510   0.00000  Uiso   1.00
O1020  O     0.83334   0.89441   0.87157   0.00000  Uiso   1.00
O1021  O     0.75725   0.83333   0.86261   0.00000  Uiso   1.00
O1022  O     0.90942   0.83334   0.80405   0.00000  Uiso   1.00
O1023  O     0.75725   0.83334   0.78617   0.00000  Uiso   1.00
O1024  O     0.90942   0.83333   0.88050   0.00000  Uiso   1.00
Zn1025 Zn    0.83333   0.83333   0.88437   0.00000  Uiso   1.00
Zn1026 Zn    0.83333   0.83334   0.78229   0.00000  Uiso   1.00
loop_
_geom_bond_atom_site_label_1
_geom_bond_atom_site_label_2
_geom_bond_distance
_geom_bond_site_symmetry_2
_ccdc_geom_bond_type
C1     C4      1.410   .     S
C1     O29     1.281   .     A
C1     O31     1.282   .     A
C2     C4      1.401   .     A
C2     Cl18    1.765   .     S
C2     C243    1.373   1_545 S
C3     C9      1.410   .     S
C3     C15     1.395   .     A
C3     C16     1.401   .     A
C4     C14     1.395   .     A
C5     N28     1.367   .     A
C5     H23     1.082   .     S
C5     C691    1.417   1_554 S
C6     N27     1.367   .     A
C6     H24     1.082   .     S
C6     C350    1.417   .     S
C7     H25     1.082   .     S
C7     N27     1.367   .     A
C7     C347    1.417   .     S
C8     H26     1.082   .     S
C8     N28     1.367   .     A
C8     C690    1.417   1_554 S
C9     O30     1.281   .     A
C9     O32     1.282   .     A
C10    O35     1.281   .     A
C10    C12     1.403   .     S
C10    O33     1.278   .     A
C11    C13     1.403   .     S
C11    O36     1.281   .     A
C11    O34     1.278   .     A
C12    C89     1.330   1_455 S
C12    H95     1.088   1_455 S
C13    C50     1.330   .     S
C13    H58     1.088   .     S
C14    H21     1.085   .     S
C14    C244    1.373   1_545 S
C15    H22     1.085   .     S
C15    C116    1.373   .     S
C16    Cl17    1.765   .     S
C16    C128    1.373   .     S
H19    C50     1.088   .     S
H20    C89     1.088   1_455 S
N27    Zn37    2.012   .     S
N28    Zn38    2.012   .     S
O29    Zn37    1.990   .     S
O30    Zn38    1.990   .     S
O31    Zn38    1.988   .     S
O32    Zn37    1.988   .     S
O33    Zn37    1.970   .     S
O34    Zn38    1.970   .     S
O35    Zn38    1.981   .     S
O36    Zn37    1.981   .     S
C39    C42     1.410   .     S
C39    O67     1.281   .     A
C39    O69     1.282   .     A
C40    C42     1.401   .     A
C40    Cl56    1.765   .     S
C40    C281    1.373   1_545 S
C41    C47     1.410   .     S
C41    C53     1.395   .     A
C41    C54     1.401   .     A
C42    C52     1.395   .     A
C43    N66     1.367   .     A
C43    H61     1.082   .     S
C43    C729    1.417   1_554 S
C44    N65     1.367   .     A
C44    H62     1.082   .     S
C44    C388    1.417   .     S
C45    H63     1.082   .     S
C45    N65     1.367   .     A
C45    C385    1.417   .     S
C46    H64     1.082   .     S
C46    N66     1.367   .     A
C46    C728    1.417   1_554 S
C47    O68     1.281   .     A
C47    O70     1.282   .     A
C48    O73     1.281   .     A
C48    C50     1.403   .     S
C48    O71     1.278   .     A
C49    C51     1.403   .     S
C49    O74     1.281   .     A
C49    O72     1.278   .     A
C51    C88     1.330   .     S
C51    H96     1.088   .     S
C52    H59     1.085   .     S
C52    C282    1.373   1_545 S
C53    H60     1.085   .     S
C53    C154    1.373   .     S
C54    Cl55    1.765   .     S
C54    C166    1.373   .     S
H57    C88     1.088   .     S
N65    Zn75    2.012   .     S
N66    Zn76    2.012   .     S
O67    Zn75    1.990   .     S
O68    Zn76    1.990   .     S
O69    Zn76    1.988   .     S
O70    Zn75    1.988   .     S
O71    Zn75    1.970   .     S
O72    Zn76    1.970   .     S
O73    Zn76    1.981   .     S
O74    Zn75    1.981   .     S
C77    C80     1.410   .     S
C77    O105    1.281   .     A
C77    O107    1.282   .     A
C78    C80     1.401   .     A
C78    Cl94    1.765   .     S
C78    C319    1.373   1_545 S
C79    C85     1.410   .     S
C79    C91     1.395   .     A
C79    C92     1.401   .     A
C80    C90     1.395   .     A
C81    N104    1.367   .     A
C81    H99     1.082   .     S
C81    C767    1.417   1_554 S
C82    N103    1.367   .     A
C82    H100    1.082   .     S
C82    C426    1.417   .     S
C83    H101    1.082   .     S
C83    N103    1.367   .     A
C83    C423    1.417   .     S
C84    H102    1.082   .     S
C84    N104    1.367   .     A
C84    C766    1.417   1_554 S
C85    O106    1.281   .     A
C85    O108    1.282   .     A
C86    O111    1.281   .     A
C86    C88     1.403   .     S
C86    O109    1.278   .     A
C87    C89     1.403   .     S
C87    O112    1.281   .     A
C87    O110    1.278   .     A
C89    C12     1.330   1_655 S
C89    H20     1.088   1_655 S
C90    H97     1.085   .     S
C90    C320    1.373   1_545 S
C91    H98     1.085   .     S
C91    C192    1.373   .     S
C92    Cl93    1.765   .     S
C92    C204    1.373   .     S
H95    C12     1.088   1_655 S
N103   Zn113   2.012   .     S
N104   Zn114   2.012   .     S
O105   Zn113   1.990   .     S
O106   Zn114   1.990   .     S
O107   Zn114   1.988   .     S
O108   Zn113   1.988   .     S
O109   Zn113   1.970   .     S
O110   Zn114   1.970   .     S
O111   Zn114   1.981   .     S
O112   Zn113   1.981   .     S
C115   C118    1.410   .     S
C115   O143    1.281   .     A
C115   O145    1.282   .     A
C116   C118    1.401   .     A
C116   Cl132   1.765   .     S
C117   C123    1.410   .     S
C117   C129    1.395   .     A
C117   C130    1.401   .     A
C118   C128    1.395   .     A
C119   N142    1.367   .     A
C119   H137    1.082   .     S
C119   C805    1.417   1_554 S
C120   N141    1.367   .     A
C120   H138    1.082   .     S
C120   C464    1.417   .     S
C121   H139    1.082   .     S
C121   N141    1.367   .     A
C121   C461    1.417   .     S
C122   H140    1.082   .     S
C122   N142    1.367   .     A
C122   C804    1.417   1_554 S
C123   O144    1.281   .     A
C123   O146    1.282   .     A
C124   O149    1.281   .     A
C124   C126    1.403   .     S
C124   O147    1.278   .     A
C125   C127    1.403   .     S
C125   O150    1.281   .     A
C125   O148    1.278   .     A
C126   C203    1.330   1_455 S
C126   H209    1.088   1_455 S
C127   C164    1.330   .     S
C127   H172    1.088   .     S
C128   H135    1.085   .     S
C129   H136    1.085   .     S
C129   C230    1.373   .     S
C130   Cl131   1.765   .     S
C130   C242    1.373   .     S
H133   C164    1.088   .     S
H134   C203    1.088   1_455 S
N141   Zn151   2.012   .     S
N142   Zn152   2.012   .     S
O143   Zn151   1.990   .     S
O144   Zn152   1.990   .     S
O145   Zn152   1.988   .     S
O146   Zn151   1.988   .     S
O147   Zn151   1.970   .     S
O148   Zn152   1.970   .     S
O149   Zn152   1.981   .     S
O150   Zn151   1.981   .     S
C153   C156    1.410   .     S
C153   O181    1.281   .     A
C153   O183    1.282   .     A
C154   C156    1.401   .     A
C154   Cl170   1.765   .     S
C155   C161    1.410   .     S
C155   C167    1.395   .     A
C155   C168    1.401   .     A
C156   C166    1.395   .     A
C157   N180    1.367   .     A
C157   H175    1.082   .     S
C157   C843    1.417   1_554 S
C158   N179    1.367   .     A
C158   H176    1.082   .     S
C158   C502    1.417   .     S
C159   H177    1.082   .     S
C159   N179    1.367   .     A
C159   C499    1.417   .     S
C160   H178    1.082   .     S
C160   N180    1.367   .     A
C160   C842    1.417   1_554 S
C161   O182    1.281   .     A
C161   O184    1.282   .     A
C162   O187    1.281   .     A
C162   C164    1.403   .     S
C162   O185    1.278   .     A
C163   C165    1.403   .     S
C163   O188    1.281   .     A
C163   O186    1.278   .     A
C165   C202    1.330   .     S
C165   H210    1.088   .     S
C166   H173    1.085   .     S
C167   H174    1.085   .     S
C167   C268    1.373   .     S
C168   Cl169   1.765   .     S
C168   C280    1.373   .     S
H171   C202    1.088   .     S
N179   Zn189   2.012   .     S
N180   Zn190   2.012   .     S
O181   Zn189   1.990   .     S
O182   Zn190   1.990   .     S
O183   Zn190   1.988   .     S
O184   Zn189   1.988   .     S
O185   Zn189   1.970   .     S
O186   Zn190   1.970   .     S
O187   Zn190   1.981   .     S
O188   Zn189   1.981   .     S
C191   C194    1.410   .     S
C191   O219    1.281   .     A
C191   O221    1.282   .     A
C192   C194    1.401   .     A
C192   Cl208   1.765   .     S
C193   C199    1.410   .     S
C193   C205    1.395   .     A
C193   C206    1.401   .     A
C194   C204    1.395   .     A
C195   N218    1.367   .     A
C195   H213    1.082   .     S
C195   C881    1.417   1_554 S
C196   N217    1.367   .     A
C196   H214    1.082   .     S
C196   C540    1.417   .     S
C197   H215    1.082   .     S
C197   N217    1.367   .     A
C197   C537    1.417   .     S
C198   H216    1.082   .     S
C198   N218    1.367   .     A
C198   C880    1.417   1_554 S
C199   O220    1.281   .     A
C199   O222    1.282   .     A
C200   O225    1.281   .     A
C200   C202    1.403   .     S
C200   O223    1.278   .     A
C201   C203    1.403   .     S
C201   O226    1.281   .     A
C201   O224    1.278   .     A
C203   C126    1.330   1_655 S
C203   H134    1.088   1_655 S
C204   H211    1.085   .     S
C205   H212    1.085   .     S
C205   C306    1.373   .     S
C206   Cl207   1.765   .     S
C206   C318    1.373   .     S
H209   C126    1.088   1_655 S
N217   Zn227   2.012   .     S
N218   Zn228   2.012   .     S
O219   Zn227   1.990   .     S
O220   Zn228   1.990   .     S
O221   Zn228   1.988   .     S
O222   Zn227   1.988   .     S
O223   Zn227   1.970   .     S
O224   Zn228   1.970   .     S
O225   Zn228   1.981   .     S
O226   Zn227   1.981   .     S
C229   C232    1.410   .     S
C229   O257    1.281   .     A
C229   O259    1.282   .     A
C230   C232    1.401   .     A
C230   Cl246   1.765   .     S
C231   C237    1.410   .     S
C231   C243    1.395   .     A
C231   C244    1.401   .     A
C232   C242    1.395   .     A
C233   N256    1.367   .     A
C233   H251    1.082   .     S
C233   C919    1.417   1_554 S
C234   N255    1.367   .     A
C234   H252    1.082   .     S
C234   C578    1.417   .     S
C235   H253    1.082   .     S
C235   N255    1.367   .     A
C235   C575    1.417   .     S
C236   H254    1.082   .     S
C236   N256    1.367   .     A
C236   C918    1.417   1_554 S
C237   O258    1.281   .     A
C237   O260    1.282   .     A
C238   O263    1.281   .     A
C238   C240    1.403   .     S
C238   O261    1.278   .     A
C239   C241    1.403   .     S
C239   O264    1.281   .     A
C239   O262    1.278   .     A
C240   C317    1.330   1_455 S
C240   H323    1.088   1_455 S
C241   C278    1.330   .     S
C241   H286    1.088   .     S
C242   H249    1.085   .     S
C243   H250    1.085   .     S
C243   C2      1.373   1_565 S
C244   Cl245   1.765   .     S
C244   C14     1.373   1_565 S
H247   C278    1.088   .     S
H248   C317    1.088   1_455 S
N255   Zn265   2.012   .     S
N256   Zn266   2.012   .     S
O257   Zn265   1.990   .     S
O258   Zn266   1.990   .     S
O259   Zn266   1.988   .     S
O260   Zn265   1.988   .     S
O261   Zn265   1.970   .     S
O262   Zn266   1.970   .     S
O263   Zn266   1.981   .     S
O264   Zn265   1.981   .     S
C267   C270    1.410   .     S
C267   O295    1.281   .     A
C267   O297    1.282   .     A
C268   C270    1.401   .     A
C268   Cl284   1.765   .     S
C269   C275    1.410   .     S
C269   C281    1.395   .     A
C269   C282    1.401   .     A
C270   C280    1.395   .     A
C271   N294    1.367   .     A
C271   H289    1.082   .     S
C271   C957    1.417   1_554 S
C272   N293    1.367   .     A
C272   H290    1.082   .     S
C272   C616    1.417   .     S
C273   H291    1.082   .     S
C273   N293    1.367   .     A
C273   C613    1.417   .     S
C274   H292    1.082   .     S
C274   N294    1.367   .     A
C274   C956    1.417   1_554 S
C275   O296    1.281   .     A
C275   O298    1.282   .     A
C276   O301    1.281   .     A
C276   C278    1.403   .     S
C276   O299    1.278   .     A
C277   C279    1.403   .     S
C277   O302    1.281   .     A
C277   O300    1.278   .     A
C279   C316    1.330   .     S
C279   H324    1.088   .     S
C280   H287    1.085   .     S
C281   H288    1.085   .     S
C281   C40     1.373   1_565 S
C282   Cl283   1.765   .     S
C282   C52     1.373   1_565 S
H285   C316    1.088   .     S
N293   Zn303   2.012   .     S
N294   Zn304   2.012   .     S
O295   Zn303   1.990   .     S
O296   Zn304   1.990   .     S
O297   Zn304   1.988   .     S
O298   Zn303   1.988   .     S
O299   Zn303   1.970   .     S
O300   Zn304   1.970   .     S
O301   Zn304   1.981   .     S
O302   Zn303   1.981   .     S
C305   C308    1.410   .     S
C305   O333    1.281   .     A
C305   O335    1.282   .     A
C306   C308    1.401   .     A
C306   Cl322   1.765   .     S
C307   C313    1.410   .     S
C307   C319    1.395   .     A
C307   C320    1.401   .     A
C308   C318    1.395   .     A
C309   N332    1.367   .     A
C309   H327    1.082   .     S
C309   C995    1.417   1_554 S
C310   N331    1.367   .     A
C310   H328    1.082   .     S
C310   C654    1.417   .     S
C311   H329    1.082   .     S
C311   N331    1.367   .     A
C311   C651    1.417   .     S
C312   H330    1.082   .     S
C312   N332    1.367   .     A
C312   C994    1.417   1_554 S
C313   O334    1.281   .     A
C313   O336    1.282   .     A
C314   O339    1.281   .     A
C314   C316    1.403   .     S
C314   O337    1.278   .     A
C315   C317    1.403   .     S
C315   O340    1.281   .     A
C315   O338    1.278   .     A
C317   C240    1.330   1_655 S
C317   H248    1.088   1_655 S
C318   H325    1.085   .     S
C319   H326    1.085   .     S
C319   C78     1.373   1_565 S
C320   Cl321   1.765   .     S
C320   C90     1.373   1_565 S
H323   C240    1.088   1_655 S
N331   Zn341   2.012   .     S
N332   Zn342   2.012   .     S
O333   Zn341   1.990   .     S
O334   Zn342   1.990   .     S
O335   Zn342   1.988   .     S
O336   Zn341   1.988   .     S
O337   Zn341   1.970   .     S
O338   Zn342   1.970   .     S
O339   Zn342   1.981   .     S
O340   Zn341   1.981   .     S
C343   C346    1.410   .     S
C343   O371    1.281   .     A
C343   O373    1.282   .     A
C344   C346    1.401   .     A
C344   Cl360   1.765   .     S
C344   C585    1.373   1_545 S
C345   C351    1.410   .     S
C345   C357    1.395   .     A
C345   C358    1.401   .     A
C346   C356    1.395   .     A
C347   N370    1.367   .     A
C347   H365    1.082   .     S
C348   N369    1.367   .     A
C348   H366    1.082   .     S
C348   C692    1.417   .     S
C349   H367    1.082   .     S
C349   N369    1.367   .     A
C349   C689    1.417   .     S
C350   H368    1.082   .     S
C350   N370    1.367   .     A
C351   O372    1.281   .     A
C351   O374    1.282   .     A
C352   O377    1.281   .     A
C352   C354    1.403   .     S
C352   O375    1.278   .     A
C353   C355    1.403   .     S
C353   O378    1.281   .     A
C353   O376    1.278   .     A
C354   C431    1.330   1_455 S
C354   H437    1.088   1_455 S
C355   C392    1.330   .     S
C355   H400    1.088   .     S
C356   H363    1.085   .     S
C356   C586    1.373   1_545 S
C357   H364    1.085   .     S
C357   C458    1.373   .     S
C358   Cl359   1.765   .     S
C358   C470    1.373   .     S
H361   C392    1.088   .     S
H362   C431    1.088   1_455 S
N369   Zn379   2.012   .     S
N370   Zn380   2.012   .     S
O371   Zn379   1.990   .     S
O372   Zn380   1.990   .     S
O373   Zn380   1.988   .     S
O374   Zn379   1.988   .     S
O375   Zn379   1.970   .     S
O376   Zn380   1.970   .     S
O377   Zn380   1.981   .     S
O378   Zn379   1.981   .     S
C381   C384    1.410   .     S
C381   O409    1.281   .     A
C381   O411    1.282   .     A
C382   C384    1.401   .     A
C382   Cl398   1.765   .     S
C382   C623    1.373   1_545 S
C383   C389    1.410   .     S
C383   C395    1.395   .     A
C383   C396    1.401   .     A
C384   C394    1.395   .     A
C385   N408    1.367   .     A
C385   H403    1.082   .     S
C386   N407    1.367   .     A
C386   H404    1.082   .     S
C386   C730    1.417   .     S
C387   H405    1.082   .     S
C387   N407    1.367   .     A
C387   C727    1.417   .     S
C388   H406    1.082   .     S
C388   N408    1.367   .     A
C389   O410    1.281   .     A
C389   O412    1.282   .     A
C390   O415    1.281   .     A
C390   C392    1.403   .     S
C390   O413    1.278   .     A
C391   C393    1.403   .     S
C391   O416    1.281   .     A
C391   O414    1.278   .     A
C393   C430    1.330   .     S
C393   H438    1.088   .     S
C394   H401    1.085   .     S
C394   C624    1.373   1_545 S
C395   H402    1.085   .     S
C395   C496    1.373   .     S
C396   Cl397   1.765   .     S
C396   C508    1.373   .     S
H399   C430    1.088   .     S
N407   Zn417   2.012   .     S
N408   Zn418   2.012   .     S
O409   Zn417   1.990   .     S
O410   Zn418   1.990   .     S
O411   Zn418   1.988   .     S
O412   Zn417   1.988   .     S
O413   Zn417   1.970   .     S
O414   Zn418   1.970   .     S
O415   Zn418   1.981   .     S
O416   Zn417   1.981   .     S
C419   C422    1.410   .     S
C419   O447    1.281   .     A
C419   O449    1.282   .     A
C420   C422    1.401   .     A
C420   Cl436   1.765   .     S
C420   C661    1.373   1_545 S
C421   C427    1.410   .     S
C421   C433    1.395   .     A
C421   C434    1.401   .     A
C422   C432    1.395   .     A
C423   N446    1.367   .     A
C423   H441    1.082   .     S
C424   N445    1.367   .     A
C424   H442    1.082   .     S
C424   C768    1.417   .     S
C425   H443    1.082   .     S
C425   N445    1.367   .     A
C425   C765    1.417   .     S
C426   H444    1.082   .     S
C426   N446    1.367   .     A
C427   O448    1.281   .     A
C427   O450    1.282   .     A
C428   O453    1.281   .     A
C428   C430    1.403   .     S
C428   O451    1.278   .     A
C429   C431    1.403   .     S
C429   O454    1.281   .     A
C429   O452    1.278   .     A
C431   C354    1.330   1_655 S
C431   H362    1.088   1_655 S
C432   H439    1.085   .     S
C432   C662    1.373   1_545 S
C433   H440    1.085   .     S
C433   C534    1.373   .     S
C434   Cl435   1.765   .     S
C434   C546    1.373   .     S
H437   C354    1.088   1_655 S
N445   Zn455   2.012   .     S
N446   Zn456   2.012   .     S
O447   Zn455   1.990   .     S
O448   Zn456   1.990   .     S
O449   Zn456   1.988   .     S
O450   Zn455   1.988   .     S
O451   Zn455   1.970   .     S
O452   Zn456   1.970   .     S
O453   Zn456   1.981   .     S
O454   Zn455   1.981   .     S
C457   C460    1.410   .     S
C457   O485    1.281   .     A
C457   O487    1.282   .     A
C458   C460    1.401   .     A
C458   Cl474   1.765   .     S
C459   C465    1.410   .     S
C459   C471    1.395   .     A
C459   C472    1.401   .     A
C460   C470    1.395   .     A
C461   N484    1.367   .     A
C461   H479    1.082   .     S
C462   N483    1.367   .     A
C462   H480    1.082   .     S
C462   C806    1.417   .     S
C463   H481    1.082   .     S
C463   N483    1.367   .     A
C463   C803    1.417   .     S
C464   H482    1.082   .     S
C464   N484    1.367   .     A
C465   O486    1.281   .     A
C465   O488    1.282   .     A
C466   O491    1.281   .     A
C466   C468    1.403   .     S
C466   O489    1.278   .     A
C467   C469    1.403   .     S
C467   O492    1.281   .     A
C467   O490    1.278   .     A
C468   C545    1.330   1_455 S
C468   H551    1.088   1_455 S
C469   C506    1.330   .     S
C469   H514    1.088   .     S
C470   H477    1.085   .     S
C471   H478    1.085   .     S
C471   C572    1.373   .     S
C472   Cl473   1.765   .     S
C472   C584    1.373   .     S
H475   C506    1.088   .     S
H476   C545    1.088   1_455 S
N483   Zn493   2.012   .     S
N484   Zn494   2.012   .     S
O485   Zn493   1.990   .     S
O486   Zn494   1.990   .     S
O487   Zn494   1.988   .     S
O488   Zn493   1.988   .     S
O489   Zn493   1.970   .     S
O490   Zn494   1.970   .     S
O491   Zn494   1.981   .     S
O492   Zn493   1.981   .     S
C495   C498    1.410   .     S
C495   O523    1.281   .     A
C495   O525    1.282   .     A
C496   C498    1.401   .     A
C496   Cl512   1.765   .     S
C497   C503    1.410   .     S
C497   C509    1.395   .     A
C497   C510    1.401   .     A
C498   C508    1.395   .     A
C499   N522    1.367   .     A
C499   H517    1.082   .     S
C500   N521    1.367   .     A
C500   H518    1.082   .     S
C500   C844    1.417   .     S
C501   H519    1.082   .     S
C501   N521    1.367   .     A
C501   C841    1.417   .     S
C502   H520    1.082   .     S
C502   N522    1.367   .     A
C503   O524    1.281   .     A
C503   O526    1.282   .     A
C504   O529    1.281   .     A
C504   C506    1.403   .     S
C504   O527    1.278   .     A
C505   C507    1.403   .     S
C505   O530    1.281   .     A
C505   O528    1.278   .     A
C507   C544    1.330   .     S
C507   H552    1.088   .     S
C508   H515    1.085   .     S
C509   H516    1.085   .     S
C509   C610    1.373   .     S
C510   Cl511   1.765   .     S
C510   C622    1.373   .     S
H513   C544    1.088   .     S
N521   Zn531   2.012   .     S
N522   Zn532   2.012   .     S
O523   Zn531   1.990   .     S
O524   Zn532   1.990   .     S
O525   Zn532   1.988   .     S
O526   Zn531   1.988   .     S
O527   Zn531   1.970   .     S
O528   Zn532   1.970   .     S
O529   Zn532   1.981   .     S
O530   Zn531   1.981   .     S
C533   C536    1.410   .     S
C533   O561    1.281   .     A
C533   O563    1.282   .     A
C534   C536    1.401   .     A
C534   Cl550   1.765   .     S
C535   C541    1.410   .     S
C535   C547    1.395   .     A
C535   C548    1.401   .     A
C536   C546    1.395   .     A
C537   N560    1.367   .     A
C537   H555    1.082   .     S
C538   N559    1.367   .     A
C538   H556    1.082   .     S
C538   C882    1.417   .     S
C539   H557    1.082   .     S
C539   N559    1.367   .     A
C539   C879    1.417   .     S
C540   H558    1.082   .     S
C540   N560    1.367   .     A
C541   O562    1.281   .     A
C541   O564    1.282   .     A
C542   O567    1.281   .     A
C542   C544    1.403   .     S
C542   O565    1.278   .     A
C543   C545    1.403   .     S
C543   O568    1.281   .     A
C543   O566    1.278   .     A
C545   C468    1.330   1_655 S
C545   H476    1.088   1_655 S
C546   H553    1.085   .     S
C547   H554    1.085   .     S
C547   C648    1.373   .     S
C548   Cl549   1.765   .     S
C548   C660    1.373   .     S
H551   C468    1.088   1_655 S
N559   Zn569   2.012   .     S
N560   Zn570   2.012   .     S
O561   Zn569   1.990   .     S
O562   Zn570   1.990   .     S
O563   Zn570   1.988   .     S
O564   Zn569   1.988   .     S
O565   Zn569   1.970   .     S
O566   Zn570   1.970   .     S
O567   Zn570   1.981   .     S
O568   Zn569   1.981   .     S
C571   C574    1.410   .     S
C571   O599    1.281   .     A
C571   O601    1.282   .     A
C572   C574    1.401   .     A
C572   Cl588   1.765   .     S
C573   C579    1.410   .     S
C573   C585    1.395   .     A
C573   C586    1.401   .     A
C574   C584    1.395   .     A
C575   N598    1.367   .     A
C575   H593    1.082   .     S
C576   N597    1.367   .     A
C576   H594    1.082   .     S
C576   C920    1.417   .     S
C577   H595    1.082   .     S
C577   N597    1.367   .     A
C577   C917    1.417   .     S
C578   H596    1.082   .     S
C578   N598    1.367   .     A
C579   O600    1.281   .     A
C579   O602    1.282   .     A
C580   O605    1.281   .     A
C580   C582    1.403   .     S
C580   O603    1.278   .     A
C581   C583    1.403   .     S
C581   O606    1.281   .     A
C581   O604    1.278   .     A
C582   C659    1.330   1_455 S
C582   H665    1.088   1_455 S
C583   C620    1.330   .     S
C583   H628    1.088   .     S
C584   H591    1.085   .     S
C585   H592    1.085   .     S
C585   C344    1.373   1_565 S
C586   Cl587   1.765   .     S
C586   C356    1.373   1_565 S
H589   C620    1.088   .     S
H590   C659    1.088   1_455 S
N597   Zn607   2.012   .     S
N598   Zn608   2.012   .     S
O599   Zn607   1.990   .     S
O600   Zn608   1.990   .     S
O601   Zn608   1.988   .     S
O602   Zn607   1.988   .     S
O603   Zn607   1.970   .     S
O604   Zn608   1.970   .     S
O605   Zn608   1.981   .     S
O606   Zn607   1.981   .     S
C609   C612    1.410   .     S
C609   O637    1.281   .     A
C609   O639    1.282   .     A
C610   C612    1.401   .     A
C610   Cl626   1.765   .     S
C611   C617    1.410   .     S
C611   C623    1.395   .     A
C611   C624    1.401   .     A
C612   C622    1.395   .     A
C613   N636    1.367   .     A
C613   H631    1.082   .     S
C614   N635    1.367   .     A
C614   H632    1.082   .     S
C614   C958    1.417   .     S
C615   H633    1.082   .     S
C615   N635    1.367   .     A
C615   C955    1.417   .     S
C616   H634    1.082   .     S
C616   N636    1.367   .     A
C617   O638    1.281   .     A
C617   O640    1.282   .     A
C618   O643    1.281   .     A
C618   C620    1.403   .     S
C618   O641    1.278   .     A
C619   C621    1.403   .     S
C619   O644    1.281   .     A
C619   O642    1.278   .     A
C621   C658    1.330   .     S
C621   H666    1.088   .     S
C622   H629    1.085   .     S
C623   H630    1.085   .     S
C623   C382    1.373   1_565 S
C624   Cl625   1.765   .     S
C624   C394    1.373   1_565 S
H627   C658    1.088   .     S
N635   Zn645   2.012   .     S
N636   Zn646   2.012   .     S
O637   Zn645   1.990   .     S
O638   Zn646   1.990   .     S
O639   Zn646   1.988   .     S
O640   Zn645   1.988   .     S
O641   Zn645   1.970   .     S
O642   Zn646   1.970   .     S
O643   Zn646   1.981   .     S
O644   Zn645   1.981   .     S
C647   C650    1.410   .     S
C647   O675    1.281   .     A
C647   O677    1.282   .     A
C648   C650    1.401   .     A
C648   Cl664   1.765   .     S
C649   C655    1.410   .     S
C649   C661    1.395   .     A
C649   C662    1.401   .     A
C650   C660    1.395   .     A
C651   N674    1.367   .     A
C651   H669    1.082   .     S
C652   N673    1.367   .     A
C652   H670    1.082   .     S
C652   C996    1.417   .     S
C653   H671    1.082   .     S
C653   N673    1.367   .     A
C653   C993    1.417   .     S
C654   H672    1.082   .     S
C654   N674    1.367   .     A
C655   O676    1.281   .     A
C655   O678    1.282   .     A
C656   O681    1.281   .     A
C656   C658    1.403   .     S
C656   O679    1.278   .     A
C657   C659    1.403   .     S
C657   O682    1.281   .     A
C657   O680    1.278   .     A
C659   C582    1.330   1_655 S
C659   H590    1.088   1_655 S
C660   H667    1.085   .     S
C661   H668    1.085   .     S
C661   C420    1.373   1_565 S
C662   Cl663   1.765   .     S
C662   C432    1.373   1_565 S
H665   C582    1.088   1_655 S
N673   Zn683   2.012   .     S
N674   Zn684   2.012   .     S
O675   Zn683   1.990   .     S
O676   Zn684   1.990   .     S
O677   Zn684   1.988   .     S
O678   Zn683   1.988   .     S
O679   Zn683   1.970   .     S
O680   Zn684   1.970   .     S
O681   Zn684   1.981   .     S
O682   Zn683   1.981   .     S
C685   C688    1.410   .     S
C685   O713    1.281   .     A
C685   O715    1.282   .     A
C686   C688    1.401   .     A
C686   Cl702   1.765   .     S
C686   C927    1.373   1_545 S
C687   C693    1.410   .     S
C687   C699    1.395   .     A
C687   C700    1.401   .     A
C688   C698    1.395   .     A
C689   N712    1.367   .     A
C689   H707    1.082   .     S
C690   N711    1.367   .     A
C690   H708    1.082   .     S
C690   C8      1.417   1_556 S
C691   H709    1.082   .     S
C691   N711    1.367   .     A
C691   C5      1.417   1_556 S
C692   H710    1.082   .     S
C692   N712    1.367   .     A
C693   O714    1.281   .     A
C693   O716    1.282   .     A
C694   O719    1.281   .     A
C694   C696    1.403   .     S
C694   O717    1.278   .     A
C695   C697    1.403   .     S
C695   O720    1.281   .     A
C695   O718    1.278   .     A
C696   C773    1.330   1_455 S
C696   H779    1.088   1_455 S
C697   C734    1.330   .     S
C697   H742    1.088   .     S
C698   H705    1.085   .     S
C698   C928    1.373   1_545 S
C699   H706    1.085   .     S
C699   C800    1.373   .     S
C700   Cl701   1.765   .     S
C700   C812    1.373   .     S
H703   C734    1.088   .     S
H704   C773    1.088   1_455 S
N711   Zn721   2.012   .     S
N712   Zn722   2.012   .     S
O713   Zn721   1.990   .     S
O714   Zn722   1.990   .     S
O715   Zn722   1.988   .     S
O716   Zn721   1.988   .     S
O717   Zn721   1.970   .     S
O718   Zn722   1.970   .     S
O719   Zn722   1.981   .     S
O720   Zn721   1.981   .     S
C723   C726    1.410   .     S
C723   O751    1.281   .     A
C723   O753    1.282   .     A
C724   C726    1.401   .     A
C724   Cl740   1.765   .     S
C724   C965    1.373   1_545 S
C725   C731    1.410   .     S
C725   C737    1.395   .     A
C725   C738    1.401   .     A
C726   C736    1.395   .     A
C727   N750    1.367   .     A
C727   H745    1.082   .     S
C728   N749    1.367   .     A
C728   H746    1.082   .     S
C728   C46     1.417   1_556 S
C729   H747    1.082   .     S
C729   N749    1.367   .     A
C729   C43     1.417   1_556 S
C730   H748    1.082   .     S
C730   N750    1.367   .     A
C731   O752    1.281   .     A
C731   O754    1.282   .     A
C732   O757    1.281   .     A
C732   C734    1.403   .     S
C732   O755    1.278   .     A
C733   C735    1.403   .     S
C733   O758    1.281   .     A
C733   O756    1.278   .     A
C735   C772    1.330   .     S
C735   H780    1.088   .     S
C736   H743    1.085   .     S
C736   C966    1.373   1_545 S
C737   H744    1.085   .     S
C737   C838    1.373   .     S
C738   Cl739   1.765   .     S
C738   C850    1.373   .     S
H741   C772    1.088   .     S
N749   Zn759   2.012   .     S
N750   Zn760   2.012   .     S
O751   Zn759   1.990   .     S
O752   Zn760   1.990   .     S
O753   Zn760   1.988   .     S
O754   Zn759   1.988   .     S
O755   Zn759   1.970   .     S
O756   Zn760   1.970   .     S
O757   Zn760   1.981   .     S
O758   Zn759   1.981   .     S
C761   C764    1.410   .     S
C761   O789    1.281   .     A
C761   O791    1.282   .     A
C762   C764    1.401   .     A
C762   Cl778   1.765   .     S
C762   C1003   1.373   1_545 S
C763   C769    1.410   .     S
C763   C775    1.395   .     A
C763   C776    1.401   .     A
C764   C774    1.395   .     A
C765   N788    1.367   .     A
C765   H783    1.082   .     S
C766   N787    1.367   .     A
C766   H784    1.082   .     S
C766   C84     1.417   1_556 S
C767   H785    1.082   .     S
C767   N787    1.367   .     A
C767   C81     1.417   1_556 S
C768   H786    1.082   .     S
C768   N788    1.367   .     A
C769   O790    1.281   .     A
C769   O792    1.282   .     A
C770   O795    1.281   .     A
C770   C772    1.403   .     S
C770   O793    1.278   .     A
C771   C773    1.403   .     S
C771   O796    1.281   .     A
C771   O794    1.278   .     A
C773   C696    1.330   1_655 S
C773   H704    1.088   1_655 S
C774   H781    1.085   .     S
C774   C1004   1.373   1_545 S
C775   H782    1.085   .     S
C775   C876    1.373   .     S
C776   Cl777   1.765   .     S
C776   C888    1.373   .     S
H779   C696    1.088   1_655 S
N787   Zn797   2.012   .     S
N788   Zn798   2.012   .     S
O789   Zn797   1.990   .     S
O790   Zn798   1.990   .     S
O791   Zn798   1.988   .     S
O792   Zn797   1.988   .     S
O793   Zn797   1.970   .     S
O794   Zn798   1.970   .     S
O795   Zn798   1.981   .     S
O796   Zn797   1.981   .     S
C799   C802    1.410   .     S
C799   O827    1.281   .     A
C799   O829    1.282   .     A
C800   C802    1.401   .     A
C800   Cl816   1.765   .     S
C801   C807    1.410   .     S
C801   C813    1.395   .     A
C801   C814    1.401   .     A
C802   C812    1.395   .     A
C803   N826    1.367   .     A
C803   H821    1.082   .     S
C804   N825    1.367   .     A
C804   H822    1.082   .     S
C804   C122    1.417   1_556 S
C805   H823    1.082   .     S
C805   N825    1.367   .     A
C805   C119    1.417   1_556 S
C806   H824    1.082   .     S
C806   N826    1.367   .     A
C807   O828    1.281   .     A
C807   O830    1.282   .     A
C808   O833    1.281   .     A
C808   C810    1.403   .     S
C808   O831    1.278   .     A
C809   C811    1.403   .     S
C809   O834    1.281   .     A
C809   O832    1.278   .     A
C810   C887    1.330   1_455 S
C810   H893    1.088   1_455 S
C811   C848    1.330   .     S
C811   H856    1.088   .     S
C812   H819    1.085   .     S
C813   H820    1.085   .     S
C813   C914    1.373   .     S
C814   Cl815   1.765   .     S
C814   C926    1.373   .     S
H817   C848    1.088   .     S
H818   C887    1.088   1_455 S
N825   Zn835   2.012   .     S
N826   Zn836   2.012   .     S
O827   Zn835   1.990   .     S
O828   Zn836   1.990   .     S
O829   Zn836   1.988   .     S
O830   Zn835   1.988   .     S
O831   Zn835   1.970   .     S
O832   Zn836   1.970   .     S
O833   Zn836   1.981   .     S
O834   Zn835   1.981   .     S
C837   C840    1.410   .     S
C837   O865    1.281   .     A
C837   O867    1.282   .     A
C838   C840    1.401   .     A
C838   Cl854   1.765   .     S
C839   C845    1.410   .     S
C839   C851    1.395   .     A
C839   C852    1.401   .     A
C840   C850    1.395   .     A
C841   N864    1.367   .     A
C841   H859    1.082   .     S
C842   N863    1.367   .     A
C842   H860    1.082   .     S
C842   C160    1.417   1_556 S
C843   H861    1.082   .     S
C843   N863    1.367   .     A
C843   C157    1.417   1_556 S
C844   H862    1.082   .     S
C844   N864    1.367   .     A
C845   O866    1.281   .     A
C845   O868    1.282   .     A
C846   O871    1.281   .     A
C846   C848    1.403   .     S
C846   O869    1.278   .     A
C847   C849    1.403   .     S
C847   O872    1.281   .     A
C847   O870    1.278   .     A
C849   C886    1.330   .     S
C849   H894    1.088   .     S
C850   H857    1.085   .     S
C851   H858    1.085   .     S
C851   C952    1.373   .     S
C852   Cl853   1.765   .     S
C852   C964    1.373   .     S
H855   C886    1.088   .     S
N863   Zn873   2.012   .     S
N864   Zn874   2.012   .     S
O865   Zn873   1.990   .     S
O866   Zn874   1.990   .     S
O867   Zn874   1.988   .     S
O868   Zn873   1.988   .     S
O869   Zn873   1.970   .     S
O870   Zn874   1.970   .     S
O871   Zn874   1.981   .     S
O872   Zn873   1.981   .     S
C875   C878    1.410   .     S
C875   O903    1.281   .     A
C875   O905    1.282   .     A
C876   C878    1.401   .     A
C876   Cl892   1.765   .     S
C877   C883    1.410   .     S
C877   C889    1.395   .     A
C877   C890    1.401   .     A
C878   C888    1.395   .     A
C879   N902    1.367   .     A
C879   H897    1.082   .     S
C880   N901    1.367   .     A
C880   H898    1.082   .     S
C880   C198    1.417   1_556 S
C881   H899    1.082   .     S
C881   N901    1.367   .     A
C881   C195    1.417   1_556 S
C882   H900    1.082   .     S
C882   N902    1.367   .     A
C883   O904    1.281   .     A
C883   O906    1.282   .     A
C884   O909    1.281   .     A
C884   C886    1.403   .     S
C884   O907    1.278   .     A
C885   C887    1.403   .     S
C885   O910    1.281   .     A
C885   O908    1.278   .     A
C887   C810    1.330   1_655 S
C887   H818    1.088   1_655 S
C888   H895    1.085   .     S
C889   H896    1.085   .     S
C889   C990    1.373   .     S
C890   Cl891   1.765   .     S
C890   C1002   1.373   .     S
H893   C810    1.088   1_655 S
N901   Zn911   2.012   .     S
N902   Zn912   2.012   .     S
O903   Zn911   1.990   .     S
O904   Zn912   1.990   .     S
O905   Zn912   1.988   .     S
O906   Zn911   1.988   .     S
O907   Zn911   1.970   .     S
O908   Zn912   1.970   .     S
O909   Zn912   1.981   .     S
O910   Zn911   1.981   .     S
C913   C916    1.410   .     S
C913   O941    1.281   .     A
C913   O943    1.282   .     A
C914   C916    1.401   .     A
C914   Cl930   1.765   .     S
C915   C921    1.410   .     S
C915   C927    1.395   .     A
C915   C928    1.401   .     A
C916   C926    1.395   .     A
C917   N940    1.367   .     A
C917   H935    1.082   .     S
C918   N939    1.367   .     A
C918   H936    1.082   .     S
C918   C236    1.417   1_556 S
C919   H937    1.082   .     S
C919   N939    1.367   .     A
C919   C233    1.417   1_556 S
C920   H938    1.082   .     S
C920   N940    1.367   .     A
C921   O942    1.281   .     A
C921   O944    1.282   .     A
C922   O947    1.281   .     A
C922   C924    1.403   .     S
C922   O945    1.278   .     A
C923   C925    1.403   .     S
C923   O948    1.281   .     A
C923   O946    1.278   .     A
C924   C1001   1.330   1_455 S
C924   H1007   1.088   1_455 S
C925   C962    1.330   .     S
C925   H970    1.088   .     S
C926   H933    1.085   .     S
C927   H934    1.085   .     S
C927   C686    1.373   1_565 S
C928   Cl929   1.765   .     S
C928   C698    1.373   1_565 S
H931   C962    1.088   .     S
H932   C1001   1.088   1_455 S
N939   Zn949   2.012   .     S
N940   Zn950   2.012   .     S
O941   Zn949   1.990   .     S
O942   Zn950   1.990   .     S
O943   Zn950   1.988   .     S
O944   Zn949   1.988   .     S
O945   Zn949   1.970   .     S
O946   Zn950   1.970   .     S
O947   Zn950   1.981   .     S
O948   Zn949   1.981   .     S
C951   C954    1.410   .     S
C951   O979    1.281   .     A
C951   O981    1.282   .     A
C952   C954    1.401   .     A
C952   Cl968   1.765   .     S
C953   C959    1.410   .     S
C953   C965    1.395   .     A
C953   C966    1.401   .     A
C954   C964    1.395   .     A
C955   N978    1.367   .     A
C955   H973    1.082   .     S
C956   N977    1.367   .     A
C956   H974    1.082   .     S
C956   C274    1.417   1_556 S
C957   H975    1.082   .     S
C957   N977    1.367   .     A
C957   C271    1.417   1_556 S
C958   H976    1.082   .     S
C958   N978    1.367   .     A
C959   O980    1.281   .     A
C959   O982    1.282   .     A
C960   O985    1.281   .     A
C960   C962    1.403   .     S
C960   O983    1.278   .     A
C961   C963    1.403   .     S
C961   O986    1.281   .     A
C961   O984    1.278   .     A
C963   C1000   1.330   .     S
C963   H1008   1.088   .     S
C964   H971    1.085   .     S
C965   H972    1.085   .     S
C965   C724    1.373   1_565 S
C966   Cl967   1.765   .     S
C966   C736    1.373   1_565 S
H969   C1000   1.088   .     S
N977   Zn987   2.012   .     S
N978   Zn988   2.012   .     S
O979   Zn987   1.990   .     S
O980   Zn988   1.990   .     S
O981   Zn988   1.988   .     S
O982   Zn987   1.988   .     S
O983   Zn987   1.970   .     S
O984   Zn988   1.970   .     S
O985   Zn988   1.981   .     S
O986   Zn987   1.981   .     S
C989   C992    1.410   .     S
C989   O1017   1.281   .     A
C989   O1019   1.282   .     A
C990   C992    1.401   .     A
C990   Cl1006  1.765   .     S
C991   C997    1.410   .     S
C991   C1003   1.395   .     A
C991   C1004   1.401   .     A
C992   C1002   1.395   .     A
C993   N1016   1.367   .     A
C993   H1011   1.082   .     S
C994   N1015   1.367   .     A
C994   H1012   1.082   .     S
C994   C312    1.417   1_556 S
C995   H1013   1.082   .     S
C995   N1015   1.367   .     A
C995   C309    1.417   1_556 S
C996   H1014   1.082   .     S
C996   N1016   1.367   .     A
C997   O1018   1.281   .     A
C997   O1020   1.282   .     A
C998   O1023   1.281   .     A
C998   C1000   1.403   .     S
C998   O1021   1.278   .     A
C999   C1001   1.403   .     S
C999   O1024   1.281   .     A
C999   O1022   1.278   .     A
C1001  C924    1.330   1_655 S
C1001  H932    1.088   1_655 S
C1002  H1009   1.085   .     S
C1003  H1010   1.085   .     S
C1003  C762    1.373   1_565 S
C1004  Cl1005  1.765   .     S
C1004  C774    1.373   1_565 S
H1007  C924    1.088   1_655 S
N1015  Zn1025  2.012   .     S
N1016  Zn1026  2.012   .     S
O1017  Zn1025  1.990   .     S
O1018  Zn1026  1.990   .     S
O1019  Zn1026  1.988   .     S
O1020  Zn1025  1.988   .     S
O1021  Zn1025  1.970   .     S
O1022  Zn1026  1.970   .     S
O1023  Zn1026  1.981   .     S
O1024  Zn1025  1.981   .     S
